data_image0
_cell_length_a       33.7837
_cell_length_b       33.7837
_cell_length_c       33.7837
_cell_angle_alpha    90
_cell_angle_beta     90
_cell_angle_gamma    90

_symmetry_space_group_name_H-M    "P 1"
_symmetry_int_tables_number       1

loop_
  _symmetry_equiv_pos_as_xyz
  'x, y, z'

loop_
  _atom_site_label
  _atom_site_occupancy
  _atom_site_fract_x
  _atom_site_fract_y
  _atom_site_fract_z
  _atom_site_thermal_displace_type
  _atom_site_B_iso_or_equiv
  _atom_site_type_symbol
  C1       1.0000 0.32450  0.60180  0.81070  Biso   1.000  C
  H1       1.0000 0.33800  0.62420  0.81930  Biso   1.000  H
  C2       1.0000 0.36100  0.49400  0.85510  Biso   1.000  C
  C3       1.0000 0.27370  0.57290  0.77070  Biso   1.000  C
  H2       1.0000 0.25190  0.57470  0.75390  Biso   1.000  H
  O1       1.0000 0.36620  0.56630  0.85230  Biso   1.000  O
  C4       1.0000 0.28790  0.53650  0.78300  Biso   1.000  C
  H3       1.0000 0.27790  0.51390  0.77090  Biso   1.000  H
  N1       1.0000 0.33000  0.49540  0.82430  Biso   1.000  N
  C5       1.0000 0.37550  0.53080  0.86860  Biso   1.000  C
  C6       1.0000 0.33490  0.56800  0.82310  Biso   1.000  C
  C7       1.0000 0.31490  0.53200  0.81100  Biso   1.000  C
  C8       1.0000 0.29270  0.60620  0.78410  Biso   1.000  C
  C9       1.0000 0.40350  0.53240  0.89700  Biso   1.000  C
  H4       1.0000 0.41380  0.55660  0.90520  Biso   1.000  H
  C10      1.0000 0.41660  0.49700  0.91390  Biso   1.000  C
  C11      1.0000 0.37250  0.46070  0.87080  Biso   1.000  C
  H5       1.0000 0.36190  0.43660  0.86250  Biso   1.000  H
  C12      1.0000 0.44630  0.49540  0.94610  Biso   1.000  C
  O2       1.0000 0.45930  0.53160  0.95680  Biso   1.000  O
  C13      1.0000 0.28490  0.64650  0.77030  Biso   1.000  C
  O3       1.0000 0.30190  0.67600  0.78510  Biso   1.000  O
  O4       1.0000 0.45800  0.46380  0.96010  Biso   1.000  O
  C14      1.0000 0.28690  0.38490  0.78800  Biso   1.000  C
  C15      1.0000 0.27090  0.40440  0.81860  Biso   1.000  C
  H6       1.0000 0.25060  0.39260  0.83290  Biso   1.000  H
  C16      1.0000 0.31200  0.45810  0.81210  Biso   1.000  C
  C17      1.0000 0.28400  0.44230  0.82960  Biso   1.000  C
  H7       1.0000 0.27150  0.45560  0.85020  Biso   1.000  H
  C18      1.0000 0.40060  0.46240  0.90000  Biso   1.000  C
  H8       1.0000 0.40940  0.43880  0.91100  Biso   1.000  H
  C19      1.0000 0.32980  0.44280  0.78180  Biso   1.000  C
  H9       1.0000 0.35070  0.45570  0.76930  Biso   1.000  H
  O5       1.0000 0.28900  0.33030  0.74550  Biso   1.000  O
  C20      1.0000 0.27580  0.34530  0.77860  Biso   1.000  C
  O6       1.0000 0.25290  0.32730  0.79960  Biso   1.000  O
  Zn1      1.0000 0.23048  0.27358  0.80182  Biso   1.000  Zn
  C21      1.0000 0.31550  0.40420  0.76850  Biso   1.000  C
  H10      1.0000 0.32640  0.39280  0.74600  Biso   1.000  H
  O7       1.0000 0.24960  0.65080  0.75350  Biso   1.000  O
  C22      1.0000 0.82450  0.10180  0.31070  Biso   1.000  C
  H11      1.0000 0.83800  0.12420  0.31930  Biso   1.000  H
  C23      1.0000 0.86100  0.99400  0.35510  Biso   1.000  C
  C24      1.0000 0.77370  0.07290  0.27070  Biso   1.000  C
  H12      1.0000 0.75190  0.07470  0.25390  Biso   1.000  H
  O8       1.0000 0.86620  0.06630  0.35230  Biso   1.000  O
  C25      1.0000 0.78790  0.03650  0.28300  Biso   1.000  C
  H13      1.0000 0.77790  0.01390  0.27090  Biso   1.000  H
  N2       1.0000 0.83000  0.99540  0.32430  Biso   1.000  N
  C26      1.0000 0.87550  0.03080  0.36860  Biso   1.000  C
  C27      1.0000 0.83490  0.06800  0.32310  Biso   1.000  C
  C28      1.0000 0.81490  0.03200  0.31100  Biso   1.000  C
  C29      1.0000 0.79270  0.10620  0.28410  Biso   1.000  C
  C30      1.0000 0.90350  0.03240  0.39700  Biso   1.000  C
  H14      1.0000 0.91380  0.05660  0.40520  Biso   1.000  H
  C31      1.0000 0.91660  0.99700  0.41390  Biso   1.000  C
  C32      1.0000 0.87250  0.96070  0.37080  Biso   1.000  C
  H15      1.0000 0.86190  0.93660  0.36250  Biso   1.000  H
  C33      1.0000 0.94630  0.99540  0.44610  Biso   1.000  C
  O9       1.0000 0.95930  0.03160  0.45680  Biso   1.000  O
  C34      1.0000 0.78490  0.14650  0.27030  Biso   1.000  C
  O10      1.0000 0.80190  0.17600  0.28510  Biso   1.000  O
  O11      1.0000 0.95800  0.96380  0.46010  Biso   1.000  O
  C35      1.0000 0.78690  0.88490  0.28800  Biso   1.000  C
  C36      1.0000 0.77090  0.90440  0.31860  Biso   1.000  C
  H16      1.0000 0.75060  0.89260  0.33290  Biso   1.000  H
  C37      1.0000 0.81200  0.95810  0.31210  Biso   1.000  C
  C38      1.0000 0.78400  0.94230  0.32960  Biso   1.000  C
  H17      1.0000 0.77150  0.95560  0.35020  Biso   1.000  H
  C39      1.0000 0.90060  0.96240  0.40000  Biso   1.000  C
  H18      1.0000 0.90940  0.93880  0.41100  Biso   1.000  H
  C40      1.0000 0.82980  0.94280  0.28180  Biso   1.000  C
  H19      1.0000 0.85070  0.95570  0.26930  Biso   1.000  H
  O12      1.0000 0.78900  0.83030  0.24550  Biso   1.000  O
  C41      1.0000 0.77580  0.84530  0.27860  Biso   1.000  C
  O13      1.0000 0.75290  0.82730  0.29960  Biso   1.000  O
  Zn2      1.0000 0.73048  0.77358  0.30182  Biso   1.000  Zn
  C42      1.0000 0.81550  0.90420  0.26850  Biso   1.000  C
  H20      1.0000 0.82640  0.89280  0.24600  Biso   1.000  H
  O14      1.0000 0.74960  0.15080  0.25350  Biso   1.000  O
  C43      1.0000 0.67550  0.39820  0.81070  Biso   1.000  C
  H21      1.0000 0.66200  0.37580  0.81930  Biso   1.000  H
  C44      1.0000 0.63900  0.50600  0.85510  Biso   1.000  C
  C45      1.0000 0.72630  0.42710  0.77070  Biso   1.000  C
  H22      1.0000 0.74810  0.42530  0.75390  Biso   1.000  H
  O15      1.0000 0.63380  0.43370  0.85230  Biso   1.000  O
  C46      1.0000 0.71210  0.46350  0.78300  Biso   1.000  C
  H23      1.0000 0.72210  0.48610  0.77090  Biso   1.000  H
  N3       1.0000 0.67000  0.50460  0.82430  Biso   1.000  N
  C47      1.0000 0.62450  0.46920  0.86860  Biso   1.000  C
  C48      1.0000 0.66510  0.43200  0.82310  Biso   1.000  C
  C49      1.0000 0.68510  0.46800  0.81100  Biso   1.000  C
  C50      1.0000 0.70730  0.39380  0.78410  Biso   1.000  C
  C51      1.0000 0.59650  0.46760  0.89700  Biso   1.000  C
  H24      1.0000 0.58620  0.44340  0.90520  Biso   1.000  H
  C52      1.0000 0.58340  0.50300  0.91390  Biso   1.000  C
  C53      1.0000 0.62750  0.53930  0.87080  Biso   1.000  C
  H25      1.0000 0.63810  0.56340  0.86250  Biso   1.000  H
  C54      1.0000 0.55370  0.50460  0.94610  Biso   1.000  C
  O16      1.0000 0.54070  0.46840  0.95680  Biso   1.000  O
  C55      1.0000 0.71510  0.35350  0.77030  Biso   1.000  C
  O17      1.0000 0.69810  0.32400  0.78510  Biso   1.000  O
  O18      1.0000 0.54200  0.53620  0.96010  Biso   1.000  O
  C56      1.0000 0.71310  0.61510  0.78800  Biso   1.000  C
  C57      1.0000 0.72910  0.59560  0.81860  Biso   1.000  C
  H26      1.0000 0.74940  0.60740  0.83290  Biso   1.000  H
  C58      1.0000 0.68800  0.54190  0.81210  Biso   1.000  C
  C59      1.0000 0.71600  0.55770  0.82960  Biso   1.000  C
  H27      1.0000 0.72850  0.54440  0.85020  Biso   1.000  H
  C60      1.0000 0.59940  0.53760  0.90000  Biso   1.000  C
  H28      1.0000 0.59060  0.56120  0.91100  Biso   1.000  H
  C61      1.0000 0.67020  0.55720  0.78180  Biso   1.000  C
  H29      1.0000 0.64930  0.54430  0.76930  Biso   1.000  H
  O19      1.0000 0.71100  0.66970  0.74550  Biso   1.000  O
  C62      1.0000 0.72420  0.65470  0.77860  Biso   1.000  C
  O20      1.0000 0.74710  0.67270  0.79960  Biso   1.000  O
  Zn3      1.0000 0.76952  0.72642  0.80182  Biso   1.000  Zn
  C63      1.0000 0.68450  0.59580  0.76850  Biso   1.000  C
  H30      1.0000 0.67360  0.60720  0.74600  Biso   1.000  H
  O21      1.0000 0.75040  0.34920  0.75350  Biso   1.000  O
  C64      1.0000 0.17550  0.89820  0.31070  Biso   1.000  C
  H31      1.0000 0.16200  0.87580  0.31930  Biso   1.000  H
  C65      1.0000 0.13900  0.00600  0.35510  Biso   1.000  C
  C66      1.0000 0.22630  0.92710  0.27070  Biso   1.000  C
  H32      1.0000 0.24810  0.92530  0.25390  Biso   1.000  H
  O22      1.0000 0.13380  0.93370  0.35230  Biso   1.000  O
  C67      1.0000 0.21210  0.96350  0.28300  Biso   1.000  C
  H33      1.0000 0.22210  0.98610  0.27090  Biso   1.000  H
  N4       1.0000 0.17000  0.00460  0.32430  Biso   1.000  N
  C68      1.0000 0.12450  0.96920  0.36860  Biso   1.000  C
  C69      1.0000 0.16510  0.93200  0.32310  Biso   1.000  C
  C70      1.0000 0.18510  0.96800  0.31100  Biso   1.000  C
  C71      1.0000 0.20730  0.89380  0.28410  Biso   1.000  C
  C72      1.0000 0.09650  0.96760  0.39700  Biso   1.000  C
  H34      1.0000 0.08620  0.94340  0.40520  Biso   1.000  H
  C73      1.0000 0.08340  0.00300  0.41390  Biso   1.000  C
  C74      1.0000 0.12750  0.03930  0.37080  Biso   1.000  C
  H35      1.0000 0.13810  0.06340  0.36250  Biso   1.000  H
  C75      1.0000 0.05370  0.00460  0.44610  Biso   1.000  C
  O23      1.0000 0.04070  0.96840  0.45680  Biso   1.000  O
  C76      1.0000 0.21510  0.85350  0.27030  Biso   1.000  C
  O24      1.0000 0.19810  0.82400  0.28510  Biso   1.000  O
  O25      1.0000 0.04200  0.03620  0.46010  Biso   1.000  O
  C77      1.0000 0.21310  0.11510  0.28800  Biso   1.000  C
  C78      1.0000 0.22910  0.09560  0.31860  Biso   1.000  C
  H36      1.0000 0.24940  0.10740  0.33290  Biso   1.000  H
  C79      1.0000 0.18800  0.04190  0.31210  Biso   1.000  C
  C80      1.0000 0.21600  0.05770  0.32960  Biso   1.000  C
  H37      1.0000 0.22850  0.04440  0.35020  Biso   1.000  H
  C81      1.0000 0.09940  0.03760  0.40000  Biso   1.000  C
  H38      1.0000 0.09060  0.06120  0.41100  Biso   1.000  H
  C82      1.0000 0.17020  0.05720  0.28180  Biso   1.000  C
  H39      1.0000 0.14930  0.04430  0.26930  Biso   1.000  H
  O26      1.0000 0.21100  0.16970  0.24550  Biso   1.000  O
  C83      1.0000 0.22420  0.15470  0.27860  Biso   1.000  C
  O27      1.0000 0.24710  0.17270  0.29960  Biso   1.000  O
  Zn4      1.0000 0.26952  0.22642  0.30182  Biso   1.000  Zn
  C84      1.0000 0.18450  0.09580  0.26850  Biso   1.000  C
  H40      1.0000 0.17360  0.10720  0.24600  Biso   1.000  H
  O28      1.0000 0.25040  0.84920  0.25350  Biso   1.000  O
  C85      1.0000 0.67550  0.60180  0.18930  Biso   1.000  C
  H41      1.0000 0.66200  0.62420  0.18070  Biso   1.000  H
  C86      1.0000 0.63900  0.49400  0.14490  Biso   1.000  C
  C87      1.0000 0.72630  0.57290  0.22930  Biso   1.000  C
  H42      1.0000 0.74810  0.57470  0.24610  Biso   1.000  H
  O29      1.0000 0.63380  0.56630  0.14770  Biso   1.000  O
  C88      1.0000 0.71210  0.53650  0.21700  Biso   1.000  C
  H43      1.0000 0.72210  0.51390  0.22910  Biso   1.000  H
  N5       1.0000 0.67000  0.49540  0.17570  Biso   1.000  N
  C89      1.0000 0.62450  0.53080  0.13140  Biso   1.000  C
  C90      1.0000 0.66510  0.56800  0.17690  Biso   1.000  C
  C91      1.0000 0.68510  0.53200  0.18900  Biso   1.000  C
  C92      1.0000 0.70730  0.60620  0.21590  Biso   1.000  C
  C93      1.0000 0.59650  0.53240  0.10300  Biso   1.000  C
  H44      1.0000 0.58620  0.55660  0.09480  Biso   1.000  H
  C94      1.0000 0.58340  0.49700  0.08610  Biso   1.000  C
  C95      1.0000 0.62750  0.46070  0.12920  Biso   1.000  C
  H45      1.0000 0.63810  0.43660  0.13750  Biso   1.000  H
  C96      1.0000 0.55370  0.49540  0.05390  Biso   1.000  C
  O30      1.0000 0.54070  0.53160  0.04320  Biso   1.000  O
  C97      1.0000 0.71510  0.64650  0.22970  Biso   1.000  C
  O31      1.0000 0.69810  0.67600  0.21490  Biso   1.000  O
  O32      1.0000 0.54200  0.46380  0.03990  Biso   1.000  O
  C98      1.0000 0.71310  0.38490  0.21200  Biso   1.000  C
  C99      1.0000 0.72910  0.40440  0.18140  Biso   1.000  C
  H46      1.0000 0.74940  0.39260  0.16710  Biso   1.000  H
  C100     1.0000 0.68800  0.45810  0.18790  Biso   1.000  C
  C101     1.0000 0.71600  0.44230  0.17040  Biso   1.000  C
  H47      1.0000 0.72850  0.45560  0.14980  Biso   1.000  H
  C102     1.0000 0.59940  0.46240  0.10000  Biso   1.000  C
  H48      1.0000 0.59060  0.43880  0.08900  Biso   1.000  H
  C103     1.0000 0.67020  0.44280  0.21820  Biso   1.000  C
  H49      1.0000 0.64930  0.45570  0.23070  Biso   1.000  H
  O33      1.0000 0.71100  0.33030  0.25450  Biso   1.000  O
  C104     1.0000 0.72420  0.34530  0.22140  Biso   1.000  C
  O34      1.0000 0.74710  0.32730  0.20040  Biso   1.000  O
  Zn5      1.0000 0.76952  0.27358  0.19818  Biso   1.000  Zn
  C105     1.0000 0.68450  0.40420  0.23150  Biso   1.000  C
  H50      1.0000 0.67360  0.39280  0.25400  Biso   1.000  H
  O35      1.0000 0.75040  0.65080  0.24650  Biso   1.000  O
  C106     1.0000 0.17550  0.10180  0.68930  Biso   1.000  C
  H51      1.0000 0.16200  0.12420  0.68070  Biso   1.000  H
  C107     1.0000 0.13900  0.99400  0.64490  Biso   1.000  C
  C108     1.0000 0.22630  0.07290  0.72930  Biso   1.000  C
  H52      1.0000 0.24810  0.07470  0.74610  Biso   1.000  H
  O36      1.0000 0.13380  0.06630  0.64770  Biso   1.000  O
  C109     1.0000 0.21210  0.03650  0.71700  Biso   1.000  C
  H53      1.0000 0.22210  0.01390  0.72910  Biso   1.000  H
  N6       1.0000 0.17000  0.99540  0.67570  Biso   1.000  N
  C110     1.0000 0.12450  0.03080  0.63140  Biso   1.000  C
  C111     1.0000 0.16510  0.06800  0.67690  Biso   1.000  C
  C112     1.0000 0.18510  0.03200  0.68900  Biso   1.000  C
  C113     1.0000 0.20730  0.10620  0.71590  Biso   1.000  C
  C114     1.0000 0.09650  0.03240  0.60300  Biso   1.000  C
  H54      1.0000 0.08620  0.05660  0.59480  Biso   1.000  H
  C115     1.0000 0.08340  0.99700  0.58610  Biso   1.000  C
  C116     1.0000 0.12750  0.96070  0.62920  Biso   1.000  C
  H55      1.0000 0.13810  0.93660  0.63750  Biso   1.000  H
  C117     1.0000 0.05370  0.99540  0.55390  Biso   1.000  C
  O37      1.0000 0.04070  0.03160  0.54320  Biso   1.000  O
  C118     1.0000 0.21510  0.14650  0.72970  Biso   1.000  C
  O38      1.0000 0.19810  0.17600  0.71490  Biso   1.000  O
  O39      1.0000 0.04200  0.96380  0.53990  Biso   1.000  O
  C119     1.0000 0.21310  0.88490  0.71200  Biso   1.000  C
  C120     1.0000 0.22910  0.90440  0.68140  Biso   1.000  C
  H56      1.0000 0.24940  0.89260  0.66710  Biso   1.000  H
  C121     1.0000 0.18800  0.95810  0.68790  Biso   1.000  C
  C122     1.0000 0.21600  0.94230  0.67040  Biso   1.000  C
  H57      1.0000 0.22850  0.95560  0.64980  Biso   1.000  H
  C123     1.0000 0.09940  0.96240  0.60000  Biso   1.000  C
  H58      1.0000 0.09060  0.93880  0.58900  Biso   1.000  H
  C124     1.0000 0.17020  0.94280  0.71820  Biso   1.000  C
  H59      1.0000 0.14930  0.95570  0.73070  Biso   1.000  H
  O40      1.0000 0.21100  0.83030  0.75450  Biso   1.000  O
  C125     1.0000 0.22420  0.84530  0.72140  Biso   1.000  C
  O41      1.0000 0.24710  0.82730  0.70040  Biso   1.000  O
  Zn6      1.0000 0.26952  0.77358  0.69818  Biso   1.000  Zn
  C126     1.0000 0.18450  0.90420  0.73150  Biso   1.000  C
  H60      1.0000 0.17360  0.89280  0.75400  Biso   1.000  H
  O42      1.0000 0.25040  0.15080  0.74650  Biso   1.000  O
  C127     1.0000 0.32450  0.39820  0.18930  Biso   1.000  C
  H61      1.0000 0.33800  0.37580  0.18070  Biso   1.000  H
  C128     1.0000 0.36100  0.50600  0.14490  Biso   1.000  C
  C129     1.0000 0.27370  0.42710  0.22930  Biso   1.000  C
  H62      1.0000 0.25190  0.42530  0.24610  Biso   1.000  H
  O43      1.0000 0.36620  0.43370  0.14770  Biso   1.000  O
  C130     1.0000 0.28790  0.46350  0.21700  Biso   1.000  C
  H63      1.0000 0.27790  0.48610  0.22910  Biso   1.000  H
  N7       1.0000 0.33000  0.50460  0.17570  Biso   1.000  N
  C131     1.0000 0.37550  0.46920  0.13140  Biso   1.000  C
  C132     1.0000 0.33490  0.43200  0.17690  Biso   1.000  C
  C133     1.0000 0.31490  0.46800  0.18900  Biso   1.000  C
  C134     1.0000 0.29270  0.39380  0.21590  Biso   1.000  C
  C135     1.0000 0.40350  0.46760  0.10300  Biso   1.000  C
  H64      1.0000 0.41380  0.44340  0.09480  Biso   1.000  H
  C136     1.0000 0.41660  0.50300  0.08610  Biso   1.000  C
  C137     1.0000 0.37250  0.53930  0.12920  Biso   1.000  C
  H65      1.0000 0.36190  0.56340  0.13750  Biso   1.000  H
  C138     1.0000 0.44630  0.50460  0.05390  Biso   1.000  C
  O44      1.0000 0.45930  0.46840  0.04320  Biso   1.000  O
  C139     1.0000 0.28490  0.35350  0.22970  Biso   1.000  C
  O45      1.0000 0.30190  0.32400  0.21490  Biso   1.000  O
  O46      1.0000 0.45800  0.53620  0.03990  Biso   1.000  O
  C140     1.0000 0.28690  0.61510  0.21200  Biso   1.000  C
  C141     1.0000 0.27090  0.59560  0.18140  Biso   1.000  C
  H66      1.0000 0.25060  0.60740  0.16710  Biso   1.000  H
  C142     1.0000 0.31200  0.54190  0.18790  Biso   1.000  C
  C143     1.0000 0.28400  0.55770  0.17040  Biso   1.000  C
  H67      1.0000 0.27150  0.54440  0.14980  Biso   1.000  H
  C144     1.0000 0.40060  0.53760  0.10000  Biso   1.000  C
  H68      1.0000 0.40940  0.56120  0.08900  Biso   1.000  H
  C145     1.0000 0.32980  0.55720  0.21820  Biso   1.000  C
  H69      1.0000 0.35070  0.54430  0.23070  Biso   1.000  H
  O47      1.0000 0.28900  0.66970  0.25450  Biso   1.000  O
  C146     1.0000 0.27580  0.65470  0.22140  Biso   1.000  C
  O48      1.0000 0.25290  0.67270  0.20040  Biso   1.000  O
  Zn7      1.0000 0.23048  0.72642  0.19818  Biso   1.000  Zn
  C147     1.0000 0.31550  0.59580  0.23150  Biso   1.000  C
  H70      1.0000 0.32640  0.60720  0.25400  Biso   1.000  H
  O49      1.0000 0.24960  0.34920  0.24650  Biso   1.000  O
  C148     1.0000 0.82450  0.89820  0.68930  Biso   1.000  C
  H71      1.0000 0.83800  0.87580  0.68070  Biso   1.000  H
  C149     1.0000 0.86100  0.00600  0.64490  Biso   1.000  C
  C150     1.0000 0.77370  0.92710  0.72930  Biso   1.000  C
  H72      1.0000 0.75190  0.92530  0.74610  Biso   1.000  H
  O50      1.0000 0.86620  0.93370  0.64770  Biso   1.000  O
  C151     1.0000 0.78790  0.96350  0.71700  Biso   1.000  C
  H73      1.0000 0.77790  0.98610  0.72910  Biso   1.000  H
  N8       1.0000 0.83000  0.00460  0.67570  Biso   1.000  N
  C152     1.0000 0.87550  0.96920  0.63140  Biso   1.000  C
  C153     1.0000 0.83490  0.93200  0.67690  Biso   1.000  C
  C154     1.0000 0.81490  0.96800  0.68900  Biso   1.000  C
  C155     1.0000 0.79270  0.89380  0.71590  Biso   1.000  C
  C156     1.0000 0.90350  0.96760  0.60300  Biso   1.000  C
  H74      1.0000 0.91380  0.94340  0.59480  Biso   1.000  H
  C157     1.0000 0.91660  0.00300  0.58610  Biso   1.000  C
  C158     1.0000 0.87250  0.03930  0.62920  Biso   1.000  C
  H75      1.0000 0.86190  0.06340  0.63750  Biso   1.000  H
  C159     1.0000 0.94630  0.00460  0.55390  Biso   1.000  C
  O51      1.0000 0.95930  0.96840  0.54320  Biso   1.000  O
  C160     1.0000 0.78490  0.85350  0.72970  Biso   1.000  C
  O52      1.0000 0.80190  0.82400  0.71490  Biso   1.000  O
  O53      1.0000 0.95800  0.03620  0.53990  Biso   1.000  O
  C161     1.0000 0.78690  0.11510  0.71200  Biso   1.000  C
  C162     1.0000 0.77090  0.09560  0.68140  Biso   1.000  C
  H76      1.0000 0.75060  0.10740  0.66710  Biso   1.000  H
  C163     1.0000 0.81200  0.04190  0.68790  Biso   1.000  C
  C164     1.0000 0.78400  0.05770  0.67040  Biso   1.000  C
  H77      1.0000 0.77150  0.04440  0.64980  Biso   1.000  H
  C165     1.0000 0.90060  0.03760  0.60000  Biso   1.000  C
  H78      1.0000 0.90940  0.06120  0.58900  Biso   1.000  H
  C166     1.0000 0.82980  0.05720  0.71820  Biso   1.000  C
  H79      1.0000 0.85070  0.04430  0.73070  Biso   1.000  H
  O54      1.0000 0.78900  0.16970  0.75450  Biso   1.000  O
  C167     1.0000 0.77580  0.15470  0.72140  Biso   1.000  C
  O55      1.0000 0.75290  0.17270  0.70040  Biso   1.000  O
  Zn8      1.0000 0.73048  0.22642  0.69818  Biso   1.000  Zn
  C168     1.0000 0.81550  0.09580  0.73150  Biso   1.000  C
  H80      1.0000 0.82640  0.10720  0.75400  Biso   1.000  H
  O56      1.0000 0.74960  0.84920  0.74650  Biso   1.000  O
  C169     1.0000 0.81070  0.32450  0.60180  Biso   1.000  C
  H81      1.0000 0.81930  0.33800  0.62420  Biso   1.000  H
  C170     1.0000 0.85510  0.36100  0.49400  Biso   1.000  C
  C171     1.0000 0.77070  0.27370  0.57290  Biso   1.000  C
  H82      1.0000 0.75390  0.25190  0.57470  Biso   1.000  H
  O57      1.0000 0.85230  0.36620  0.56630  Biso   1.000  O
  C172     1.0000 0.78300  0.28790  0.53650  Biso   1.000  C
  H83      1.0000 0.77090  0.27790  0.51390  Biso   1.000  H
  N9       1.0000 0.82430  0.33000  0.49540  Biso   1.000  N
  C173     1.0000 0.86860  0.37550  0.53080  Biso   1.000  C
  C174     1.0000 0.82310  0.33490  0.56800  Biso   1.000  C
  C175     1.0000 0.81100  0.31490  0.53200  Biso   1.000  C
  C176     1.0000 0.78410  0.29270  0.60620  Biso   1.000  C
  C177     1.0000 0.89700  0.40350  0.53240  Biso   1.000  C
  H84      1.0000 0.90520  0.41380  0.55660  Biso   1.000  H
  C178     1.0000 0.91390  0.41660  0.49700  Biso   1.000  C
  C179     1.0000 0.87080  0.37250  0.46070  Biso   1.000  C
  H85      1.0000 0.86250  0.36190  0.43660  Biso   1.000  H
  C180     1.0000 0.94610  0.44630  0.49540  Biso   1.000  C
  O58      1.0000 0.95680  0.45930  0.53160  Biso   1.000  O
  C181     1.0000 0.77030  0.28490  0.64650  Biso   1.000  C
  O59      1.0000 0.78510  0.30190  0.67600  Biso   1.000  O
  O60      1.0000 0.96010  0.45800  0.46380  Biso   1.000  O
  C182     1.0000 0.78800  0.28690  0.38490  Biso   1.000  C
  C183     1.0000 0.81860  0.27090  0.40440  Biso   1.000  C
  H86      1.0000 0.83290  0.25060  0.39260  Biso   1.000  H
  C184     1.0000 0.81210  0.31200  0.45810  Biso   1.000  C
  C185     1.0000 0.82960  0.28400  0.44230  Biso   1.000  C
  H87      1.0000 0.85020  0.27150  0.45560  Biso   1.000  H
  C186     1.0000 0.90000  0.40060  0.46240  Biso   1.000  C
  H88      1.0000 0.91100  0.40940  0.43880  Biso   1.000  H
  C187     1.0000 0.78180  0.32980  0.44280  Biso   1.000  C
  H89      1.0000 0.76930  0.35070  0.45570  Biso   1.000  H
  O61      1.0000 0.74550  0.28900  0.33030  Biso   1.000  O
  C188     1.0000 0.77860  0.27580  0.34530  Biso   1.000  C
  O62      1.0000 0.79960  0.25290  0.32730  Biso   1.000  O
  Zn9      1.0000 0.80182  0.23048  0.27358  Biso   1.000  Zn
  C189     1.0000 0.76850  0.31550  0.40420  Biso   1.000  C
  H90      1.0000 0.74600  0.32640  0.39280  Biso   1.000  H
  O63      1.0000 0.75350  0.24960  0.65080  Biso   1.000  O
  C190     1.0000 0.31070  0.82450  0.10180  Biso   1.000  C
  H91      1.0000 0.31930  0.83800  0.12420  Biso   1.000  H
  C191     1.0000 0.35510  0.86100  0.99400  Biso   1.000  C
  C192     1.0000 0.27070  0.77370  0.07290  Biso   1.000  C
  H92      1.0000 0.25390  0.75190  0.07470  Biso   1.000  H
  O64      1.0000 0.35230  0.86620  0.06630  Biso   1.000  O
  C193     1.0000 0.28300  0.78790  0.03650  Biso   1.000  C
  H93      1.0000 0.27090  0.77790  0.01390  Biso   1.000  H
  N10      1.0000 0.32430  0.83000  0.99540  Biso   1.000  N
  C194     1.0000 0.36860  0.87550  0.03080  Biso   1.000  C
  C195     1.0000 0.32310  0.83490  0.06800  Biso   1.000  C
  C196     1.0000 0.31100  0.81490  0.03200  Biso   1.000  C
  C197     1.0000 0.28410  0.79270  0.10620  Biso   1.000  C
  C198     1.0000 0.39700  0.90350  0.03240  Biso   1.000  C
  H94      1.0000 0.40520  0.91380  0.05660  Biso   1.000  H
  C199     1.0000 0.41390  0.91660  0.99700  Biso   1.000  C
  C200     1.0000 0.37080  0.87250  0.96070  Biso   1.000  C
  H95      1.0000 0.36250  0.86190  0.93660  Biso   1.000  H
  C201     1.0000 0.44610  0.94630  0.99540  Biso   1.000  C
  O65      1.0000 0.45680  0.95930  0.03160  Biso   1.000  O
  C202     1.0000 0.27030  0.78490  0.14650  Biso   1.000  C
  O66      1.0000 0.28510  0.80190  0.17600  Biso   1.000  O
  O67      1.0000 0.46010  0.95800  0.96380  Biso   1.000  O
  C203     1.0000 0.28800  0.78690  0.88490  Biso   1.000  C
  C204     1.0000 0.31860  0.77090  0.90440  Biso   1.000  C
  H96      1.0000 0.33290  0.75060  0.89260  Biso   1.000  H
  C205     1.0000 0.31210  0.81200  0.95810  Biso   1.000  C
  C206     1.0000 0.32960  0.78400  0.94230  Biso   1.000  C
  H97      1.0000 0.35020  0.77150  0.95560  Biso   1.000  H
  C207     1.0000 0.40000  0.90060  0.96240  Biso   1.000  C
  H98      1.0000 0.41100  0.90940  0.93880  Biso   1.000  H
  C208     1.0000 0.28180  0.82980  0.94280  Biso   1.000  C
  H99      1.0000 0.26930  0.85070  0.95570  Biso   1.000  H
  O68      1.0000 0.24550  0.78900  0.83030  Biso   1.000  O
  C209     1.0000 0.27860  0.77580  0.84530  Biso   1.000  C
  O69      1.0000 0.29960  0.75290  0.82730  Biso   1.000  O
  Zn10     1.0000 0.30182  0.73048  0.77358  Biso   1.000  Zn
  C210     1.0000 0.26850  0.81550  0.90420  Biso   1.000  C
  H100     1.0000 0.24600  0.82640  0.89280  Biso   1.000  H
  O70      1.0000 0.25350  0.74960  0.15080  Biso   1.000  O
  C211     1.0000 0.81070  0.67550  0.39820  Biso   1.000  C
  H101     1.0000 0.81930  0.66200  0.37580  Biso   1.000  H
  C212     1.0000 0.85510  0.63900  0.50600  Biso   1.000  C
  C213     1.0000 0.77070  0.72630  0.42710  Biso   1.000  C
  H102     1.0000 0.75390  0.74810  0.42530  Biso   1.000  H
  O71      1.0000 0.85230  0.63380  0.43370  Biso   1.000  O
  C214     1.0000 0.78300  0.71210  0.46350  Biso   1.000  C
  H103     1.0000 0.77090  0.72210  0.48610  Biso   1.000  H
  N11      1.0000 0.82430  0.67000  0.50460  Biso   1.000  N
  C215     1.0000 0.86860  0.62450  0.46920  Biso   1.000  C
  C216     1.0000 0.82310  0.66510  0.43200  Biso   1.000  C
  C217     1.0000 0.81100  0.68510  0.46800  Biso   1.000  C
  C218     1.0000 0.78410  0.70730  0.39380  Biso   1.000  C
  C219     1.0000 0.89700  0.59650  0.46760  Biso   1.000  C
  H104     1.0000 0.90520  0.58620  0.44340  Biso   1.000  H
  C220     1.0000 0.91390  0.58340  0.50300  Biso   1.000  C
  C221     1.0000 0.87080  0.62750  0.53930  Biso   1.000  C
  H105     1.0000 0.86250  0.63810  0.56340  Biso   1.000  H
  C222     1.0000 0.94610  0.55370  0.50460  Biso   1.000  C
  O72      1.0000 0.95680  0.54070  0.46840  Biso   1.000  O
  C223     1.0000 0.77030  0.71510  0.35350  Biso   1.000  C
  O73      1.0000 0.78510  0.69810  0.32400  Biso   1.000  O
  O74      1.0000 0.96010  0.54200  0.53620  Biso   1.000  O
  C224     1.0000 0.78800  0.71310  0.61510  Biso   1.000  C
  C225     1.0000 0.81860  0.72910  0.59560  Biso   1.000  C
  H106     1.0000 0.83290  0.74940  0.60740  Biso   1.000  H
  C226     1.0000 0.81210  0.68800  0.54190  Biso   1.000  C
  C227     1.0000 0.82960  0.71600  0.55770  Biso   1.000  C
  H107     1.0000 0.85020  0.72850  0.54440  Biso   1.000  H
  C228     1.0000 0.90000  0.59940  0.53760  Biso   1.000  C
  H108     1.0000 0.91100  0.59060  0.56120  Biso   1.000  H
  C229     1.0000 0.78180  0.67020  0.55720  Biso   1.000  C
  H109     1.0000 0.76930  0.64930  0.54430  Biso   1.000  H
  O75      1.0000 0.74550  0.71100  0.66970  Biso   1.000  O
  C230     1.0000 0.77860  0.72420  0.65470  Biso   1.000  C
  O76      1.0000 0.79960  0.74710  0.67270  Biso   1.000  O
  Zn11     1.0000 0.80182  0.76952  0.72642  Biso   1.000  Zn
  C231     1.0000 0.76850  0.68450  0.59580  Biso   1.000  C
  H110     1.0000 0.74600  0.67360  0.60720  Biso   1.000  H
  O77      1.0000 0.75350  0.75040  0.34920  Biso   1.000  O
  C232     1.0000 0.31070  0.17550  0.89820  Biso   1.000  C
  H111     1.0000 0.31930  0.16200  0.87580  Biso   1.000  H
  C233     1.0000 0.35510  0.13900  0.00600  Biso   1.000  C
  C234     1.0000 0.27070  0.22630  0.92710  Biso   1.000  C
  H112     1.0000 0.25390  0.24810  0.92530  Biso   1.000  H
  O78      1.0000 0.35230  0.13380  0.93370  Biso   1.000  O
  C235     1.0000 0.28300  0.21210  0.96350  Biso   1.000  C
  H113     1.0000 0.27090  0.22210  0.98610  Biso   1.000  H
  N12      1.0000 0.32430  0.17000  0.00460  Biso   1.000  N
  C236     1.0000 0.36860  0.12450  0.96920  Biso   1.000  C
  C237     1.0000 0.32310  0.16510  0.93200  Biso   1.000  C
  C238     1.0000 0.31100  0.18510  0.96800  Biso   1.000  C
  C239     1.0000 0.28410  0.20730  0.89380  Biso   1.000  C
  C240     1.0000 0.39700  0.09650  0.96760  Biso   1.000  C
  H114     1.0000 0.40520  0.08620  0.94340  Biso   1.000  H
  C241     1.0000 0.41390  0.08340  0.00300  Biso   1.000  C
  C242     1.0000 0.37080  0.12750  0.03930  Biso   1.000  C
  H115     1.0000 0.36250  0.13810  0.06340  Biso   1.000  H
  C243     1.0000 0.44610  0.05370  0.00460  Biso   1.000  C
  O79      1.0000 0.45680  0.04070  0.96840  Biso   1.000  O
  C244     1.0000 0.27030  0.21510  0.85350  Biso   1.000  C
  O80      1.0000 0.28510  0.19810  0.82400  Biso   1.000  O
  O81      1.0000 0.46010  0.04200  0.03620  Biso   1.000  O
  C245     1.0000 0.28800  0.21310  0.11510  Biso   1.000  C
  C246     1.0000 0.31860  0.22910  0.09560  Biso   1.000  C
  H116     1.0000 0.33290  0.24940  0.10740  Biso   1.000  H
  C247     1.0000 0.31210  0.18800  0.04190  Biso   1.000  C
  C248     1.0000 0.32960  0.21600  0.05770  Biso   1.000  C
  H117     1.0000 0.35020  0.22850  0.04440  Biso   1.000  H
  C249     1.0000 0.40000  0.09940  0.03760  Biso   1.000  C
  H118     1.0000 0.41100  0.09060  0.06120  Biso   1.000  H
  C250     1.0000 0.28180  0.17020  0.05720  Biso   1.000  C
  H119     1.0000 0.26930  0.14930  0.04430  Biso   1.000  H
  O82      1.0000 0.24550  0.21100  0.16970  Biso   1.000  O
  C251     1.0000 0.27860  0.22420  0.15470  Biso   1.000  C
  O83      1.0000 0.29960  0.24710  0.17270  Biso   1.000  O
  Zn12     1.0000 0.30182  0.26952  0.22642  Biso   1.000  Zn
  C252     1.0000 0.26850  0.18450  0.09580  Biso   1.000  C
  H120     1.0000 0.24600  0.17360  0.10720  Biso   1.000  H
  O84      1.0000 0.25350  0.25040  0.84920  Biso   1.000  O
  C253     1.0000 0.18930  0.67550  0.60180  Biso   1.000  C
  H121     1.0000 0.18070  0.66200  0.62420  Biso   1.000  H
  C254     1.0000 0.14490  0.63900  0.49400  Biso   1.000  C
  C255     1.0000 0.22930  0.72630  0.57290  Biso   1.000  C
  H122     1.0000 0.24610  0.74810  0.57470  Biso   1.000  H
  O85      1.0000 0.14770  0.63380  0.56630  Biso   1.000  O
  C256     1.0000 0.21700  0.71210  0.53650  Biso   1.000  C
  H123     1.0000 0.22910  0.72210  0.51390  Biso   1.000  H
  N13      1.0000 0.17570  0.67000  0.49540  Biso   1.000  N
  C257     1.0000 0.13140  0.62450  0.53080  Biso   1.000  C
  C258     1.0000 0.17690  0.66510  0.56800  Biso   1.000  C
  C259     1.0000 0.18900  0.68510  0.53200  Biso   1.000  C
  C260     1.0000 0.21590  0.70730  0.60620  Biso   1.000  C
  C261     1.0000 0.10300  0.59650  0.53240  Biso   1.000  C
  H124     1.0000 0.09480  0.58620  0.55660  Biso   1.000  H
  C262     1.0000 0.08610  0.58340  0.49700  Biso   1.000  C
  C263     1.0000 0.12920  0.62750  0.46070  Biso   1.000  C
  H125     1.0000 0.13750  0.63810  0.43660  Biso   1.000  H
  C264     1.0000 0.05390  0.55370  0.49540  Biso   1.000  C
  O86      1.0000 0.04320  0.54070  0.53160  Biso   1.000  O
  C265     1.0000 0.22970  0.71510  0.64650  Biso   1.000  C
  O87      1.0000 0.21490  0.69810  0.67600  Biso   1.000  O
  O88      1.0000 0.03990  0.54200  0.46380  Biso   1.000  O
  C266     1.0000 0.21200  0.71310  0.38490  Biso   1.000  C
  C267     1.0000 0.18140  0.72910  0.40440  Biso   1.000  C
  H126     1.0000 0.16710  0.74940  0.39260  Biso   1.000  H
  C268     1.0000 0.18790  0.68800  0.45810  Biso   1.000  C
  C269     1.0000 0.17040  0.71600  0.44230  Biso   1.000  C
  H127     1.0000 0.14980  0.72850  0.45560  Biso   1.000  H
  C270     1.0000 0.10000  0.59940  0.46240  Biso   1.000  C
  H128     1.0000 0.08900  0.59060  0.43880  Biso   1.000  H
  C271     1.0000 0.21820  0.67020  0.44280  Biso   1.000  C
  H129     1.0000 0.23070  0.64930  0.45570  Biso   1.000  H
  O89      1.0000 0.25450  0.71100  0.33030  Biso   1.000  O
  C272     1.0000 0.22140  0.72420  0.34530  Biso   1.000  C
  O90      1.0000 0.20040  0.74710  0.32730  Biso   1.000  O
  Zn13     1.0000 0.19818  0.76952  0.27358  Biso   1.000  Zn
  C273     1.0000 0.23150  0.68450  0.40420  Biso   1.000  C
  H130     1.0000 0.25400  0.67360  0.39280  Biso   1.000  H
  O91      1.0000 0.24650  0.75040  0.65080  Biso   1.000  O
  C274     1.0000 0.68930  0.17550  0.10180  Biso   1.000  C
  H131     1.0000 0.68070  0.16200  0.12420  Biso   1.000  H
  C275     1.0000 0.64490  0.13900  0.99400  Biso   1.000  C
  C276     1.0000 0.72930  0.22630  0.07290  Biso   1.000  C
  H132     1.0000 0.74610  0.24810  0.07470  Biso   1.000  H
  O92      1.0000 0.64770  0.13380  0.06630  Biso   1.000  O
  C277     1.0000 0.71700  0.21210  0.03650  Biso   1.000  C
  H133     1.0000 0.72910  0.22210  0.01390  Biso   1.000  H
  N14      1.0000 0.67570  0.17000  0.99540  Biso   1.000  N
  C278     1.0000 0.63140  0.12450  0.03080  Biso   1.000  C
  C279     1.0000 0.67690  0.16510  0.06800  Biso   1.000  C
  C280     1.0000 0.68900  0.18510  0.03200  Biso   1.000  C
  C281     1.0000 0.71590  0.20730  0.10620  Biso   1.000  C
  C282     1.0000 0.60300  0.09650  0.03240  Biso   1.000  C
  H134     1.0000 0.59480  0.08620  0.05660  Biso   1.000  H
  C283     1.0000 0.58610  0.08340  0.99700  Biso   1.000  C
  C284     1.0000 0.62920  0.12750  0.96070  Biso   1.000  C
  H135     1.0000 0.63750  0.13810  0.93660  Biso   1.000  H
  C285     1.0000 0.55390  0.05370  0.99540  Biso   1.000  C
  O93      1.0000 0.54320  0.04070  0.03160  Biso   1.000  O
  C286     1.0000 0.72970  0.21510  0.14650  Biso   1.000  C
  O94      1.0000 0.71490  0.19810  0.17600  Biso   1.000  O
  O95      1.0000 0.53990  0.04200  0.96380  Biso   1.000  O
  C287     1.0000 0.71200  0.21310  0.88490  Biso   1.000  C
  C288     1.0000 0.68140  0.22910  0.90440  Biso   1.000  C
  H136     1.0000 0.66710  0.24940  0.89260  Biso   1.000  H
  C289     1.0000 0.68790  0.18800  0.95810  Biso   1.000  C
  C290     1.0000 0.67040  0.21600  0.94230  Biso   1.000  C
  H137     1.0000 0.64980  0.22850  0.95560  Biso   1.000  H
  C291     1.0000 0.60000  0.09940  0.96240  Biso   1.000  C
  H138     1.0000 0.58900  0.09060  0.93880  Biso   1.000  H
  C292     1.0000 0.71820  0.17020  0.94280  Biso   1.000  C
  H139     1.0000 0.73070  0.14930  0.95570  Biso   1.000  H
  O96      1.0000 0.75450  0.21100  0.83030  Biso   1.000  O
  C293     1.0000 0.72140  0.22420  0.84530  Biso   1.000  C
  O97      1.0000 0.70040  0.24710  0.82730  Biso   1.000  O
  Zn14     1.0000 0.69818  0.26952  0.77358  Biso   1.000  Zn
  C294     1.0000 0.73150  0.18450  0.90420  Biso   1.000  C
  H140     1.0000 0.75400  0.17360  0.89280  Biso   1.000  H
  O98      1.0000 0.74650  0.25040  0.15080  Biso   1.000  O
  C295     1.0000 0.18930  0.32450  0.39820  Biso   1.000  C
  H141     1.0000 0.18070  0.33800  0.37580  Biso   1.000  H
  C296     1.0000 0.14490  0.36100  0.50600  Biso   1.000  C
  C297     1.0000 0.22930  0.27370  0.42710  Biso   1.000  C
  H142     1.0000 0.24610  0.25190  0.42530  Biso   1.000  H
  O99      1.0000 0.14770  0.36620  0.43370  Biso   1.000  O
  C298     1.0000 0.21700  0.28790  0.46350  Biso   1.000  C
  H143     1.0000 0.22910  0.27790  0.48610  Biso   1.000  H
  N15      1.0000 0.17570  0.33000  0.50460  Biso   1.000  N
  C299     1.0000 0.13140  0.37550  0.46920  Biso   1.000  C
  C300     1.0000 0.17690  0.33490  0.43200  Biso   1.000  C
  C301     1.0000 0.18900  0.31490  0.46800  Biso   1.000  C
  C302     1.0000 0.21590  0.29270  0.39380  Biso   1.000  C
  C303     1.0000 0.10300  0.40350  0.46760  Biso   1.000  C
  H144     1.0000 0.09480  0.41380  0.44340  Biso   1.000  H
  C304     1.0000 0.08610  0.41660  0.50300  Biso   1.000  C
  C305     1.0000 0.12920  0.37250  0.53930  Biso   1.000  C
  H145     1.0000 0.13750  0.36190  0.56340  Biso   1.000  H
  C306     1.0000 0.05390  0.44630  0.50460  Biso   1.000  C
  O100     1.0000 0.04320  0.45930  0.46840  Biso   1.000  O
  C307     1.0000 0.22970  0.28490  0.35350  Biso   1.000  C
  O101     1.0000 0.21490  0.30190  0.32400  Biso   1.000  O
  O102     1.0000 0.03990  0.45800  0.53620  Biso   1.000  O
  C308     1.0000 0.21200  0.28690  0.61510  Biso   1.000  C
  C309     1.0000 0.18140  0.27090  0.59560  Biso   1.000  C
  H146     1.0000 0.16710  0.25060  0.60740  Biso   1.000  H
  C310     1.0000 0.18790  0.31200  0.54190  Biso   1.000  C
  C311     1.0000 0.17040  0.28400  0.55770  Biso   1.000  C
  H147     1.0000 0.14980  0.27150  0.54440  Biso   1.000  H
  C312     1.0000 0.10000  0.40060  0.53760  Biso   1.000  C
  H148     1.0000 0.08900  0.40940  0.56120  Biso   1.000  H
  C313     1.0000 0.21820  0.32980  0.55720  Biso   1.000  C
  H149     1.0000 0.23070  0.35070  0.54430  Biso   1.000  H
  O103     1.0000 0.25450  0.28900  0.66970  Biso   1.000  O
  C314     1.0000 0.22140  0.27580  0.65470  Biso   1.000  C
  O104     1.0000 0.20040  0.25290  0.67270  Biso   1.000  O
  Zn15     1.0000 0.19818  0.23048  0.72642  Biso   1.000  Zn
  C315     1.0000 0.23150  0.31550  0.59580  Biso   1.000  C
  H150     1.0000 0.25400  0.32640  0.60720  Biso   1.000  H
  O105     1.0000 0.24650  0.24960  0.34920  Biso   1.000  O
  C316     1.0000 0.68930  0.82450  0.89820  Biso   1.000  C
  H151     1.0000 0.68070  0.83800  0.87580  Biso   1.000  H
  C317     1.0000 0.64490  0.86100  0.00600  Biso   1.000  C
  C318     1.0000 0.72930  0.77370  0.92710  Biso   1.000  C
  H152     1.0000 0.74610  0.75190  0.92530  Biso   1.000  H
  O106     1.0000 0.64770  0.86620  0.93370  Biso   1.000  O
  C319     1.0000 0.71700  0.78790  0.96350  Biso   1.000  C
  H153     1.0000 0.72910  0.77790  0.98610  Biso   1.000  H
  N16      1.0000 0.67570  0.83000  0.00460  Biso   1.000  N
  C320     1.0000 0.63140  0.87550  0.96920  Biso   1.000  C
  C321     1.0000 0.67690  0.83490  0.93200  Biso   1.000  C
  C322     1.0000 0.68900  0.81490  0.96800  Biso   1.000  C
  C323     1.0000 0.71590  0.79270  0.89380  Biso   1.000  C
  C324     1.0000 0.60300  0.90350  0.96760  Biso   1.000  C
  H154     1.0000 0.59480  0.91380  0.94340  Biso   1.000  H
  C325     1.0000 0.58610  0.91660  0.00300  Biso   1.000  C
  C326     1.0000 0.62920  0.87250  0.03930  Biso   1.000  C
  H155     1.0000 0.63750  0.86190  0.06340  Biso   1.000  H
  C327     1.0000 0.55390  0.94630  0.00460  Biso   1.000  C
  O107     1.0000 0.54320  0.95930  0.96840  Biso   1.000  O
  C328     1.0000 0.72970  0.78490  0.85350  Biso   1.000  C
  O108     1.0000 0.71490  0.80190  0.82400  Biso   1.000  O
  O109     1.0000 0.53990  0.95800  0.03620  Biso   1.000  O
  C329     1.0000 0.71200  0.78690  0.11510  Biso   1.000  C
  C330     1.0000 0.68140  0.77090  0.09560  Biso   1.000  C
  H156     1.0000 0.66710  0.75060  0.10740  Biso   1.000  H
  C331     1.0000 0.68790  0.81200  0.04190  Biso   1.000  C
  C332     1.0000 0.67040  0.78400  0.05770  Biso   1.000  C
  H157     1.0000 0.64980  0.77150  0.04440  Biso   1.000  H
  C333     1.0000 0.60000  0.90060  0.03760  Biso   1.000  C
  H158     1.0000 0.58900  0.90940  0.06120  Biso   1.000  H
  C334     1.0000 0.71820  0.82980  0.05720  Biso   1.000  C
  H159     1.0000 0.73070  0.85070  0.04430  Biso   1.000  H
  O110     1.0000 0.75450  0.78900  0.16970  Biso   1.000  O
  C335     1.0000 0.72140  0.77580  0.15470  Biso   1.000  C
  O111     1.0000 0.70040  0.75290  0.17270  Biso   1.000  O
  Zn16     1.0000 0.69818  0.73048  0.22642  Biso   1.000  Zn
  C336     1.0000 0.73150  0.81550  0.09580  Biso   1.000  C
  H160     1.0000 0.75400  0.82640  0.10720  Biso   1.000  H
  O112     1.0000 0.74650  0.74960  0.84920  Biso   1.000  O
  C337     1.0000 0.60180  0.81070  0.32450  Biso   1.000  C
  H161     1.0000 0.62420  0.81930  0.33800  Biso   1.000  H
  C338     1.0000 0.49400  0.85510  0.36100  Biso   1.000  C
  C339     1.0000 0.57290  0.77070  0.27370  Biso   1.000  C
  H162     1.0000 0.57470  0.75390  0.25190  Biso   1.000  H
  O113     1.0000 0.56630  0.85230  0.36620  Biso   1.000  O
  C340     1.0000 0.53650  0.78300  0.28790  Biso   1.000  C
  H163     1.0000 0.51390  0.77090  0.27790  Biso   1.000  H
  N17      1.0000 0.49540  0.82430  0.33000  Biso   1.000  N
  C341     1.0000 0.53080  0.86860  0.37550  Biso   1.000  C
  C342     1.0000 0.56800  0.82310  0.33490  Biso   1.000  C
  C343     1.0000 0.53200  0.81100  0.31490  Biso   1.000  C
  C344     1.0000 0.60620  0.78410  0.29270  Biso   1.000  C
  C345     1.0000 0.53240  0.89700  0.40350  Biso   1.000  C
  H164     1.0000 0.55660  0.90520  0.41380  Biso   1.000  H
  C346     1.0000 0.49700  0.91390  0.41660  Biso   1.000  C
  C347     1.0000 0.46070  0.87080  0.37250  Biso   1.000  C
  H165     1.0000 0.43660  0.86250  0.36190  Biso   1.000  H
  C348     1.0000 0.49540  0.94610  0.44630  Biso   1.000  C
  O114     1.0000 0.53160  0.95680  0.45930  Biso   1.000  O
  C349     1.0000 0.64650  0.77030  0.28490  Biso   1.000  C
  O115     1.0000 0.67600  0.78510  0.30190  Biso   1.000  O
  O116     1.0000 0.46380  0.96010  0.45800  Biso   1.000  O
  C350     1.0000 0.38490  0.78800  0.28690  Biso   1.000  C
  C351     1.0000 0.40440  0.81860  0.27090  Biso   1.000  C
  H166     1.0000 0.39260  0.83290  0.25060  Biso   1.000  H
  C352     1.0000 0.45810  0.81210  0.31200  Biso   1.000  C
  C353     1.0000 0.44230  0.82960  0.28400  Biso   1.000  C
  H167     1.0000 0.45560  0.85020  0.27150  Biso   1.000  H
  C354     1.0000 0.46240  0.90000  0.40060  Biso   1.000  C
  H168     1.0000 0.43880  0.91100  0.40940  Biso   1.000  H
  C355     1.0000 0.44280  0.78180  0.32980  Biso   1.000  C
  H169     1.0000 0.45570  0.76930  0.35070  Biso   1.000  H
  O117     1.0000 0.33030  0.74550  0.28900  Biso   1.000  O
  C356     1.0000 0.34530  0.77860  0.27580  Biso   1.000  C
  O118     1.0000 0.32730  0.79960  0.25290  Biso   1.000  O
  Zn17     1.0000 0.27358  0.80182  0.23048  Biso   1.000  Zn
  C357     1.0000 0.40420  0.76850  0.31550  Biso   1.000  C
  H170     1.0000 0.39280  0.74600  0.32640  Biso   1.000  H
  O119     1.0000 0.65080  0.75350  0.24960  Biso   1.000  O
  C358     1.0000 0.10180  0.31070  0.82450  Biso   1.000  C
  H171     1.0000 0.12420  0.31930  0.83800  Biso   1.000  H
  C359     1.0000 0.99400  0.35510  0.86100  Biso   1.000  C
  C360     1.0000 0.07290  0.27070  0.77370  Biso   1.000  C
  H172     1.0000 0.07470  0.25390  0.75190  Biso   1.000  H
  O120     1.0000 0.06630  0.35230  0.86620  Biso   1.000  O
  C361     1.0000 0.03650  0.28300  0.78790  Biso   1.000  C
  H173     1.0000 0.01390  0.27090  0.77790  Biso   1.000  H
  N18      1.0000 0.99540  0.32430  0.83000  Biso   1.000  N
  C362     1.0000 0.03080  0.36860  0.87550  Biso   1.000  C
  C363     1.0000 0.06800  0.32310  0.83490  Biso   1.000  C
  C364     1.0000 0.03200  0.31100  0.81490  Biso   1.000  C
  C365     1.0000 0.10620  0.28410  0.79270  Biso   1.000  C
  C366     1.0000 0.03240  0.39700  0.90350  Biso   1.000  C
  H174     1.0000 0.05660  0.40520  0.91380  Biso   1.000  H
  C367     1.0000 0.99700  0.41390  0.91660  Biso   1.000  C
  C368     1.0000 0.96070  0.37080  0.87250  Biso   1.000  C
  H175     1.0000 0.93660  0.36250  0.86190  Biso   1.000  H
  C369     1.0000 0.99540  0.44610  0.94630  Biso   1.000  C
  O121     1.0000 0.03160  0.45680  0.95930  Biso   1.000  O
  C370     1.0000 0.14650  0.27030  0.78490  Biso   1.000  C
  O122     1.0000 0.17600  0.28510  0.80190  Biso   1.000  O
  O123     1.0000 0.96380  0.46010  0.95800  Biso   1.000  O
  C371     1.0000 0.88490  0.28800  0.78690  Biso   1.000  C
  C372     1.0000 0.90440  0.31860  0.77090  Biso   1.000  C
  H176     1.0000 0.89260  0.33290  0.75060  Biso   1.000  H
  C373     1.0000 0.95810  0.31210  0.81200  Biso   1.000  C
  C374     1.0000 0.94230  0.32960  0.78400  Biso   1.000  C
  H177     1.0000 0.95560  0.35020  0.77150  Biso   1.000  H
  C375     1.0000 0.96240  0.40000  0.90060  Biso   1.000  C
  H178     1.0000 0.93880  0.41100  0.90940  Biso   1.000  H
  C376     1.0000 0.94280  0.28180  0.82980  Biso   1.000  C
  H179     1.0000 0.95570  0.26930  0.85070  Biso   1.000  H
  O124     1.0000 0.83030  0.24550  0.78900  Biso   1.000  O
  C377     1.0000 0.84530  0.27860  0.77580  Biso   1.000  C
  O125     1.0000 0.82730  0.29960  0.75290  Biso   1.000  O
  Zn18     1.0000 0.77358  0.30182  0.73048  Biso   1.000  Zn
  C378     1.0000 0.90420  0.26850  0.81550  Biso   1.000  C
  H180     1.0000 0.89280  0.24600  0.82640  Biso   1.000  H
  O126     1.0000 0.15080  0.25350  0.74960  Biso   1.000  O
  C379     1.0000 0.39820  0.81070  0.67550  Biso   1.000  C
  H181     1.0000 0.37580  0.81930  0.66200  Biso   1.000  H
  C380     1.0000 0.50600  0.85510  0.63900  Biso   1.000  C
  C381     1.0000 0.42710  0.77070  0.72630  Biso   1.000  C
  H182     1.0000 0.42530  0.75390  0.74810  Biso   1.000  H
  O127     1.0000 0.43370  0.85230  0.63380  Biso   1.000  O
  C382     1.0000 0.46350  0.78300  0.71210  Biso   1.000  C
  H183     1.0000 0.48610  0.77090  0.72210  Biso   1.000  H
  N19      1.0000 0.50460  0.82430  0.67000  Biso   1.000  N
  C383     1.0000 0.46920  0.86860  0.62450  Biso   1.000  C
  C384     1.0000 0.43200  0.82310  0.66510  Biso   1.000  C
  C385     1.0000 0.46800  0.81100  0.68510  Biso   1.000  C
  C386     1.0000 0.39380  0.78410  0.70730  Biso   1.000  C
  C387     1.0000 0.46760  0.89700  0.59650  Biso   1.000  C
  H184     1.0000 0.44340  0.90520  0.58620  Biso   1.000  H
  C388     1.0000 0.50300  0.91390  0.58340  Biso   1.000  C
  C389     1.0000 0.53930  0.87080  0.62750  Biso   1.000  C
  H185     1.0000 0.56340  0.86250  0.63810  Biso   1.000  H
  C390     1.0000 0.50460  0.94610  0.55370  Biso   1.000  C
  O128     1.0000 0.46840  0.95680  0.54070  Biso   1.000  O
  C391     1.0000 0.35350  0.77030  0.71510  Biso   1.000  C
  O129     1.0000 0.32400  0.78510  0.69810  Biso   1.000  O
  O130     1.0000 0.53620  0.96010  0.54200  Biso   1.000  O
  C392     1.0000 0.61510  0.78800  0.71310  Biso   1.000  C
  C393     1.0000 0.59560  0.81860  0.72910  Biso   1.000  C
  H186     1.0000 0.60740  0.83290  0.74940  Biso   1.000  H
  C394     1.0000 0.54190  0.81210  0.68800  Biso   1.000  C
  C395     1.0000 0.55770  0.82960  0.71600  Biso   1.000  C
  H187     1.0000 0.54440  0.85020  0.72850  Biso   1.000  H
  C396     1.0000 0.53760  0.90000  0.59940  Biso   1.000  C
  H188     1.0000 0.56120  0.91100  0.59060  Biso   1.000  H
  C397     1.0000 0.55720  0.78180  0.67020  Biso   1.000  C
  H189     1.0000 0.54430  0.76930  0.64930  Biso   1.000  H
  O131     1.0000 0.66970  0.74550  0.71100  Biso   1.000  O
  C398     1.0000 0.65470  0.77860  0.72420  Biso   1.000  C
  O132     1.0000 0.67270  0.79960  0.74710  Biso   1.000  O
  Zn19     1.0000 0.72642  0.80182  0.76952  Biso   1.000  Zn
  C399     1.0000 0.59580  0.76850  0.68450  Biso   1.000  C
  H190     1.0000 0.60720  0.74600  0.67360  Biso   1.000  H
  O133     1.0000 0.34920  0.75350  0.75040  Biso   1.000  O
  C400     1.0000 0.89820  0.31070  0.17550  Biso   1.000  C
  H191     1.0000 0.87580  0.31930  0.16200  Biso   1.000  H
  C401     1.0000 0.00600  0.35510  0.13900  Biso   1.000  C
  C402     1.0000 0.92710  0.27070  0.22630  Biso   1.000  C
  H192     1.0000 0.92530  0.25390  0.24810  Biso   1.000  H
  O134     1.0000 0.93370  0.35230  0.13380  Biso   1.000  O
  C403     1.0000 0.96350  0.28300  0.21210  Biso   1.000  C
  H193     1.0000 0.98610  0.27090  0.22210  Biso   1.000  H
  N20      1.0000 0.00460  0.32430  0.17000  Biso   1.000  N
  C404     1.0000 0.96920  0.36860  0.12450  Biso   1.000  C
  C405     1.0000 0.93200  0.32310  0.16510  Biso   1.000  C
  C406     1.0000 0.96800  0.31100  0.18510  Biso   1.000  C
  C407     1.0000 0.89380  0.28410  0.20730  Biso   1.000  C
  C408     1.0000 0.96760  0.39700  0.09650  Biso   1.000  C
  H194     1.0000 0.94340  0.40520  0.08620  Biso   1.000  H
  C409     1.0000 0.00300  0.41390  0.08340  Biso   1.000  C
  C410     1.0000 0.03930  0.37080  0.12750  Biso   1.000  C
  H195     1.0000 0.06340  0.36250  0.13810  Biso   1.000  H
  C411     1.0000 0.00460  0.44610  0.05370  Biso   1.000  C
  O135     1.0000 0.96840  0.45680  0.04070  Biso   1.000  O
  C412     1.0000 0.85350  0.27030  0.21510  Biso   1.000  C
  O136     1.0000 0.82400  0.28510  0.19810  Biso   1.000  O
  O137     1.0000 0.03620  0.46010  0.04200  Biso   1.000  O
  C413     1.0000 0.11510  0.28800  0.21310  Biso   1.000  C
  C414     1.0000 0.09560  0.31860  0.22910  Biso   1.000  C
  H196     1.0000 0.10740  0.33290  0.24940  Biso   1.000  H
  C415     1.0000 0.04190  0.31210  0.18800  Biso   1.000  C
  C416     1.0000 0.05770  0.32960  0.21600  Biso   1.000  C
  H197     1.0000 0.04440  0.35020  0.22850  Biso   1.000  H
  C417     1.0000 0.03760  0.40000  0.09940  Biso   1.000  C
  H198     1.0000 0.06120  0.41100  0.09060  Biso   1.000  H
  C418     1.0000 0.05720  0.28180  0.17020  Biso   1.000  C
  H199     1.0000 0.04430  0.26930  0.14930  Biso   1.000  H
  O138     1.0000 0.16970  0.24550  0.21100  Biso   1.000  O
  C419     1.0000 0.15470  0.27860  0.22420  Biso   1.000  C
  O139     1.0000 0.17270  0.29960  0.24710  Biso   1.000  O
  Zn20     1.0000 0.22642  0.30182  0.26952  Biso   1.000  Zn
  C420     1.0000 0.09580  0.26850  0.18450  Biso   1.000  C
  H200     1.0000 0.10720  0.24600  0.17360  Biso   1.000  H
  O140     1.0000 0.84920  0.25350  0.25040  Biso   1.000  O
  C421     1.0000 0.60180  0.18930  0.67550  Biso   1.000  C
  H201     1.0000 0.62420  0.18070  0.66200  Biso   1.000  H
  C422     1.0000 0.49400  0.14490  0.63900  Biso   1.000  C
  C423     1.0000 0.57290  0.22930  0.72630  Biso   1.000  C
  H202     1.0000 0.57470  0.24610  0.74810  Biso   1.000  H
  O141     1.0000 0.56630  0.14770  0.63380  Biso   1.000  O
  C424     1.0000 0.53650  0.21700  0.71210  Biso   1.000  C
  H203     1.0000 0.51390  0.22910  0.72210  Biso   1.000  H
  N21      1.0000 0.49540  0.17570  0.67000  Biso   1.000  N
  C425     1.0000 0.53080  0.13140  0.62450  Biso   1.000  C
  C426     1.0000 0.56800  0.17690  0.66510  Biso   1.000  C
  C427     1.0000 0.53200  0.18900  0.68510  Biso   1.000  C
  C428     1.0000 0.60620  0.21590  0.70730  Biso   1.000  C
  C429     1.0000 0.53240  0.10300  0.59650  Biso   1.000  C
  H204     1.0000 0.55660  0.09480  0.58620  Biso   1.000  H
  C430     1.0000 0.49700  0.08610  0.58340  Biso   1.000  C
  C431     1.0000 0.46070  0.12920  0.62750  Biso   1.000  C
  H205     1.0000 0.43660  0.13750  0.63810  Biso   1.000  H
  C432     1.0000 0.49540  0.05390  0.55370  Biso   1.000  C
  O142     1.0000 0.53160  0.04320  0.54070  Biso   1.000  O
  C433     1.0000 0.64650  0.22970  0.71510  Biso   1.000  C
  O143     1.0000 0.67600  0.21490  0.69810  Biso   1.000  O
  O144     1.0000 0.46380  0.03990  0.54200  Biso   1.000  O
  C434     1.0000 0.38490  0.21200  0.71310  Biso   1.000  C
  C435     1.0000 0.40440  0.18140  0.72910  Biso   1.000  C
  H206     1.0000 0.39260  0.16710  0.74940  Biso   1.000  H
  C436     1.0000 0.45810  0.18790  0.68800  Biso   1.000  C
  C437     1.0000 0.44230  0.17040  0.71600  Biso   1.000  C
  H207     1.0000 0.45560  0.14980  0.72850  Biso   1.000  H
  C438     1.0000 0.46240  0.10000  0.59940  Biso   1.000  C
  H208     1.0000 0.43880  0.08900  0.59060  Biso   1.000  H
  C439     1.0000 0.44280  0.21820  0.67020  Biso   1.000  C
  H209     1.0000 0.45570  0.23070  0.64930  Biso   1.000  H
  O145     1.0000 0.33030  0.25450  0.71100  Biso   1.000  O
  C440     1.0000 0.34530  0.22140  0.72420  Biso   1.000  C
  O146     1.0000 0.32730  0.20040  0.74710  Biso   1.000  O
  Zn21     1.0000 0.27358  0.19818  0.76952  Biso   1.000  Zn
  C441     1.0000 0.40420  0.23150  0.68450  Biso   1.000  C
  H210     1.0000 0.39280  0.25400  0.67360  Biso   1.000  H
  O147     1.0000 0.65080  0.24650  0.75040  Biso   1.000  O
  C442     1.0000 0.10180  0.68930  0.17550  Biso   1.000  C
  H211     1.0000 0.12420  0.68070  0.16200  Biso   1.000  H
  C443     1.0000 0.99400  0.64490  0.13900  Biso   1.000  C
  C444     1.0000 0.07290  0.72930  0.22630  Biso   1.000  C
  H212     1.0000 0.07470  0.74610  0.24810  Biso   1.000  H
  O148     1.0000 0.06630  0.64770  0.13380  Biso   1.000  O
  C445     1.0000 0.03650  0.71700  0.21210  Biso   1.000  C
  H213     1.0000 0.01390  0.72910  0.22210  Biso   1.000  H
  N22      1.0000 0.99540  0.67570  0.17000  Biso   1.000  N
  C446     1.0000 0.03080  0.63140  0.12450  Biso   1.000  C
  C447     1.0000 0.06800  0.67690  0.16510  Biso   1.000  C
  C448     1.0000 0.03200  0.68900  0.18510  Biso   1.000  C
  C449     1.0000 0.10620  0.71590  0.20730  Biso   1.000  C
  C450     1.0000 0.03240  0.60300  0.09650  Biso   1.000  C
  H214     1.0000 0.05660  0.59480  0.08620  Biso   1.000  H
  C451     1.0000 0.99700  0.58610  0.08340  Biso   1.000  C
  C452     1.0000 0.96070  0.62920  0.12750  Biso   1.000  C
  H215     1.0000 0.93660  0.63750  0.13810  Biso   1.000  H
  C453     1.0000 0.99540  0.55390  0.05370  Biso   1.000  C
  O149     1.0000 0.03160  0.54320  0.04070  Biso   1.000  O
  C454     1.0000 0.14650  0.72970  0.21510  Biso   1.000  C
  O150     1.0000 0.17600  0.71490  0.19810  Biso   1.000  O
  O151     1.0000 0.96380  0.53990  0.04200  Biso   1.000  O
  C455     1.0000 0.88490  0.71200  0.21310  Biso   1.000  C
  C456     1.0000 0.90440  0.68140  0.22910  Biso   1.000  C
  H216     1.0000 0.89260  0.66710  0.24940  Biso   1.000  H
  C457     1.0000 0.95810  0.68790  0.18800  Biso   1.000  C
  C458     1.0000 0.94230  0.67040  0.21600  Biso   1.000  C
  H217     1.0000 0.95560  0.64980  0.22850  Biso   1.000  H
  C459     1.0000 0.96240  0.60000  0.09940  Biso   1.000  C
  H218     1.0000 0.93880  0.58900  0.09060  Biso   1.000  H
  C460     1.0000 0.94280  0.71820  0.17020  Biso   1.000  C
  H219     1.0000 0.95570  0.73070  0.14930  Biso   1.000  H
  O152     1.0000 0.83030  0.75450  0.21100  Biso   1.000  O
  C461     1.0000 0.84530  0.72140  0.22420  Biso   1.000  C
  O153     1.0000 0.82730  0.70040  0.24710  Biso   1.000  O
  Zn22     1.0000 0.77358  0.69818  0.26952  Biso   1.000  Zn
  C462     1.0000 0.90420  0.73150  0.18450  Biso   1.000  C
  H220     1.0000 0.89280  0.75400  0.17360  Biso   1.000  H
  O154     1.0000 0.15080  0.74650  0.25040  Biso   1.000  O
  C463     1.0000 0.39820  0.18930  0.32450  Biso   1.000  C
  H221     1.0000 0.37580  0.18070  0.33800  Biso   1.000  H
  C464     1.0000 0.50600  0.14490  0.36100  Biso   1.000  C
  C465     1.0000 0.42710  0.22930  0.27370  Biso   1.000  C
  H222     1.0000 0.42530  0.24610  0.25190  Biso   1.000  H
  O155     1.0000 0.43370  0.14770  0.36620  Biso   1.000  O
  C466     1.0000 0.46350  0.21700  0.28790  Biso   1.000  C
  H223     1.0000 0.48610  0.22910  0.27790  Biso   1.000  H
  N23      1.0000 0.50460  0.17570  0.33000  Biso   1.000  N
  C467     1.0000 0.46920  0.13140  0.37550  Biso   1.000  C
  C468     1.0000 0.43200  0.17690  0.33490  Biso   1.000  C
  C469     1.0000 0.46800  0.18900  0.31490  Biso   1.000  C
  C470     1.0000 0.39380  0.21590  0.29270  Biso   1.000  C
  C471     1.0000 0.46760  0.10300  0.40350  Biso   1.000  C
  H224     1.0000 0.44340  0.09480  0.41380  Biso   1.000  H
  C472     1.0000 0.50300  0.08610  0.41660  Biso   1.000  C
  C473     1.0000 0.53930  0.12920  0.37250  Biso   1.000  C
  H225     1.0000 0.56340  0.13750  0.36190  Biso   1.000  H
  C474     1.0000 0.50460  0.05390  0.44630  Biso   1.000  C
  O156     1.0000 0.46840  0.04320  0.45930  Biso   1.000  O
  C475     1.0000 0.35350  0.22970  0.28490  Biso   1.000  C
  O157     1.0000 0.32400  0.21490  0.30190  Biso   1.000  O
  O158     1.0000 0.53620  0.03990  0.45800  Biso   1.000  O
  C476     1.0000 0.61510  0.21200  0.28690  Biso   1.000  C
  C477     1.0000 0.59560  0.18140  0.27090  Biso   1.000  C
  H226     1.0000 0.60740  0.16710  0.25060  Biso   1.000  H
  C478     1.0000 0.54190  0.18790  0.31200  Biso   1.000  C
  C479     1.0000 0.55770  0.17040  0.28400  Biso   1.000  C
  H227     1.0000 0.54440  0.14980  0.27150  Biso   1.000  H
  C480     1.0000 0.53760  0.10000  0.40060  Biso   1.000  C
  H228     1.0000 0.56120  0.08900  0.40940  Biso   1.000  H
  C481     1.0000 0.55720  0.21820  0.32980  Biso   1.000  C
  H229     1.0000 0.54430  0.23070  0.35070  Biso   1.000  H
  O159     1.0000 0.66970  0.25450  0.28900  Biso   1.000  O
  C482     1.0000 0.65470  0.22140  0.27580  Biso   1.000  C
  O160     1.0000 0.67270  0.20040  0.25290  Biso   1.000  O
  Zn23     1.0000 0.72642  0.19818  0.23048  Biso   1.000  Zn
  C483     1.0000 0.59580  0.23150  0.31550  Biso   1.000  C
  H230     1.0000 0.60720  0.25400  0.32640  Biso   1.000  H
  O161     1.0000 0.34920  0.24650  0.24960  Biso   1.000  O
  C484     1.0000 0.89820  0.68930  0.82450  Biso   1.000  C
  H231     1.0000 0.87580  0.68070  0.83800  Biso   1.000  H
  C485     1.0000 0.00600  0.64490  0.86100  Biso   1.000  C
  C486     1.0000 0.92710  0.72930  0.77370  Biso   1.000  C
  H232     1.0000 0.92530  0.74610  0.75190  Biso   1.000  H
  O162     1.0000 0.93370  0.64770  0.86620  Biso   1.000  O
  C487     1.0000 0.96350  0.71700  0.78790  Biso   1.000  C
  H233     1.0000 0.98610  0.72910  0.77790  Biso   1.000  H
  N24      1.0000 0.00460  0.67570  0.83000  Biso   1.000  N
  C488     1.0000 0.96920  0.63140  0.87550  Biso   1.000  C
  C489     1.0000 0.93200  0.67690  0.83490  Biso   1.000  C
  C490     1.0000 0.96800  0.68900  0.81490  Biso   1.000  C
  C491     1.0000 0.89380  0.71590  0.79270  Biso   1.000  C
  C492     1.0000 0.96760  0.60300  0.90350  Biso   1.000  C
  H234     1.0000 0.94340  0.59480  0.91380  Biso   1.000  H
  C493     1.0000 0.00300  0.58610  0.91660  Biso   1.000  C
  C494     1.0000 0.03930  0.62920  0.87250  Biso   1.000  C
  H235     1.0000 0.06340  0.63750  0.86190  Biso   1.000  H
  C495     1.0000 0.00460  0.55390  0.94630  Biso   1.000  C
  O163     1.0000 0.96840  0.54320  0.95930  Biso   1.000  O
  C496     1.0000 0.85350  0.72970  0.78490  Biso   1.000  C
  O164     1.0000 0.82400  0.71490  0.80190  Biso   1.000  O
  O165     1.0000 0.03620  0.53990  0.95800  Biso   1.000  O
  C497     1.0000 0.11510  0.71200  0.78690  Biso   1.000  C
  C498     1.0000 0.09560  0.68140  0.77090  Biso   1.000  C
  H236     1.0000 0.10740  0.66710  0.75060  Biso   1.000  H
  C499     1.0000 0.04190  0.68790  0.81200  Biso   1.000  C
  C500     1.0000 0.05770  0.67040  0.78400  Biso   1.000  C
  H237     1.0000 0.04440  0.64980  0.77150  Biso   1.000  H
  C501     1.0000 0.03760  0.60000  0.90060  Biso   1.000  C
  H238     1.0000 0.06120  0.58900  0.90940  Biso   1.000  H
  C502     1.0000 0.05720  0.71820  0.82980  Biso   1.000  C
  H239     1.0000 0.04430  0.73070  0.85070  Biso   1.000  H
  O166     1.0000 0.16970  0.75450  0.78900  Biso   1.000  O
  C503     1.0000 0.15470  0.72140  0.77580  Biso   1.000  C
  O167     1.0000 0.17270  0.70040  0.75290  Biso   1.000  O
  Zn24     1.0000 0.22642  0.69818  0.73048  Biso   1.000  Zn
  C504     1.0000 0.09580  0.73150  0.81550  Biso   1.000  C
  H240     1.0000 0.10720  0.75400  0.82640  Biso   1.000  H
  O168     1.0000 0.84920  0.74650  0.74960  Biso   1.000  O
  Co1      1.0000 0.50000  0.45644  0.00000  Biso   1.000  Co
  Co2      1.0000 0.00000  0.95644  0.50000  Biso   1.000  Co
  Co3      1.0000 0.50000  0.54356  0.00000  Biso   1.000  Co
  Co4      1.0000 0.00000  0.04356  0.50000  Biso   1.000  Co
  Co5      1.0000 0.00000  0.50000  0.45644  Biso   1.000  Co
  Co6      1.0000 0.50000  0.00000  0.95644  Biso   1.000  Co
  Co7      1.0000 0.00000  0.50000  0.54356  Biso   1.000  Co
  Co8      1.0000 0.50000  0.00000  0.04356  Biso   1.000  Co
  Co9      1.0000 0.45644  0.00000  0.50000  Biso   1.000  Co
  Co10     1.0000 0.95644  0.50000  0.00000  Biso   1.000  Co
  Co11     1.0000 0.54356  0.00000  0.50000  Biso   1.000  Co
  Co12     1.0000 0.04356  0.50000  0.00000  Biso   1.000  Co
  Zn25     1.0000 0.27861  0.27861  0.72139  Biso   1.000  Zn
  O169     1.0000 0.24570  0.24570  0.75430  Biso   1.000  O
  Zn26     1.0000 0.77861  0.77861  0.22139  Biso   1.000  Zn
  O170     1.0000 0.74570  0.74570  0.25430  Biso   1.000  O
  Zn27     1.0000 0.72139  0.72139  0.72139  Biso   1.000  Zn
  O171     1.0000 0.75430  0.75430  0.75430  Biso   1.000  O
  Zn28     1.0000 0.22139  0.22139  0.22139  Biso   1.000  Zn
  O172     1.0000 0.25430  0.25430  0.25430  Biso   1.000  O
  Zn29     1.0000 0.72139  0.27861  0.27861  Biso   1.000  Zn
  O173     1.0000 0.75430  0.24570  0.24570  Biso   1.000  O
  Zn30     1.0000 0.22139  0.77861  0.77861  Biso   1.000  Zn
  O174     1.0000 0.25430  0.74570  0.74570  Biso   1.000  O
  Zn31     1.0000 0.27861  0.72139  0.27861  Biso   1.000  Zn
  O175     1.0000 0.24570  0.75430  0.24570  Biso   1.000  O
  Zn32     1.0000 0.77861  0.22139  0.77861  Biso   1.000  Zn
  O176     1.0000 0.74570  0.25430  0.74570  Biso   1.000  O
