data_image0
_cell_length_a       35.067
_cell_length_b       24.035
_cell_length_c       26.081
_cell_angle_alpha    90
_cell_angle_beta     132.068
_cell_angle_gamma    90

_symmetry_space_group_name_H-M    "P 1"
_symmetry_int_tables_number       1

loop_
  _symmetry_equiv_pos_as_xyz
  'x, y, z'

loop_
  _atom_site_label
  _atom_site_occupancy
  _atom_site_fract_x
  _atom_site_fract_y
  _atom_site_fract_z
  _atom_site_thermal_displace_type
  _atom_site_B_iso_or_equiv
  _atom_site_type_symbol
  Gd1      1.0000 0.40547  0.23478  0.39978  Biso   1.000  Gd
  Gd2      1.0000 0.24023  0.26517  0.26238  Biso   1.000  Gd
  O1       1.0000 0.35720  0.17690  0.40920  Biso   1.000  O
  O2       1.0000 0.27280  0.19170  0.34020  Biso   1.000  O
  O3       1.0000 0.34320  0.79750  0.78590  Biso   1.000  O
  O4       1.0000 0.25510  0.80080  0.71440  Biso   1.000  O
  O5       1.0000 0.37280  0.31030  0.32700  Biso   1.000  O
  O6       1.0000 0.28580  0.31860  0.24500  Biso   1.000  O
  O7       1.0000 0.38630  0.70430  0.95130  Biso   1.000  O
  O8       1.0000 0.30320  0.69550  0.86680  Biso   1.000  O
  O9       1.0000 0.44090  0.14380  0.40660  Biso   1.000  O
  O10      1.0000 0.45300  0.21080  0.36700  Biso   1.000  O
  O11      1.0000 0.69670  0.85060  0.24880  Biso   1.000  O
  O12      1.0000 0.69910  0.78400  0.31250  Biso   1.000  O
  C1       1.0000 0.31240  0.16560  0.38450  Biso   1.000  C
  C2       1.0000 0.31080  0.12080  0.42310  Biso   1.000  C
  C3       1.0000 0.30190  0.85070  0.68790  Biso   1.000  C
  C4       1.0000 0.26740  0.11450  0.41330  Biso   1.000  C
  H1       1.0000 0.23898  0.13709  0.38176  Biso   1.000  H
  C5       1.0000 0.34930  0.08340  0.46550  Biso   1.000  C
  H2       1.0000 0.37908  0.08744  0.47288  Biso   1.000  H
  C6       1.0000 0.26560  0.07470  0.45040  Biso   1.000  C
  H3       1.0000 0.23723  0.07469  0.44642  Biso   1.000  H
  C7       1.0000 0.34740  0.04210  0.49650  Biso   1.000  C
  H4       1.0000 0.37395  0.01628  0.52182  Biso   1.000  H
  C8       1.0000 0.30200  0.03640  0.49120  Biso   1.000  C
  C9       1.0000 0.30300  0.99550  0.53020  Biso   1.000  C
  C10      1.0000 0.30020  0.96160  0.56070  Biso   1.000  C
  C11      1.0000 0.25350  0.90830  0.58330  Biso   1.000  C
  H5       1.0000 0.22199  0.92222  0.54396  Biso   1.000  H
  C12      1.0000 0.34440  0.90220  0.65800  Biso   1.000  C
  H6       1.0000 0.37481  0.91100  0.66869  Biso   1.000  H
  C13      1.0000 0.29790  0.92270  0.59840  Biso   1.000  C
  C14      1.0000 0.25610  0.87320  0.62670  Biso   1.000  C
  H7       1.0000 0.22550  0.86339  0.61505  Biso   1.000  H
  C15      1.0000 0.34500  0.86770  0.70230  Biso   1.000  C
  H8       1.0000 0.37659  0.85612  0.74352  Biso   1.000  H
  C16      1.0000 0.30220  0.81220  0.73440  Biso   1.000  C
  C17      1.0000 0.33100  0.33160  0.27130  Biso   1.000  C
  C18      1.0000 0.33680  0.37030  0.23380  Biso   1.000  C
  C19      1.0000 0.29280  0.39250  0.17300  Biso   1.000  C
  H9       1.0000 0.26101  0.38211  0.15761  Biso   1.000  H
  C20      1.0000 0.38060  0.38800  0.25200  Biso   1.000  C
  H10      1.0000 0.41068  0.37385  0.29331  Biso   1.000  H
  C21      1.0000 0.29480  0.43170  0.13280  Biso   1.000  C
  H11      1.0000 0.26551  0.45037  0.09547  Biso   1.000  H
  C22      1.0000 0.38610  0.42280  0.21900  Biso   1.000  C
  H12      1.0000 0.41804  0.43594  0.23707  Biso   1.000  H
  C23      1.0000 0.33770  0.43950  0.15000  Biso   1.000  C
  C24      1.0000 0.34830  0.48250  0.11700  Biso   1.000  C
  C25      1.0000 0.34700  0.51380  0.08030  Biso   1.000  C
  C26      1.0000 0.34490  0.55590  0.03970  Biso   1.000  C
  C27      1.0000 0.30250  0.56810  0.97500  Biso   1.000  C
  H13      1.0000 0.27251  0.54822  0.95400  Biso   1.000  H
  C28      1.0000 0.39080  0.58320  0.06840  Biso   1.000  C
  H14      1.0000 0.42110  0.57326  0.11220  Biso   1.000  H
  C29      1.0000 0.30240  0.60940  0.93800  Biso   1.000  C
  H15      1.0000 0.27163  0.61951  0.89484  Biso   1.000  H
  C30      1.0000 0.39160  0.62440  0.03240  Biso   1.000  C
  H16      1.0000 0.42164  0.64450  0.05373  Biso   1.000  H
  C31      1.0000 0.34770  0.63620  0.96440  Biso   1.000  C
  C32      1.0000 0.34800  0.68050  0.92790  Biso   1.000  C
  C33      1.0000 0.46130  0.16540  0.38480  Biso   1.000  C
  C34      1.0000 0.48310  0.12020  0.36870  Biso   1.000  C
  C35      1.0000 0.50580  0.13850  0.34300  Biso   1.000  C
  H17      1.0000 0.50309  0.17593  0.33143  Biso   1.000  H
  C36      1.0000 0.48630  0.06690  0.38140  Biso   1.000  C
  H18      1.0000 0.47164  0.05471  0.39863  Biso   1.000  H
  C37      1.0000 0.53130  0.10400  0.33300  Biso   1.000  C
  H19      1.0000 0.54889  0.11802  0.32043  Biso   1.000  H
  C38      1.0000 0.50990  0.02600  0.37160  Biso   1.000  C
  H20      1.0000 0.51212  0.98884  0.38338  Biso   1.000  H
  C39      1.0000 0.53020  0.04590  0.34220  Biso   1.000  C
  C40      1.0000 0.55990  0.01140  0.33530  Biso   1.000  C
  C41      1.0000 0.57950  0.97800  0.32550  Biso   1.000  C
  C42      1.0000 0.60350  0.93960  0.31160  Biso   1.000  C
  C43      1.0000 0.62180  0.88960  0.34440  Biso   1.000  C
  H21      1.0000 0.61534  0.87794  0.37200  Biso   1.000  H
  C44      1.0000 0.61690  0.95880  0.27370  Biso   1.000  C
  H22      1.0000 0.60953  0.99517  0.25732  Biso   1.000  H
  C45      1.0000 0.65050  0.85520  0.33690  Biso   1.000  C
  H23      1.0000 0.66354  0.82115  0.35940  Biso   1.000  H
  C46      1.0000 0.64080  0.92290  0.26160  Biso   1.000  C
  H24      1.0000 0.64439  0.93267  0.23051  Biso   1.000  H
  C47      1.0000 0.65860  0.87450  0.29440  Biso   1.000  C
  C48      1.0000 0.68540  0.83140  0.28210  Biso   1.000  C
  Gd3      1.0000 0.90547  0.73478  0.39978  Biso   1.000  Gd
  Gd4      1.0000 0.74023  0.76517  0.26238  Biso   1.000  Gd
  O13      1.0000 0.85720  0.67690  0.40920  Biso   1.000  O
  O14      1.0000 0.77280  0.69170  0.34020  Biso   1.000  O
  O15      1.0000 0.84320  0.29750  0.78590  Biso   1.000  O
  O16      1.0000 0.75510  0.30080  0.71440  Biso   1.000  O
  O17      1.0000 0.87280  0.81030  0.32700  Biso   1.000  O
  O18      1.0000 0.78580  0.81860  0.24500  Biso   1.000  O
  O19      1.0000 0.88630  0.20430  0.95130  Biso   1.000  O
  O20      1.0000 0.80320  0.19550  0.86680  Biso   1.000  O
  O21      1.0000 0.94090  0.64380  0.40660  Biso   1.000  O
  O22      1.0000 0.95300  0.71080  0.36700  Biso   1.000  O
  O23      1.0000 0.19670  0.35060  0.24880  Biso   1.000  O
  O24      1.0000 0.19910  0.28400  0.31250  Biso   1.000  O
  C49      1.0000 0.81240  0.66560  0.38450  Biso   1.000  C
  C50      1.0000 0.81080  0.62080  0.42310  Biso   1.000  C
  C51      1.0000 0.80190  0.35070  0.68790  Biso   1.000  C
  C52      1.0000 0.76740  0.61450  0.41330  Biso   1.000  C
  H25      1.0000 0.73898  0.63709  0.38176  Biso   1.000  H
  C53      1.0000 0.84930  0.58340  0.46550  Biso   1.000  C
  H26      1.0000 0.87908  0.58744  0.47288  Biso   1.000  H
  C54      1.0000 0.76560  0.57470  0.45040  Biso   1.000  C
  H27      1.0000 0.73723  0.57469  0.44642  Biso   1.000  H
  C55      1.0000 0.84740  0.54210  0.49650  Biso   1.000  C
  H28      1.0000 0.87395  0.51628  0.52182  Biso   1.000  H
  C56      1.0000 0.80200  0.53640  0.49120  Biso   1.000  C
  C57      1.0000 0.80300  0.49550  0.53020  Biso   1.000  C
  C58      1.0000 0.80020  0.46160  0.56070  Biso   1.000  C
  C59      1.0000 0.75350  0.40830  0.58330  Biso   1.000  C
  H29      1.0000 0.72199  0.42222  0.54396  Biso   1.000  H
  C60      1.0000 0.84440  0.40220  0.65800  Biso   1.000  C
  H30      1.0000 0.87481  0.41100  0.66869  Biso   1.000  H
  C61      1.0000 0.79790  0.42270  0.59840  Biso   1.000  C
  C62      1.0000 0.75610  0.37320  0.62670  Biso   1.000  C
  H31      1.0000 0.72550  0.36339  0.61505  Biso   1.000  H
  C63      1.0000 0.84500  0.36770  0.70230  Biso   1.000  C
  H32      1.0000 0.87659  0.35612  0.74352  Biso   1.000  H
  C64      1.0000 0.80220  0.31220  0.73440  Biso   1.000  C
  C65      1.0000 0.83100  0.83160  0.27130  Biso   1.000  C
  C66      1.0000 0.83680  0.87030  0.23380  Biso   1.000  C
  C67      1.0000 0.79280  0.89250  0.17300  Biso   1.000  C
  H33      1.0000 0.76101  0.88211  0.15761  Biso   1.000  H
  C68      1.0000 0.88060  0.88800  0.25200  Biso   1.000  C
  H34      1.0000 0.91068  0.87385  0.29331  Biso   1.000  H
  C69      1.0000 0.79480  0.93170  0.13280  Biso   1.000  C
  H35      1.0000 0.76551  0.95037  0.09547  Biso   1.000  H
  C70      1.0000 0.88610  0.92280  0.21900  Biso   1.000  C
  H36      1.0000 0.91804  0.93594  0.23707  Biso   1.000  H
  C71      1.0000 0.83770  0.93950  0.15000  Biso   1.000  C
  C72      1.0000 0.84830  0.98250  0.11700  Biso   1.000  C
  C73      1.0000 0.84700  0.01380  0.08030  Biso   1.000  C
  C74      1.0000 0.84490  0.05590  0.03970  Biso   1.000  C
  C75      1.0000 0.80250  0.06810  0.97500  Biso   1.000  C
  H37      1.0000 0.77251  0.04822  0.95400  Biso   1.000  H
  C76      1.0000 0.89080  0.08320  0.06840  Biso   1.000  C
  H38      1.0000 0.92110  0.07326  0.11220  Biso   1.000  H
  C77      1.0000 0.80240  0.10940  0.93800  Biso   1.000  C
  H39      1.0000 0.77163  0.11951  0.89484  Biso   1.000  H
  C78      1.0000 0.89160  0.12440  0.03240  Biso   1.000  C
  H40      1.0000 0.92164  0.14450  0.05373  Biso   1.000  H
  C79      1.0000 0.84770  0.13620  0.96440  Biso   1.000  C
  C80      1.0000 0.84800  0.18050  0.92790  Biso   1.000  C
  C81      1.0000 0.96130  0.66540  0.38480  Biso   1.000  C
  C82      1.0000 0.98310  0.62020  0.36870  Biso   1.000  C
  C83      1.0000 0.00580  0.63850  0.34300  Biso   1.000  C
  H41      1.0000 0.00309  0.67593  0.33143  Biso   1.000  H
  C84      1.0000 0.98630  0.56690  0.38140  Biso   1.000  C
  H42      1.0000 0.97164  0.55471  0.39863  Biso   1.000  H
  C85      1.0000 0.03130  0.60400  0.33300  Biso   1.000  C
  H43      1.0000 0.04889  0.61802  0.32043  Biso   1.000  H
  C86      1.0000 0.00990  0.52600  0.37160  Biso   1.000  C
  H44      1.0000 0.01212  0.48884  0.38338  Biso   1.000  H
  C87      1.0000 0.03020  0.54590  0.34220  Biso   1.000  C
  C88      1.0000 0.05990  0.51140  0.33530  Biso   1.000  C
  C89      1.0000 0.07950  0.47800  0.32550  Biso   1.000  C
  C90      1.0000 0.10350  0.43960  0.31160  Biso   1.000  C
  C91      1.0000 0.12180  0.38960  0.34440  Biso   1.000  C
  H45      1.0000 0.11534  0.37794  0.37200  Biso   1.000  H
  C92      1.0000 0.11690  0.45880  0.27370  Biso   1.000  C
  H46      1.0000 0.10953  0.49517  0.25732  Biso   1.000  H
  C93      1.0000 0.15050  0.35520  0.33690  Biso   1.000  C
  H47      1.0000 0.16354  0.32115  0.35940  Biso   1.000  H
  C94      1.0000 0.14080  0.42290  0.26160  Biso   1.000  C
  H48      1.0000 0.14439  0.43267  0.23051  Biso   1.000  H
  C95      1.0000 0.15860  0.37450  0.29440  Biso   1.000  C
  C96      1.0000 0.18540  0.33140  0.28210  Biso   1.000  C
  Gd5      1.0000 0.40547  0.76522  0.89978  Biso   1.000  Gd
  Gd6      1.0000 0.24023  0.73483  0.76238  Biso   1.000  Gd
  O25      1.0000 0.35720  0.82310  0.90920  Biso   1.000  O
  O26      1.0000 0.27280  0.80830  0.84020  Biso   1.000  O
  O27      1.0000 0.34320  0.20250  0.28590  Biso   1.000  O
  O28      1.0000 0.25510  0.19920  0.21440  Biso   1.000  O
  O29      1.0000 0.37280  0.68970  0.82700  Biso   1.000  O
  O30      1.0000 0.28580  0.68140  0.74500  Biso   1.000  O
  O31      1.0000 0.38630  0.29570  0.45130  Biso   1.000  O
  O32      1.0000 0.30320  0.30450  0.36680  Biso   1.000  O
  O33      1.0000 0.44090  0.85620  0.90660  Biso   1.000  O
  O34      1.0000 0.45300  0.78920  0.86700  Biso   1.000  O
  O35      1.0000 0.69670  0.14940  0.74880  Biso   1.000  O
  O36      1.0000 0.69910  0.21600  0.81250  Biso   1.000  O
  C97      1.0000 0.31240  0.83440  0.88450  Biso   1.000  C
  C98      1.0000 0.31080  0.87920  0.92310  Biso   1.000  C
  C99      1.0000 0.30190  0.14930  0.18790  Biso   1.000  C
  C100     1.0000 0.26740  0.88550  0.91330  Biso   1.000  C
  H49      1.0000 0.23898  0.86291  0.88176  Biso   1.000  H
  C101     1.0000 0.34930  0.91660  0.96550  Biso   1.000  C
  H50      1.0000 0.37908  0.91256  0.97288  Biso   1.000  H
  C102     1.0000 0.26560  0.92530  0.95040  Biso   1.000  C
  H51      1.0000 0.23723  0.92531  0.94642  Biso   1.000  H
  C103     1.0000 0.34740  0.95790  0.99650  Biso   1.000  C
  H52      1.0000 0.37395  0.98372  0.02182  Biso   1.000  H
  C104     1.0000 0.30200  0.96360  0.99120  Biso   1.000  C
  C105     1.0000 0.30300  0.00450  0.03020  Biso   1.000  C
  C106     1.0000 0.30020  0.03840  0.06070  Biso   1.000  C
  C107     1.0000 0.25350  0.09170  0.08330  Biso   1.000  C
  H53      1.0000 0.22199  0.07778  0.04396  Biso   1.000  H
  C108     1.0000 0.34440  0.09780  0.15800  Biso   1.000  C
  H54      1.0000 0.37481  0.08900  0.16869  Biso   1.000  H
  C109     1.0000 0.29790  0.07730  0.09840  Biso   1.000  C
  C110     1.0000 0.25610  0.12680  0.12670  Biso   1.000  C
  H55      1.0000 0.22550  0.13661  0.11505  Biso   1.000  H
  C111     1.0000 0.34500  0.13230  0.20230  Biso   1.000  C
  H56      1.0000 0.37659  0.14388  0.24352  Biso   1.000  H
  C112     1.0000 0.30220  0.18780  0.23440  Biso   1.000  C
  C113     1.0000 0.33100  0.66840  0.77130  Biso   1.000  C
  C114     1.0000 0.33680  0.62970  0.73380  Biso   1.000  C
  C115     1.0000 0.29280  0.60750  0.67300  Biso   1.000  C
  H57      1.0000 0.26101  0.61789  0.65761  Biso   1.000  H
  C116     1.0000 0.38060  0.61200  0.75200  Biso   1.000  C
  H58      1.0000 0.41068  0.62615  0.79331  Biso   1.000  H
  C117     1.0000 0.29480  0.56830  0.63280  Biso   1.000  C
  H59      1.0000 0.26551  0.54963  0.59547  Biso   1.000  H
  C118     1.0000 0.38610  0.57720  0.71900  Biso   1.000  C
  H60      1.0000 0.41804  0.56406  0.73707  Biso   1.000  H
  C119     1.0000 0.33770  0.56050  0.65000  Biso   1.000  C
  C120     1.0000 0.34830  0.51750  0.61700  Biso   1.000  C
  C121     1.0000 0.34700  0.48620  0.58030  Biso   1.000  C
  C122     1.0000 0.34490  0.44410  0.53970  Biso   1.000  C
  C123     1.0000 0.30250  0.43190  0.47500  Biso   1.000  C
  H61      1.0000 0.27251  0.45178  0.45400  Biso   1.000  H
  C124     1.0000 0.39080  0.41680  0.56840  Biso   1.000  C
  H62      1.0000 0.42110  0.42674  0.61220  Biso   1.000  H
  C125     1.0000 0.30240  0.39060  0.43800  Biso   1.000  C
  H63      1.0000 0.27163  0.38049  0.39484  Biso   1.000  H
  C126     1.0000 0.39160  0.37560  0.53240  Biso   1.000  C
  H64      1.0000 0.42164  0.35550  0.55373  Biso   1.000  H
  C127     1.0000 0.34770  0.36380  0.46440  Biso   1.000  C
  C128     1.0000 0.34800  0.31950  0.42790  Biso   1.000  C
  C129     1.0000 0.46130  0.83460  0.88480  Biso   1.000  C
  C130     1.0000 0.48310  0.87980  0.86870  Biso   1.000  C
  C131     1.0000 0.50580  0.86150  0.84300  Biso   1.000  C
  H65      1.0000 0.50309  0.82407  0.83143  Biso   1.000  H
  C132     1.0000 0.48630  0.93310  0.88140  Biso   1.000  C
  H66      1.0000 0.47164  0.94529  0.89863  Biso   1.000  H
  C133     1.0000 0.53130  0.89600  0.83300  Biso   1.000  C
  H67      1.0000 0.54889  0.88198  0.82043  Biso   1.000  H
  C134     1.0000 0.50990  0.97400  0.87160  Biso   1.000  C
  H68      1.0000 0.51212  0.01116  0.88338  Biso   1.000  H
  C135     1.0000 0.53020  0.95410  0.84220  Biso   1.000  C
  C136     1.0000 0.55990  0.98860  0.83530  Biso   1.000  C
  C137     1.0000 0.57950  0.02200  0.82550  Biso   1.000  C
  C138     1.0000 0.60350  0.06040  0.81160  Biso   1.000  C
  C139     1.0000 0.62180  0.11040  0.84440  Biso   1.000  C
  H69      1.0000 0.61534  0.12206  0.87200  Biso   1.000  H
  C140     1.0000 0.61690  0.04120  0.77370  Biso   1.000  C
  H70      1.0000 0.60953  0.00483  0.75732  Biso   1.000  H
  C141     1.0000 0.65050  0.14480  0.83690  Biso   1.000  C
  H71      1.0000 0.66354  0.17885  0.85940  Biso   1.000  H
  C142     1.0000 0.64080  0.07710  0.76160  Biso   1.000  C
  H72      1.0000 0.64439  0.06733  0.73051  Biso   1.000  H
  C143     1.0000 0.65860  0.12550  0.79440  Biso   1.000  C
  C144     1.0000 0.68540  0.16860  0.78210  Biso   1.000  C
  Gd7      1.0000 0.90547  0.26522  0.89978  Biso   1.000  Gd
  Gd8      1.0000 0.74023  0.23483  0.76238  Biso   1.000  Gd
  O37      1.0000 0.85720  0.32310  0.90920  Biso   1.000  O
  O38      1.0000 0.77280  0.30830  0.84020  Biso   1.000  O
  O39      1.0000 0.84320  0.70250  0.28590  Biso   1.000  O
  O40      1.0000 0.75510  0.69920  0.21440  Biso   1.000  O
  O41      1.0000 0.87280  0.18970  0.82700  Biso   1.000  O
  O42      1.0000 0.78580  0.18140  0.74500  Biso   1.000  O
  O43      1.0000 0.88630  0.79570  0.45130  Biso   1.000  O
  O44      1.0000 0.80320  0.80450  0.36680  Biso   1.000  O
  O45      1.0000 0.94090  0.35620  0.90660  Biso   1.000  O
  O46      1.0000 0.95300  0.28920  0.86700  Biso   1.000  O
  O47      1.0000 0.19670  0.64940  0.74880  Biso   1.000  O
  O48      1.0000 0.19910  0.71600  0.81250  Biso   1.000  O
  C145     1.0000 0.81240  0.33440  0.88450  Biso   1.000  C
  C146     1.0000 0.81080  0.37920  0.92310  Biso   1.000  C
  C147     1.0000 0.80190  0.64930  0.18790  Biso   1.000  C
  C148     1.0000 0.76740  0.38550  0.91330  Biso   1.000  C
  H73      1.0000 0.73898  0.36291  0.88176  Biso   1.000  H
  C149     1.0000 0.84930  0.41660  0.96550  Biso   1.000  C
  H74      1.0000 0.87908  0.41256  0.97288  Biso   1.000  H
  C150     1.0000 0.76560  0.42530  0.95040  Biso   1.000  C
  H75      1.0000 0.73723  0.42531  0.94642  Biso   1.000  H
  C151     1.0000 0.84740  0.45790  0.99650  Biso   1.000  C
  H76      1.0000 0.87395  0.48372  0.02182  Biso   1.000  H
  C152     1.0000 0.80200  0.46360  0.99120  Biso   1.000  C
  C153     1.0000 0.80300  0.50450  0.03020  Biso   1.000  C
  C154     1.0000 0.80020  0.53840  0.06070  Biso   1.000  C
  C155     1.0000 0.75350  0.59170  0.08330  Biso   1.000  C
  H77      1.0000 0.72199  0.57778  0.04396  Biso   1.000  H
  C156     1.0000 0.84440  0.59780  0.15800  Biso   1.000  C
  H78      1.0000 0.87481  0.58900  0.16869  Biso   1.000  H
  C157     1.0000 0.79790  0.57730  0.09840  Biso   1.000  C
  C158     1.0000 0.75610  0.62680  0.12670  Biso   1.000  C
  H79      1.0000 0.72550  0.63661  0.11505  Biso   1.000  H
  C159     1.0000 0.84500  0.63230  0.20230  Biso   1.000  C
  H80      1.0000 0.87659  0.64388  0.24352  Biso   1.000  H
  C160     1.0000 0.80220  0.68780  0.23440  Biso   1.000  C
  C161     1.0000 0.83100  0.16840  0.77130  Biso   1.000  C
  C162     1.0000 0.83680  0.12970  0.73380  Biso   1.000  C
  C163     1.0000 0.79280  0.10750  0.67300  Biso   1.000  C
  H81      1.0000 0.76101  0.11789  0.65761  Biso   1.000  H
  C164     1.0000 0.88060  0.11200  0.75200  Biso   1.000  C
  H82      1.0000 0.91068  0.12615  0.79331  Biso   1.000  H
  C165     1.0000 0.79480  0.06830  0.63280  Biso   1.000  C
  H83      1.0000 0.76551  0.04963  0.59547  Biso   1.000  H
  C166     1.0000 0.88610  0.07720  0.71900  Biso   1.000  C
  H84      1.0000 0.91804  0.06406  0.73707  Biso   1.000  H
  C167     1.0000 0.83770  0.06050  0.65000  Biso   1.000  C
  C168     1.0000 0.84830  0.01750  0.61700  Biso   1.000  C
  C169     1.0000 0.84700  0.98620  0.58030  Biso   1.000  C
  C170     1.0000 0.84490  0.94410  0.53970  Biso   1.000  C
  C171     1.0000 0.80250  0.93190  0.47500  Biso   1.000  C
  H85      1.0000 0.77251  0.95178  0.45400  Biso   1.000  H
  C172     1.0000 0.89080  0.91680  0.56840  Biso   1.000  C
  H86      1.0000 0.92110  0.92674  0.61220  Biso   1.000  H
  C173     1.0000 0.80240  0.89060  0.43800  Biso   1.000  C
  H87      1.0000 0.77163  0.88049  0.39484  Biso   1.000  H
  C174     1.0000 0.89160  0.87560  0.53240  Biso   1.000  C
  H88      1.0000 0.92164  0.85550  0.55373  Biso   1.000  H
  C175     1.0000 0.84770  0.86380  0.46440  Biso   1.000  C
  C176     1.0000 0.84800  0.81950  0.42790  Biso   1.000  C
  C177     1.0000 0.96130  0.33460  0.88480  Biso   1.000  C
  C178     1.0000 0.98310  0.37980  0.86870  Biso   1.000  C
  C179     1.0000 0.00580  0.36150  0.84300  Biso   1.000  C
  H89      1.0000 0.00309  0.32407  0.83143  Biso   1.000  H
  C180     1.0000 0.98630  0.43310  0.88140  Biso   1.000  C
  H90      1.0000 0.97164  0.44529  0.89863  Biso   1.000  H
  C181     1.0000 0.03130  0.39600  0.83300  Biso   1.000  C
  H91      1.0000 0.04889  0.38198  0.82043  Biso   1.000  H
  C182     1.0000 0.00990  0.47400  0.87160  Biso   1.000  C
  H92      1.0000 0.01212  0.51116  0.88338  Biso   1.000  H
  C183     1.0000 0.03020  0.45410  0.84220  Biso   1.000  C
  C184     1.0000 0.05990  0.48860  0.83530  Biso   1.000  C
  C185     1.0000 0.07950  0.52200  0.82550  Biso   1.000  C
  C186     1.0000 0.10350  0.56040  0.81160  Biso   1.000  C
  C187     1.0000 0.12180  0.61040  0.84440  Biso   1.000  C
  H93      1.0000 0.11534  0.62206  0.87200  Biso   1.000  H
  C188     1.0000 0.11690  0.54120  0.77370  Biso   1.000  C
  H94      1.0000 0.10953  0.50483  0.75732  Biso   1.000  H
  C189     1.0000 0.15050  0.64480  0.83690  Biso   1.000  C
  H95      1.0000 0.16354  0.67885  0.85940  Biso   1.000  H
  C190     1.0000 0.14080  0.57710  0.76160  Biso   1.000  C
  H96      1.0000 0.14439  0.56733  0.73051  Biso   1.000  H
  C191     1.0000 0.15860  0.62550  0.79440  Biso   1.000  C
  C192     1.0000 0.18540  0.66860  0.78210  Biso   1.000  C
  Gd9      1.0000 0.59453  0.23478  0.10022  Biso   1.000  Gd
  Gd10     1.0000 0.75977  0.26517  0.23762  Biso   1.000  Gd
  O49      1.0000 0.64280  0.17690  0.09080  Biso   1.000  O
  O50      1.0000 0.72720  0.19170  0.15980  Biso   1.000  O
  O51      1.0000 0.65680  0.79750  0.71410  Biso   1.000  O
  O52      1.0000 0.74490  0.80080  0.78560  Biso   1.000  O
  O53      1.0000 0.62720  0.31030  0.17300  Biso   1.000  O
  O54      1.0000 0.71420  0.31860  0.25500  Biso   1.000  O
  O55      1.0000 0.61370  0.70430  0.54870  Biso   1.000  O
  O56      1.0000 0.69680  0.69550  0.63320  Biso   1.000  O
  O57      1.0000 0.55910  0.14380  0.09340  Biso   1.000  O
  O58      1.0000 0.54700  0.21080  0.13300  Biso   1.000  O
  O59      1.0000 0.30330  0.85060  0.25120  Biso   1.000  O
  O60      1.0000 0.30090  0.78400  0.18750  Biso   1.000  O
  C193     1.0000 0.68760  0.16560  0.11550  Biso   1.000  C
  C194     1.0000 0.68920  0.12080  0.07690  Biso   1.000  C
  C195     1.0000 0.69810  0.85070  0.81210  Biso   1.000  C
  C196     1.0000 0.73260  0.11450  0.08670  Biso   1.000  C
  H97      1.0000 0.76102  0.13709  0.11824  Biso   1.000  H
  C197     1.0000 0.65070  0.08340  0.03450  Biso   1.000  C
  H98      1.0000 0.62092  0.08744  0.02712  Biso   1.000  H
  C198     1.0000 0.73440  0.07470  0.04960  Biso   1.000  C
  H99      1.0000 0.76277  0.07469  0.05358  Biso   1.000  H
  C199     1.0000 0.65260  0.04210  0.00350  Biso   1.000  C
  H100     1.0000 0.62605  0.01628  0.97818  Biso   1.000  H
  C200     1.0000 0.69800  0.03640  0.00880  Biso   1.000  C
  C201     1.0000 0.69700  0.99550  0.96980  Biso   1.000  C
  C202     1.0000 0.69980  0.96160  0.93930  Biso   1.000  C
  C203     1.0000 0.74650  0.90830  0.91670  Biso   1.000  C
  H101     1.0000 0.77801  0.92222  0.95604  Biso   1.000  H
  C204     1.0000 0.65560  0.90220  0.84200  Biso   1.000  C
  H102     1.0000 0.62519  0.91100  0.83131  Biso   1.000  H
  C205     1.0000 0.70210  0.92270  0.90160  Biso   1.000  C
  C206     1.0000 0.74390  0.87320  0.87330  Biso   1.000  C
  H103     1.0000 0.77450  0.86339  0.88495  Biso   1.000  H
  C207     1.0000 0.65500  0.86770  0.79770  Biso   1.000  C
  H104     1.0000 0.62341  0.85612  0.75648  Biso   1.000  H
  C208     1.0000 0.69780  0.81220  0.76560  Biso   1.000  C
  C209     1.0000 0.66900  0.33160  0.22870  Biso   1.000  C
  C210     1.0000 0.66320  0.37030  0.26620  Biso   1.000  C
  C211     1.0000 0.70720  0.39250  0.32700  Biso   1.000  C
  H105     1.0000 0.73899  0.38211  0.34239  Biso   1.000  H
  C212     1.0000 0.61940  0.38800  0.24800  Biso   1.000  C
  H106     1.0000 0.58932  0.37385  0.20669  Biso   1.000  H
  C213     1.0000 0.70520  0.43170  0.36720  Biso   1.000  C
  H107     1.0000 0.73449  0.45037  0.40453  Biso   1.000  H
  C214     1.0000 0.61390  0.42280  0.28100  Biso   1.000  C
  H108     1.0000 0.58196  0.43594  0.26293  Biso   1.000  H
  C215     1.0000 0.66230  0.43950  0.35000  Biso   1.000  C
  C216     1.0000 0.65170  0.48250  0.38300  Biso   1.000  C
  C217     1.0000 0.65300  0.51380  0.41970  Biso   1.000  C
  C218     1.0000 0.65510  0.55590  0.46030  Biso   1.000  C
  C219     1.0000 0.69750  0.56810  0.52500  Biso   1.000  C
  H109     1.0000 0.72749  0.54822  0.54600  Biso   1.000  H
  C220     1.0000 0.60920  0.58320  0.43160  Biso   1.000  C
  H110     1.0000 0.57890  0.57326  0.38780  Biso   1.000  H
  C221     1.0000 0.69760  0.60940  0.56200  Biso   1.000  C
  H111     1.0000 0.72837  0.61951  0.60516  Biso   1.000  H
  C222     1.0000 0.60840  0.62440  0.46760  Biso   1.000  C
  H112     1.0000 0.57836  0.64450  0.44627  Biso   1.000  H
  C223     1.0000 0.65230  0.63620  0.53560  Biso   1.000  C
  C224     1.0000 0.65200  0.68050  0.57210  Biso   1.000  C
  C225     1.0000 0.53870  0.16540  0.11520  Biso   1.000  C
  C226     1.0000 0.51690  0.12020  0.13130  Biso   1.000  C
  C227     1.0000 0.49420  0.13850  0.15700  Biso   1.000  C
  H113     1.0000 0.49691  0.17593  0.16857  Biso   1.000  H
  C228     1.0000 0.51370  0.06690  0.11860  Biso   1.000  C
  H114     1.0000 0.52836  0.05471  0.10137  Biso   1.000  H
  C229     1.0000 0.46870  0.10400  0.16700  Biso   1.000  C
  H115     1.0000 0.45111  0.11802  0.17957  Biso   1.000  H
  C230     1.0000 0.49010  0.02600  0.12840  Biso   1.000  C
  H116     1.0000 0.48788  0.98884  0.11662  Biso   1.000  H
  C231     1.0000 0.46980  0.04590  0.15780  Biso   1.000  C
  C232     1.0000 0.44010  0.01140  0.16470  Biso   1.000  C
  C233     1.0000 0.42050  0.97800  0.17450  Biso   1.000  C
  C234     1.0000 0.39650  0.93960  0.18840  Biso   1.000  C
  C235     1.0000 0.37820  0.88960  0.15560  Biso   1.000  C
  H117     1.0000 0.38466  0.87794  0.12800  Biso   1.000  H
  C236     1.0000 0.38310  0.95880  0.22630  Biso   1.000  C
  H118     1.0000 0.39047  0.99517  0.24268  Biso   1.000  H
  C237     1.0000 0.34950  0.85520  0.16310  Biso   1.000  C
  H119     1.0000 0.33646  0.82115  0.14060  Biso   1.000  H
  C238     1.0000 0.35920  0.92290  0.23840  Biso   1.000  C
  H120     1.0000 0.35561  0.93267  0.26949  Biso   1.000  H
  C239     1.0000 0.34140  0.87450  0.20560  Biso   1.000  C
  C240     1.0000 0.31460  0.83140  0.21790  Biso   1.000  C
  Gd11     1.0000 0.09453  0.73478  0.10022  Biso   1.000  Gd
  Gd12     1.0000 0.25977  0.76517  0.23762  Biso   1.000  Gd
  O61      1.0000 0.14280  0.67690  0.09080  Biso   1.000  O
  O62      1.0000 0.22720  0.69170  0.15980  Biso   1.000  O
  O63      1.0000 0.15680  0.29750  0.71410  Biso   1.000  O
  O64      1.0000 0.24490  0.30080  0.78560  Biso   1.000  O
  O65      1.0000 0.12720  0.81030  0.17300  Biso   1.000  O
  O66      1.0000 0.21420  0.81860  0.25500  Biso   1.000  O
  O67      1.0000 0.11370  0.20430  0.54870  Biso   1.000  O
  O68      1.0000 0.19680  0.19550  0.63320  Biso   1.000  O
  O69      1.0000 0.05910  0.64380  0.09340  Biso   1.000  O
  O70      1.0000 0.04700  0.71080  0.13300  Biso   1.000  O
  O71      1.0000 0.80330  0.35060  0.25120  Biso   1.000  O
  O72      1.0000 0.80090  0.28400  0.18750  Biso   1.000  O
  C241     1.0000 0.18760  0.66560  0.11550  Biso   1.000  C
  C242     1.0000 0.18920  0.62080  0.07690  Biso   1.000  C
  C243     1.0000 0.19810  0.35070  0.81210  Biso   1.000  C
  C244     1.0000 0.23260  0.61450  0.08670  Biso   1.000  C
  H121     1.0000 0.26102  0.63709  0.11824  Biso   1.000  H
  C245     1.0000 0.15070  0.58340  0.03450  Biso   1.000  C
  H122     1.0000 0.12092  0.58744  0.02712  Biso   1.000  H
  C246     1.0000 0.23440  0.57470  0.04960  Biso   1.000  C
  H123     1.0000 0.26277  0.57469  0.05358  Biso   1.000  H
  C247     1.0000 0.15260  0.54210  0.00350  Biso   1.000  C
  H124     1.0000 0.12605  0.51628  0.97818  Biso   1.000  H
  C248     1.0000 0.19800  0.53640  0.00880  Biso   1.000  C
  C249     1.0000 0.19700  0.49550  0.96980  Biso   1.000  C
  C250     1.0000 0.19980  0.46160  0.93930  Biso   1.000  C
  C251     1.0000 0.24650  0.40830  0.91670  Biso   1.000  C
  H125     1.0000 0.27801  0.42222  0.95604  Biso   1.000  H
  C252     1.0000 0.15560  0.40220  0.84200  Biso   1.000  C
  H126     1.0000 0.12519  0.41100  0.83131  Biso   1.000  H
  C253     1.0000 0.20210  0.42270  0.90160  Biso   1.000  C
  C254     1.0000 0.24390  0.37320  0.87330  Biso   1.000  C
  H127     1.0000 0.27450  0.36339  0.88495  Biso   1.000  H
  C255     1.0000 0.15500  0.36770  0.79770  Biso   1.000  C
  H128     1.0000 0.12341  0.35612  0.75648  Biso   1.000  H
  C256     1.0000 0.19780  0.31220  0.76560  Biso   1.000  C
  C257     1.0000 0.16900  0.83160  0.22870  Biso   1.000  C
  C258     1.0000 0.16320  0.87030  0.26620  Biso   1.000  C
  C259     1.0000 0.20720  0.89250  0.32700  Biso   1.000  C
  H129     1.0000 0.23899  0.88211  0.34239  Biso   1.000  H
  C260     1.0000 0.11940  0.88800  0.24800  Biso   1.000  C
  H130     1.0000 0.08932  0.87385  0.20669  Biso   1.000  H
  C261     1.0000 0.20520  0.93170  0.36720  Biso   1.000  C
  H131     1.0000 0.23449  0.95037  0.40453  Biso   1.000  H
  C262     1.0000 0.11390  0.92280  0.28100  Biso   1.000  C
  H132     1.0000 0.08196  0.93594  0.26293  Biso   1.000  H
  C263     1.0000 0.16230  0.93950  0.35000  Biso   1.000  C
  C264     1.0000 0.15170  0.98250  0.38300  Biso   1.000  C
  C265     1.0000 0.15300  0.01380  0.41970  Biso   1.000  C
  C266     1.0000 0.15510  0.05590  0.46030  Biso   1.000  C
  C267     1.0000 0.19750  0.06810  0.52500  Biso   1.000  C
  H133     1.0000 0.22749  0.04822  0.54600  Biso   1.000  H
  C268     1.0000 0.10920  0.08320  0.43160  Biso   1.000  C
  H134     1.0000 0.07890  0.07326  0.38780  Biso   1.000  H
  C269     1.0000 0.19760  0.10940  0.56200  Biso   1.000  C
  H135     1.0000 0.22837  0.11951  0.60516  Biso   1.000  H
  C270     1.0000 0.10840  0.12440  0.46760  Biso   1.000  C
  H136     1.0000 0.07836  0.14450  0.44627  Biso   1.000  H
  C271     1.0000 0.15230  0.13620  0.53560  Biso   1.000  C
  C272     1.0000 0.15200  0.18050  0.57210  Biso   1.000  C
  C273     1.0000 0.03870  0.66540  0.11520  Biso   1.000  C
  C274     1.0000 0.01690  0.62020  0.13130  Biso   1.000  C
  C275     1.0000 0.99420  0.63850  0.15700  Biso   1.000  C
  H137     1.0000 0.99691  0.67593  0.16857  Biso   1.000  H
  C276     1.0000 0.01370  0.56690  0.11860  Biso   1.000  C
  H138     1.0000 0.02836  0.55471  0.10137  Biso   1.000  H
  C277     1.0000 0.96870  0.60400  0.16700  Biso   1.000  C
  H139     1.0000 0.95111  0.61802  0.17957  Biso   1.000  H
  C278     1.0000 0.99010  0.52600  0.12840  Biso   1.000  C
  H140     1.0000 0.98788  0.48884  0.11662  Biso   1.000  H
  C279     1.0000 0.96980  0.54590  0.15780  Biso   1.000  C
  C280     1.0000 0.94010  0.51140  0.16470  Biso   1.000  C
  C281     1.0000 0.92050  0.47800  0.17450  Biso   1.000  C
  C282     1.0000 0.89650  0.43960  0.18840  Biso   1.000  C
  C283     1.0000 0.87820  0.38960  0.15560  Biso   1.000  C
  H141     1.0000 0.88466  0.37794  0.12800  Biso   1.000  H
  C284     1.0000 0.88310  0.45880  0.22630  Biso   1.000  C
  H142     1.0000 0.89047  0.49517  0.24268  Biso   1.000  H
  C285     1.0000 0.84950  0.35520  0.16310  Biso   1.000  C
  H143     1.0000 0.83646  0.32115  0.14060  Biso   1.000  H
  C286     1.0000 0.85920  0.42290  0.23840  Biso   1.000  C
  H144     1.0000 0.85561  0.43267  0.26949  Biso   1.000  H
  C287     1.0000 0.84140  0.37450  0.20560  Biso   1.000  C
  C288     1.0000 0.81460  0.33140  0.21790  Biso   1.000  C
  Gd13     1.0000 0.59453  0.76522  0.60022  Biso   1.000  Gd
  Gd14     1.0000 0.75977  0.73483  0.73762  Biso   1.000  Gd
  O73      1.0000 0.64280  0.82310  0.59080  Biso   1.000  O
  O74      1.0000 0.72720  0.80830  0.65980  Biso   1.000  O
  O75      1.0000 0.65680  0.20250  0.21410  Biso   1.000  O
  O76      1.0000 0.74490  0.19920  0.28560  Biso   1.000  O
  O77      1.0000 0.62720  0.68970  0.67300  Biso   1.000  O
  O78      1.0000 0.71420  0.68140  0.75500  Biso   1.000  O
  O79      1.0000 0.61370  0.29570  0.04870  Biso   1.000  O
  O80      1.0000 0.69680  0.30450  0.13320  Biso   1.000  O
  O81      1.0000 0.55910  0.85620  0.59340  Biso   1.000  O
  O82      1.0000 0.54700  0.78920  0.63300  Biso   1.000  O
  O83      1.0000 0.30330  0.14940  0.75120  Biso   1.000  O
  O84      1.0000 0.30090  0.21600  0.68750  Biso   1.000  O
  C289     1.0000 0.68760  0.83440  0.61550  Biso   1.000  C
  C290     1.0000 0.68920  0.87920  0.57690  Biso   1.000  C
  C291     1.0000 0.69810  0.14930  0.31210  Biso   1.000  C
  C292     1.0000 0.73260  0.88550  0.58670  Biso   1.000  C
  H145     1.0000 0.76102  0.86291  0.61824  Biso   1.000  H
  C293     1.0000 0.65070  0.91660  0.53450  Biso   1.000  C
  H146     1.0000 0.62092  0.91256  0.52712  Biso   1.000  H
  C294     1.0000 0.73440  0.92530  0.54960  Biso   1.000  C
  H147     1.0000 0.76277  0.92531  0.55358  Biso   1.000  H
  C295     1.0000 0.65260  0.95790  0.50350  Biso   1.000  C
  H148     1.0000 0.62605  0.98372  0.47818  Biso   1.000  H
  C296     1.0000 0.69800  0.96360  0.50880  Biso   1.000  C
  C297     1.0000 0.69700  0.00450  0.46980  Biso   1.000  C
  C298     1.0000 0.69980  0.03840  0.43930  Biso   1.000  C
  C299     1.0000 0.74650  0.09170  0.41670  Biso   1.000  C
  H149     1.0000 0.77801  0.07778  0.45604  Biso   1.000  H
  C300     1.0000 0.65560  0.09780  0.34200  Biso   1.000  C
  H150     1.0000 0.62519  0.08900  0.33131  Biso   1.000  H
  C301     1.0000 0.70210  0.07730  0.40160  Biso   1.000  C
  C302     1.0000 0.74390  0.12680  0.37330  Biso   1.000  C
  H151     1.0000 0.77450  0.13661  0.38495  Biso   1.000  H
  C303     1.0000 0.65500  0.13230  0.29770  Biso   1.000  C
  H152     1.0000 0.62341  0.14388  0.25648  Biso   1.000  H
  C304     1.0000 0.69780  0.18780  0.26560  Biso   1.000  C
  C305     1.0000 0.66900  0.66840  0.72870  Biso   1.000  C
  C306     1.0000 0.66320  0.62970  0.76620  Biso   1.000  C
  C307     1.0000 0.70720  0.60750  0.82700  Biso   1.000  C
  H153     1.0000 0.73899  0.61789  0.84239  Biso   1.000  H
  C308     1.0000 0.61940  0.61200  0.74800  Biso   1.000  C
  H154     1.0000 0.58932  0.62615  0.70669  Biso   1.000  H
  C309     1.0000 0.70520  0.56830  0.86720  Biso   1.000  C
  H155     1.0000 0.73449  0.54963  0.90453  Biso   1.000  H
  C310     1.0000 0.61390  0.57720  0.78100  Biso   1.000  C
  H156     1.0000 0.58196  0.56406  0.76293  Biso   1.000  H
  C311     1.0000 0.66230  0.56050  0.85000  Biso   1.000  C
  C312     1.0000 0.65170  0.51750  0.88300  Biso   1.000  C
  C313     1.0000 0.65300  0.48620  0.91970  Biso   1.000  C
  C314     1.0000 0.65510  0.44410  0.96030  Biso   1.000  C
  C315     1.0000 0.69750  0.43190  0.02500  Biso   1.000  C
  H157     1.0000 0.72749  0.45178  0.04600  Biso   1.000  H
  C316     1.0000 0.60920  0.41680  0.93160  Biso   1.000  C
  H158     1.0000 0.57890  0.42674  0.88780  Biso   1.000  H
  C317     1.0000 0.69760  0.39060  0.06200  Biso   1.000  C
  H159     1.0000 0.72837  0.38049  0.10516  Biso   1.000  H
  C318     1.0000 0.60840  0.37560  0.96760  Biso   1.000  C
  H160     1.0000 0.57836  0.35550  0.94627  Biso   1.000  H
  C319     1.0000 0.65230  0.36380  0.03560  Biso   1.000  C
  C320     1.0000 0.65200  0.31950  0.07210  Biso   1.000  C
  C321     1.0000 0.53870  0.83460  0.61520  Biso   1.000  C
  C322     1.0000 0.51690  0.87980  0.63130  Biso   1.000  C
  C323     1.0000 0.49420  0.86150  0.65700  Biso   1.000  C
  H161     1.0000 0.49691  0.82407  0.66857  Biso   1.000  H
  C324     1.0000 0.51370  0.93310  0.61860  Biso   1.000  C
  H162     1.0000 0.52836  0.94529  0.60137  Biso   1.000  H
  C325     1.0000 0.46870  0.89600  0.66700  Biso   1.000  C
  H163     1.0000 0.45111  0.88198  0.67957  Biso   1.000  H
  C326     1.0000 0.49010  0.97400  0.62840  Biso   1.000  C
  H164     1.0000 0.48788  0.01116  0.61662  Biso   1.000  H
  C327     1.0000 0.46980  0.95410  0.65780  Biso   1.000  C
  C328     1.0000 0.44010  0.98860  0.66470  Biso   1.000  C
  C329     1.0000 0.42050  0.02200  0.67450  Biso   1.000  C
  C330     1.0000 0.39650  0.06040  0.68840  Biso   1.000  C
  C331     1.0000 0.37820  0.11040  0.65560  Biso   1.000  C
  H165     1.0000 0.38466  0.12206  0.62800  Biso   1.000  H
  C332     1.0000 0.38310  0.04120  0.72630  Biso   1.000  C
  H166     1.0000 0.39047  0.00483  0.74268  Biso   1.000  H
  C333     1.0000 0.34950  0.14480  0.66310  Biso   1.000  C
  H167     1.0000 0.33646  0.17885  0.64060  Biso   1.000  H
  C334     1.0000 0.35920  0.07710  0.73840  Biso   1.000  C
  H168     1.0000 0.35561  0.06733  0.76949  Biso   1.000  H
  C335     1.0000 0.34140  0.12550  0.70560  Biso   1.000  C
  C336     1.0000 0.31460  0.16860  0.71790  Biso   1.000  C
  Gd15     1.0000 0.09453  0.26522  0.60022  Biso   1.000  Gd
  Gd16     1.0000 0.25977  0.23483  0.73762  Biso   1.000  Gd
  O85      1.0000 0.14280  0.32310  0.59080  Biso   1.000  O
  O86      1.0000 0.22720  0.30830  0.65980  Biso   1.000  O
  O87      1.0000 0.15680  0.70250  0.21410  Biso   1.000  O
  O88      1.0000 0.24490  0.69920  0.28560  Biso   1.000  O
  O89      1.0000 0.12720  0.18970  0.67300  Biso   1.000  O
  O90      1.0000 0.21420  0.18140  0.75500  Biso   1.000  O
  O91      1.0000 0.11370  0.79570  0.04870  Biso   1.000  O
  O92      1.0000 0.19680  0.80450  0.13320  Biso   1.000  O
  O93      1.0000 0.05910  0.35620  0.59340  Biso   1.000  O
  O94      1.0000 0.04700  0.28920  0.63300  Biso   1.000  O
  O95      1.0000 0.80330  0.64940  0.75120  Biso   1.000  O
  O96      1.0000 0.80090  0.71600  0.68750  Biso   1.000  O
  C337     1.0000 0.18760  0.33440  0.61550  Biso   1.000  C
  C338     1.0000 0.18920  0.37920  0.57690  Biso   1.000  C
  C339     1.0000 0.19810  0.64930  0.31210  Biso   1.000  C
  C340     1.0000 0.23260  0.38550  0.58670  Biso   1.000  C
  H169     1.0000 0.26102  0.36291  0.61824  Biso   1.000  H
  C341     1.0000 0.15070  0.41660  0.53450  Biso   1.000  C
  H170     1.0000 0.12092  0.41256  0.52712  Biso   1.000  H
  C342     1.0000 0.23440  0.42530  0.54960  Biso   1.000  C
  H171     1.0000 0.26277  0.42531  0.55358  Biso   1.000  H
  C343     1.0000 0.15260  0.45790  0.50350  Biso   1.000  C
  H172     1.0000 0.12605  0.48372  0.47818  Biso   1.000  H
  C344     1.0000 0.19800  0.46360  0.50880  Biso   1.000  C
  C345     1.0000 0.19700  0.50450  0.46980  Biso   1.000  C
  C346     1.0000 0.19980  0.53840  0.43930  Biso   1.000  C
  C347     1.0000 0.24650  0.59170  0.41670  Biso   1.000  C
  H173     1.0000 0.27801  0.57778  0.45604  Biso   1.000  H
  C348     1.0000 0.15560  0.59780  0.34200  Biso   1.000  C
  H174     1.0000 0.12519  0.58900  0.33131  Biso   1.000  H
  C349     1.0000 0.20210  0.57730  0.40160  Biso   1.000  C
  C350     1.0000 0.24390  0.62680  0.37330  Biso   1.000  C
  H175     1.0000 0.27450  0.63661  0.38495  Biso   1.000  H
  C351     1.0000 0.15500  0.63230  0.29770  Biso   1.000  C
  H176     1.0000 0.12341  0.64388  0.25648  Biso   1.000  H
  C352     1.0000 0.19780  0.68780  0.26560  Biso   1.000  C
  C353     1.0000 0.16900  0.16840  0.72870  Biso   1.000  C
  C354     1.0000 0.16320  0.12970  0.76620  Biso   1.000  C
  C355     1.0000 0.20720  0.10750  0.82700  Biso   1.000  C
  H177     1.0000 0.23899  0.11789  0.84239  Biso   1.000  H
  C356     1.0000 0.11940  0.11200  0.74800  Biso   1.000  C
  H178     1.0000 0.08932  0.12615  0.70669  Biso   1.000  H
  C357     1.0000 0.20520  0.06830  0.86720  Biso   1.000  C
  H179     1.0000 0.23449  0.04963  0.90453  Biso   1.000  H
  C358     1.0000 0.11390  0.07720  0.78100  Biso   1.000  C
  H180     1.0000 0.08196  0.06406  0.76293  Biso   1.000  H
  C359     1.0000 0.16230  0.06050  0.85000  Biso   1.000  C
  C360     1.0000 0.15170  0.01750  0.88300  Biso   1.000  C
  C361     1.0000 0.15300  0.98620  0.91970  Biso   1.000  C
  C362     1.0000 0.15510  0.94410  0.96030  Biso   1.000  C
  C363     1.0000 0.19750  0.93190  0.02500  Biso   1.000  C
  H181     1.0000 0.22749  0.95178  0.04600  Biso   1.000  H
  C364     1.0000 0.10920  0.91680  0.93160  Biso   1.000  C
  H182     1.0000 0.07890  0.92674  0.88780  Biso   1.000  H
  C365     1.0000 0.19760  0.89060  0.06200  Biso   1.000  C
  H183     1.0000 0.22837  0.88049  0.10516  Biso   1.000  H
  C366     1.0000 0.10840  0.87560  0.96760  Biso   1.000  C
  H184     1.0000 0.07836  0.85550  0.94627  Biso   1.000  H
  C367     1.0000 0.15230  0.86380  0.03560  Biso   1.000  C
  C368     1.0000 0.15200  0.81950  0.07210  Biso   1.000  C
  C369     1.0000 0.03870  0.33460  0.61520  Biso   1.000  C
  C370     1.0000 0.01690  0.37980  0.63130  Biso   1.000  C
  C371     1.0000 0.99420  0.36150  0.65700  Biso   1.000  C
  H185     1.0000 0.99691  0.32407  0.66857  Biso   1.000  H
  C372     1.0000 0.01370  0.43310  0.61860  Biso   1.000  C
  H186     1.0000 0.02836  0.44529  0.60137  Biso   1.000  H
  C373     1.0000 0.96870  0.39600  0.66700  Biso   1.000  C
  H187     1.0000 0.95111  0.38198  0.67957  Biso   1.000  H
  C374     1.0000 0.99010  0.47400  0.62840  Biso   1.000  C
  H188     1.0000 0.98788  0.51116  0.61662  Biso   1.000  H
  C375     1.0000 0.96980  0.45410  0.65780  Biso   1.000  C
  C376     1.0000 0.94010  0.48860  0.66470  Biso   1.000  C
  C377     1.0000 0.92050  0.52200  0.67450  Biso   1.000  C
  C378     1.0000 0.89650  0.56040  0.68840  Biso   1.000  C
  C379     1.0000 0.87820  0.61040  0.65560  Biso   1.000  C
  H189     1.0000 0.88466  0.62206  0.62800  Biso   1.000  H
  C380     1.0000 0.88310  0.54120  0.72630  Biso   1.000  C
  H190     1.0000 0.89047  0.50483  0.74268  Biso   1.000  H
  C381     1.0000 0.84950  0.64480  0.66310  Biso   1.000  C
  H191     1.0000 0.83646  0.67885  0.64060  Biso   1.000  H
  C382     1.0000 0.85920  0.57710  0.73840  Biso   1.000  C
  H192     1.0000 0.85561  0.56733  0.76949  Biso   1.000  H
  C383     1.0000 0.84140  0.62550  0.70560  Biso   1.000  C
  C384     1.0000 0.81460  0.66860  0.71790  Biso   1.000  C
