data_MANLOD_clean5b
_audit_creation_date              2014-07-02
_audit_creation_method            'Materials Studio'
_symmetry_space_group_name_H-M    'P1'
_symmetry_Int_Tables_number       1
_symmetry_cell_setting            triclinic
loop_
_symmetry_equiv_pos_as_xyz
  x,y,z
_cell_length_a                    28.3425
_cell_length_b                    28.3425
_cell_length_c                    28.3425
_cell_angle_alpha                 109.4710
_cell_angle_beta                  109.4710
_cell_angle_gamma                 109.4710
loop_
_atom_site_label
_atom_site_type_symbol
_atom_site_fract_x
_atom_site_fract_y
_atom_site_fract_z
_atom_site_U_iso_or_equiv
_atom_site_adp_type
_atom_site_occupancy
H1     H     0.58566   0.13588   0.06299   0.01267  Uiso   1.00
H2     H     0.62038   0.21622   0.03863   0.01267  Uiso   1.00
H3     H     0.47139   0.09819   0.86918   0.01267  Uiso   1.00
H4     H     0.44524   0.03014   0.89995   0.01267  Uiso   1.00
H5     H     0.66087   0.19049   0.89775   0.01267  Uiso   1.00
H6     H     0.58511   0.12941   0.85522   0.01267  Uiso   1.00
H7     H     0.62886   0.15692   0.93383   0.01267  Uiso   1.00
C1     C     0.56071   0.12786   0.01757   0.01267  Uiso   1.00
C2     C     0.57910   0.17320   0.00450   0.01267  Uiso   1.00
C3     C     0.54560   0.16190   0.95130   0.01267  Uiso   1.00
C4     C     0.50010   0.11030   0.91540   0.01267  Uiso   1.00
C5     C     0.48712   0.07340   0.93072   0.01267  Uiso   1.00
C6     C     0.56580   0.20810   0.93690   0.01267  Uiso   1.00
C7     C     0.59900   0.21070   0.91210   0.01267  Uiso   1.00
C8     C     0.61960   0.16960   0.89900   0.01267  Uiso   1.00
N1     N     0.51738   0.07762   0.98156   0.01267  Uiso   1.00
H8     H     0.57290   0.52267   0.43701   0.01267  Uiso   1.00
H9     H     0.67759   0.58175   0.46137   0.01267  Uiso   1.00
H10    H     0.72901   0.60221   0.63082   0.01267  Uiso   1.00
H11    H     0.63020   0.54529   0.60005   0.01267  Uiso   1.00
H12    H     0.72580   0.69923   0.56224   0.01267  Uiso   1.00
H13    H     0.79774   0.76629   0.61079   0.01267  Uiso   1.00
H14    H     0.76647   0.72251   0.64016   0.01267  Uiso   1.00
C9     C     0.61029   0.54314   0.48243   0.01267  Uiso   1.00
C10    C     0.66870   0.57460   0.49550   0.01267  Uiso   1.00
C11    C     0.71060   0.59430   0.54870   0.01267  Uiso   1.00
C12    C     0.69490   0.58470   0.58460   0.01267  Uiso   1.00
C13    C     0.64268   0.55640   0.56928   0.01267  Uiso   1.00
C14    C     0.77120   0.62890   0.56310   0.01267  Uiso   1.00
C15    C     0.79860   0.68690   0.58790   0.01267  Uiso   1.00
C16    C     0.77060   0.72060   0.60100   0.01267  Uiso   1.00
N2     N     0.59606   0.53582   0.51844   0.01267  Uiso   1.00
H15    H     0.92710   0.36412   0.94978   0.01267  Uiso   1.00
H16    H     0.82241   0.28378   0.90416   0.01267  Uiso   1.00
H17    H     0.77099   0.40181   0.87320   0.01267  Uiso   1.00
H18    H     0.86980   0.46986   0.91510   0.01267  Uiso   1.00
H19    H     0.77132   0.33162   0.97436   0.01267  Uiso   1.00
H20    H     0.69933   0.31631   0.96713   0.01267  Uiso   1.00
H21    H     0.73934   0.37526   0.95654   0.01267  Uiso   1.00
C17    C     0.88971   0.37214   0.93285   0.01267  Uiso   1.00
C18    C     0.83130   0.32680   0.90590   0.01267  Uiso   1.00
C19    C     0.78940   0.33810   0.88370   0.01267  Uiso   1.00
C20    C     0.80510   0.38970   0.88980   0.01267  Uiso   1.00
C21    C     0.85732   0.42660   0.91372   0.01267  Uiso   1.00
C22    C     0.72880   0.29190   0.85770   0.01267  Uiso   1.00
C23    C     0.70140   0.28930   0.88830   0.01267  Uiso   1.00
C24    C     0.72940   0.33040   0.95000   0.01267  Uiso   1.00
N3     N     0.90394   0.42238   0.93976   0.01267  Uiso   1.00
H22    H     0.91434   0.97733   0.55022   0.01267  Uiso   1.00
H23    H     0.87962   0.91825   0.59584   0.01267  Uiso   1.00
H24    H     0.02861   0.89779   0.62680   0.01267  Uiso   1.00
H25    H     0.05476   0.95471   0.58490   0.01267  Uiso   1.00
H26    H     0.83538   0.74077   0.52810   0.01267  Uiso   1.00
H27    H     0.91120   0.76348   0.54431   0.01267  Uiso   1.00
H28    H     0.87859   0.80772   0.52957   0.01267  Uiso   1.00
C25    C     0.93929   0.95686   0.56715   0.01267  Uiso   1.00
C26    C     0.92090   0.92540   0.59410   0.01267  Uiso   1.00
C27    C     0.95440   0.90570   0.61630   0.01267  Uiso   1.00
C28    C     0.99990   0.91530   0.61020   0.01267  Uiso   1.00
C29    C     0.01288   0.94360   0.58628   0.01267  Uiso   1.00
C30    C     0.93420   0.87110   0.64230   0.01267  Uiso   1.00
C31    C     0.90100   0.81310   0.61170   0.01267  Uiso   1.00
C32    C     0.88040   0.77940   0.55000   0.01267  Uiso   1.00
N4     N     0.98262   0.96418   0.56024   0.01267  Uiso   1.00
H29    H     0.06299   0.58566   0.13588   0.01267  Uiso   1.00
H30    H     0.03863   0.62038   0.21622   0.01267  Uiso   1.00
H31    H     0.86918   0.47139   0.09819   0.01267  Uiso   1.00
H32    H     0.89995   0.44524   0.03014   0.01267  Uiso   1.00
H33    H     0.85293   0.58772   0.13206   0.01267  Uiso   1.00
H34    H     0.93047   0.62337   0.15253   0.01267  Uiso   1.00
H35    H     0.90340   0.66374   0.19222   0.01267  Uiso   1.00
C33    C     0.01757   0.56071   0.12786   0.01267  Uiso   1.00
C34    C     0.00450   0.57910   0.17320   0.01267  Uiso   1.00
C35    C     0.95130   0.54560   0.16190   0.01267  Uiso   1.00
C36    C     0.91540   0.50010   0.11030   0.01267  Uiso   1.00
C37    C     0.93072   0.48712   0.07340   0.01267  Uiso   1.00
C38    C     0.93690   0.56580   0.20810   0.01267  Uiso   1.00
C39    C     0.91210   0.59900   0.21070   0.01267  Uiso   1.00
C40    C     0.89900   0.61960   0.16960   0.01267  Uiso   1.00
N5     N     0.98156   0.51738   0.07762   0.01267  Uiso   1.00
H36    H     0.43701   0.57290   0.52267   0.01267  Uiso   1.00
H37    H     0.46137   0.67759   0.58175   0.01267  Uiso   1.00
H38    H     0.63082   0.72901   0.60221   0.01267  Uiso   1.00
H39    H     0.60005   0.63020   0.54529   0.01267  Uiso   1.00
H40    H     0.63924   0.76512   0.72126   0.01267  Uiso   1.00
H41    H     0.56172   0.72641   0.70006   0.01267  Uiso   1.00
H42    H     0.61224   0.79848   0.76670   0.01267  Uiso   1.00
C41    C     0.48243   0.61029   0.54314   0.01267  Uiso   1.00
C42    C     0.49550   0.66870   0.57460   0.01267  Uiso   1.00
C43    C     0.54870   0.71060   0.59430   0.01267  Uiso   1.00
C44    C     0.58460   0.69490   0.58470   0.01267  Uiso   1.00
C45    C     0.56928   0.64268   0.55640   0.01267  Uiso   1.00
C46    C     0.56310   0.77120   0.62890   0.01267  Uiso   1.00
C47    C     0.58790   0.79860   0.68690   0.01267  Uiso   1.00
C48    C     0.60100   0.77060   0.72060   0.01267  Uiso   1.00
N6     N     0.51844   0.59606   0.53582   0.01267  Uiso   1.00
H43    H     0.94978   0.92710   0.36412   0.01267  Uiso   1.00
H44    H     0.90416   0.82241   0.28378   0.01267  Uiso   1.00
H45    H     0.87320   0.77099   0.40181   0.01267  Uiso   1.00
H46    H     0.91510   0.86980   0.46986   0.01267  Uiso   1.00
H47    H     0.97131   0.71039   0.30807   0.01267  Uiso   1.00
H48    H     0.95566   0.72181   0.36848   0.01267  Uiso   1.00
H49    H     0.97106   0.77779   0.34663   0.01267  Uiso   1.00
C49    C     0.93285   0.88971   0.37214   0.01267  Uiso   1.00
C50    C     0.90590   0.83130   0.32680   0.01267  Uiso   1.00
C51    C     0.88370   0.78940   0.33810   0.01267  Uiso   1.00
C52    C     0.88980   0.80510   0.38970   0.01267  Uiso   1.00
C53    C     0.91372   0.85732   0.42660   0.01267  Uiso   1.00
C54    C     0.85770   0.72880   0.29190   0.01267  Uiso   1.00
C55    C     0.88830   0.70140   0.28930   0.01267  Uiso   1.00
C56    C     0.95000   0.72940   0.33040   0.01267  Uiso   1.00
N7     N     0.93976   0.90394   0.42238   0.01267  Uiso   1.00
H50    H     0.55022   0.91434   0.97733   0.01267  Uiso   1.00
H51    H     0.59584   0.87962   0.91825   0.01267  Uiso   1.00
H52    H     0.62680   0.02861   0.89779   0.01267  Uiso   1.00
H53    H     0.58490   0.05476   0.95471   0.01267  Uiso   1.00
H54    H     0.52398   0.84380   0.78444   0.01267  Uiso   1.00
H55    H     0.53672   0.86397   0.73188   0.01267  Uiso   1.00
H56    H     0.54128   0.91740   0.79565   0.01267  Uiso   1.00
C57    C     0.56715   0.93929   0.95686   0.01267  Uiso   1.00
C58    C     0.59410   0.92090   0.92540   0.01267  Uiso   1.00
C59    C     0.61630   0.95440   0.90570   0.01267  Uiso   1.00
C60    C     0.61020   0.99990   0.91530   0.01267  Uiso   1.00
C61    C     0.58628   0.01288   0.94360   0.01267  Uiso   1.00
C62    C     0.64230   0.93420   0.87110   0.01267  Uiso   1.00
C63    C     0.61170   0.90100   0.81310   0.01267  Uiso   1.00
C64    C     0.55000   0.88040   0.77940   0.01267  Uiso   1.00
N8     N     0.56024   0.98262   0.96418   0.01267  Uiso   1.00
H57    H     0.13588   0.06299   0.58566   0.01267  Uiso   1.00
H58    H     0.21622   0.03863   0.62038   0.01267  Uiso   1.00
H59    H     0.09819   0.86918   0.47139   0.01267  Uiso   1.00
H60    H     0.03014   0.89995   0.44524   0.01267  Uiso   1.00
H61    H     0.18599   0.88726   0.65410   0.01267  Uiso   1.00
H62    H     0.12575   0.86109   0.58193   0.01267  Uiso   1.00
H63    H     0.16507   0.93845   0.63881   0.01267  Uiso   1.00
C65    C     0.12786   0.01757   0.56071   0.01267  Uiso   1.00
C66    C     0.17320   0.00450   0.57910   0.01267  Uiso   1.00
C67    C     0.16190   0.95130   0.54560   0.01267  Uiso   1.00
C68    C     0.11030   0.91540   0.50010   0.01267  Uiso   1.00
C69    C     0.07340   0.93072   0.48712   0.01267  Uiso   1.00
C70    C     0.20810   0.93690   0.56580   0.01267  Uiso   1.00
C71    C     0.21070   0.91210   0.59900   0.01267  Uiso   1.00
C72    C     0.16960   0.89900   0.61960   0.01267  Uiso   1.00
N9     N     0.07762   0.98156   0.51738   0.01267  Uiso   1.00
H64    H     0.52267   0.43701   0.57290   0.01267  Uiso   1.00
H65    H     0.58175   0.46137   0.67759   0.01267  Uiso   1.00
H66    H     0.60221   0.63082   0.72901   0.01267  Uiso   1.00
H67    H     0.54529   0.60005   0.63020   0.01267  Uiso   1.00
H68    H     0.69252   0.57032   0.72193   0.01267  Uiso   1.00
H69    H     0.75969   0.59541   0.78794   0.01267  Uiso   1.00
H70    H     0.73582   0.64747   0.78014   0.01267  Uiso   1.00
C73    C     0.54314   0.48243   0.61029   0.01267  Uiso   1.00
C74    C     0.57460   0.49550   0.66870   0.01267  Uiso   1.00
C75    C     0.59430   0.54870   0.71060   0.01267  Uiso   1.00
C76    C     0.58470   0.58460   0.69490   0.01267  Uiso   1.00
C77    C     0.55640   0.56928   0.64268   0.01267  Uiso   1.00
C78    C     0.62890   0.56310   0.77120   0.01267  Uiso   1.00
C79    C     0.68690   0.58790   0.79860   0.01267  Uiso   1.00
C80    C     0.72060   0.60100   0.77060   0.01267  Uiso   1.00
N10    N     0.53582   0.51844   0.59606   0.01267  Uiso   1.00
H71    H     0.36412   0.94978   0.92710   0.01267  Uiso   1.00
H72    H     0.28378   0.90416   0.82241   0.01267  Uiso   1.00
H73    H     0.40181   0.87320   0.77099   0.01267  Uiso   1.00
H74    H     0.46986   0.91510   0.86980   0.01267  Uiso   1.00
H75    H     0.30828   0.97116   0.70987   0.01267  Uiso   1.00
H76    H     0.36884   0.95566   0.72244   0.01267  Uiso   1.00
H77    H     0.34606   0.97121   0.77768   0.01267  Uiso   1.00
C81    C     0.37214   0.93285   0.88971   0.01267  Uiso   1.00
C82    C     0.32680   0.90590   0.83130   0.01267  Uiso   1.00
C83    C     0.33810   0.88370   0.78940   0.01267  Uiso   1.00
C84    C     0.38970   0.88980   0.80510   0.01267  Uiso   1.00
C85    C     0.42660   0.91372   0.85732   0.01267  Uiso   1.00
C86    C     0.29190   0.85770   0.72880   0.01267  Uiso   1.00
C87    C     0.28930   0.88830   0.70140   0.01267  Uiso   1.00
C88    C     0.33040   0.95000   0.72940   0.01267  Uiso   1.00
N11    N     0.42238   0.93976   0.90394   0.01267  Uiso   1.00
H78    H     0.97733   0.55022   0.91434   0.01267  Uiso   1.00
H79    H     0.91825   0.59584   0.87962   0.01267  Uiso   1.00
H80    H     0.89779   0.62680   0.02861   0.01267  Uiso   1.00
H81    H     0.95471   0.58490   0.05476   0.01267  Uiso   1.00
H82    H     0.80152   0.52679   0.86429   0.01267  Uiso   1.00
H83    H     0.73414   0.53115   0.84356   0.01267  Uiso   1.00
H84    H     0.77631   0.54403   0.91731   0.01267  Uiso   1.00
C89    C     0.95686   0.56715   0.93929   0.01267  Uiso   1.00
C90    C     0.92540   0.59410   0.92090   0.01267  Uiso   1.00
C91    C     0.90570   0.61630   0.95440   0.01267  Uiso   1.00
C92    C     0.91530   0.61020   0.99990   0.01267  Uiso   1.00
C93    C     0.94360   0.58628   0.01288   0.01267  Uiso   1.00
C94    C     0.87110   0.64230   0.93420   0.01267  Uiso   1.00
C95    C     0.81310   0.61170   0.90100   0.01267  Uiso   1.00
C96    C     0.77940   0.55000   0.88040   0.01267  Uiso   1.00
N12    N     0.96418   0.56024   0.98262   0.01267  Uiso   1.00
H85    H     0.97733   0.92710   0.06299   0.01267  Uiso   1.00
H86    H     0.91825   0.82241   0.03863   0.01267  Uiso   1.00
H87    H     0.89779   0.77099   0.86918   0.01267  Uiso   1.00
H88    H     0.95471   0.86980   0.89995   0.01267  Uiso   1.00
H89    H     0.73384   0.69526   0.86152   0.01267  Uiso   1.00
H90    H     0.80100   0.76127   0.88662   0.01267  Uiso   1.00
H91    H     0.77713   0.75347   0.93867   0.01267  Uiso   1.00
C97    C     0.95686   0.88971   0.01757   0.01267  Uiso   1.00
C98    C     0.92540   0.83130   0.00450   0.01267  Uiso   1.00
C99    C     0.90570   0.78940   0.95130   0.01267  Uiso   1.00
C100   C     0.91530   0.80510   0.91540   0.01267  Uiso   1.00
C101   C     0.94360   0.85732   0.93072   0.01267  Uiso   1.00
C102   C     0.87110   0.72880   0.93690   0.01267  Uiso   1.00
C103   C     0.81310   0.70140   0.91210   0.01267  Uiso   1.00
C104   C     0.77940   0.72940   0.89900   0.01267  Uiso   1.00
N13    N     0.96418   0.90394   0.98156   0.01267  Uiso   1.00
H92    H     0.36412   0.91434   0.43701   0.01267  Uiso   1.00
H93    H     0.28378   0.87962   0.46137   0.01267  Uiso   1.00
H94    H     0.40181   0.02861   0.63082   0.01267  Uiso   1.00
H95    H     0.46986   0.05476   0.60005   0.01267  Uiso   1.00
H96    H     0.36812   0.90421   0.59606   0.01267  Uiso   1.00
H97    H     0.30787   0.83204   0.56988   0.01267  Uiso   1.00
H98    H     0.34720   0.88892   0.64725   0.01267  Uiso   1.00
C105   C     0.37214   0.93929   0.48243   0.01267  Uiso   1.00
C106   C     0.32680   0.92090   0.49550   0.01267  Uiso   1.00
C107   C     0.33810   0.95440   0.54870   0.01267  Uiso   1.00
C108   C     0.38970   0.99990   0.58460   0.01267  Uiso   1.00
C109   C     0.42660   0.01288   0.56928   0.01267  Uiso   1.00
C110   C     0.29190   0.93420   0.56310   0.01267  Uiso   1.00
C111   C     0.28930   0.90100   0.58790   0.01267  Uiso   1.00
C112   C     0.33040   0.88040   0.60100   0.01267  Uiso   1.00
N14    N     0.42238   0.98262   0.51844   0.01267  Uiso   1.00
H99    H     0.52267   0.58566   0.94978   0.01267  Uiso   1.00
H100   H     0.58175   0.62038   0.90416   0.01267  Uiso   1.00
H101   H     0.60221   0.47139   0.87320   0.01267  Uiso   1.00
H102   H     0.54529   0.44524   0.91510   0.01267  Uiso   1.00
H103   H     0.76021   0.61418   0.95881   0.01267  Uiso   1.00
H104   H     0.69282   0.59345   0.96317   0.01267  Uiso   1.00
H105   H     0.73500   0.66720   0.97605   0.01267  Uiso   1.00
C113   C     0.54314   0.56071   0.93285   0.01267  Uiso   1.00
C114   C     0.57460   0.57910   0.90590   0.01267  Uiso   1.00
C115   C     0.59430   0.54560   0.88370   0.01267  Uiso   1.00
C116   C     0.58470   0.50010   0.88980   0.01267  Uiso   1.00
C117   C     0.55640   0.48712   0.91372   0.01267  Uiso   1.00
C118   C     0.62890   0.56580   0.85770   0.01267  Uiso   1.00
C119   C     0.68690   0.59900   0.88830   0.01267  Uiso   1.00
C120   C     0.72060   0.61960   0.95000   0.01267  Uiso   1.00
N15    N     0.53582   0.51738   0.93976   0.01267  Uiso   1.00
H106   H     0.13588   0.57290   0.55022   0.01267  Uiso   1.00
H107   H     0.21622   0.67759   0.59584   0.01267  Uiso   1.00
H108   H     0.09819   0.72901   0.62680   0.01267  Uiso   1.00
H109   H     0.03014   0.63020   0.58490   0.01267  Uiso   1.00
H110   H     0.12616   0.73654   0.53914   0.01267  Uiso   1.00
H111   H     0.18672   0.74911   0.52364   0.01267  Uiso   1.00
H112   H     0.16394   0.80435   0.53919   0.01267  Uiso   1.00
C121   C     0.12786   0.61029   0.56715   0.01267  Uiso   1.00
C122   C     0.17320   0.66870   0.59410   0.01267  Uiso   1.00
C123   C     0.16190   0.71060   0.61630   0.01267  Uiso   1.00
C124   C     0.11030   0.69490   0.61020   0.01267  Uiso   1.00
C125   C     0.07340   0.64268   0.58628   0.01267  Uiso   1.00
C126   C     0.20810   0.77120   0.64230   0.01267  Uiso   1.00
C127   C     0.21070   0.79860   0.61170   0.01267  Uiso   1.00
C128   C     0.16960   0.77060   0.55000   0.01267  Uiso   1.00
N16    N     0.07762   0.59606   0.56024   0.01267  Uiso   1.00
H113   H     0.57290   0.55022   0.13588   0.01267  Uiso   1.00
H114   H     0.67759   0.59584   0.21622   0.01267  Uiso   1.00
H115   H     0.72901   0.62680   0.09819   0.01267  Uiso   1.00
H116   H     0.63020   0.58490   0.03014   0.01267  Uiso   1.00
H117   H     0.79800   0.54235   0.14949   0.01267  Uiso   1.00
H118   H     0.72600   0.53511   0.13418   0.01267  Uiso   1.00
H119   H     0.76601   0.52452   0.19313   0.01267  Uiso   1.00
C129   C     0.61029   0.56715   0.12786   0.01267  Uiso   1.00
C130   C     0.66870   0.59410   0.17320   0.01267  Uiso   1.00
C131   C     0.71060   0.61630   0.16190   0.01267  Uiso   1.00
C132   C     0.69490   0.61020   0.11030   0.01267  Uiso   1.00
C133   C     0.64268   0.58628   0.07340   0.01267  Uiso   1.00
C134   C     0.77120   0.64230   0.20810   0.01267  Uiso   1.00
C135   C     0.79860   0.61170   0.21070   0.01267  Uiso   1.00
C136   C     0.77060   0.55000   0.16960   0.01267  Uiso   1.00
N17    N     0.59606   0.56024   0.07762   0.01267  Uiso   1.00
H120   H     0.58566   0.94978   0.52267   0.01267  Uiso   1.00
H121   H     0.62038   0.90416   0.58175   0.01267  Uiso   1.00
H122   H     0.47139   0.87320   0.60221   0.01267  Uiso   1.00
H123   H     0.44524   0.91510   0.54529   0.01267  Uiso   1.00
H124   H     0.58527   0.96011   0.69946   0.01267  Uiso   1.00
H125   H     0.66109   0.97632   0.72216   0.01267  Uiso   1.00
H126   H     0.62848   0.96159   0.76641   0.01267  Uiso   1.00
C137   C     0.56071   0.93285   0.54314   0.01267  Uiso   1.00
C138   C     0.57910   0.90590   0.57460   0.01267  Uiso   1.00
C139   C     0.54560   0.88370   0.59430   0.01267  Uiso   1.00
C140   C     0.50010   0.88980   0.58470   0.01267  Uiso   1.00
C141   C     0.48712   0.91372   0.55640   0.01267  Uiso   1.00
C142   C     0.56580   0.85770   0.62890   0.01267  Uiso   1.00
C143   C     0.59900   0.88830   0.68690   0.01267  Uiso   1.00
C144   C     0.61960   0.95000   0.72060   0.01267  Uiso   1.00
N18    N     0.51738   0.93976   0.53582   0.01267  Uiso   1.00
H127   H     0.91434   0.43701   0.36412   0.01267  Uiso   1.00
H128   H     0.87962   0.46137   0.28378   0.01267  Uiso   1.00
H129   H     0.02861   0.63082   0.40181   0.01267  Uiso   1.00
H130   H     0.05476   0.60005   0.46986   0.01267  Uiso   1.00
H131   H     0.91098   0.60655   0.37261   0.01267  Uiso   1.00
H132   H     0.83522   0.56402   0.31154   0.01267  Uiso   1.00
H133   H     0.87897   0.64263   0.33904   0.01267  Uiso   1.00
C145   C     0.93929   0.48243   0.37214   0.01267  Uiso   1.00
C146   C     0.92090   0.49550   0.32680   0.01267  Uiso   1.00
C147   C     0.95440   0.54870   0.33810   0.01267  Uiso   1.00
C148   C     0.99990   0.58460   0.38970   0.01267  Uiso   1.00
C149   C     0.01288   0.56928   0.42660   0.01267  Uiso   1.00
C150   C     0.93420   0.56310   0.29190   0.01267  Uiso   1.00
C151   C     0.90100   0.58790   0.28930   0.01267  Uiso   1.00
C152   C     0.88040   0.60100   0.33040   0.01267  Uiso   1.00
N19    N     0.98262   0.51844   0.42238   0.01267  Uiso   1.00
H134   H     0.92710   0.06299   0.97733   0.01267  Uiso   1.00
H135   H     0.82241   0.03863   0.91825   0.01267  Uiso   1.00
H136   H     0.77099   0.86918   0.89779   0.01267  Uiso   1.00
H137   H     0.86980   0.89995   0.95471   0.01267  Uiso   1.00
H138   H     0.69913   0.85345   0.74054   0.01267  Uiso   1.00
H139   H     0.77107   0.90199   0.80760   0.01267  Uiso   1.00
H140   H     0.73980   0.93137   0.76383   0.01267  Uiso   1.00
C153   C     0.88971   0.01757   0.95686   0.01267  Uiso   1.00
C154   C     0.83130   0.00450   0.92540   0.01267  Uiso   1.00
C155   C     0.78940   0.95130   0.90570   0.01267  Uiso   1.00
C156   C     0.80510   0.91540   0.91530   0.01267  Uiso   1.00
C157   C     0.85732   0.93072   0.94360   0.01267  Uiso   1.00
C158   C     0.72880   0.93690   0.87110   0.01267  Uiso   1.00
C159   C     0.70140   0.91210   0.81310   0.01267  Uiso   1.00
C160   C     0.72940   0.89900   0.77940   0.01267  Uiso   1.00
N20    N     0.90394   0.98156   0.96418   0.01267  Uiso   1.00
H141   H     0.94978   0.52267   0.58566   0.01267  Uiso   1.00
H142   H     0.90416   0.58175   0.62038   0.01267  Uiso   1.00
H143   H     0.87320   0.60221   0.47139   0.01267  Uiso   1.00
H144   H     0.91510   0.54529   0.44524   0.01267  Uiso   1.00
H145   H     0.95600   0.74313   0.59369   0.01267  Uiso   1.00
H146   H     0.96873   0.69057   0.61386   0.01267  Uiso   1.00
H147   H     0.97329   0.75433   0.66729   0.01267  Uiso   1.00
C161   C     0.93285   0.54314   0.56071   0.01267  Uiso   1.00
C162   C     0.90590   0.57460   0.57910   0.01267  Uiso   1.00
C163   C     0.88370   0.59430   0.54560   0.01267  Uiso   1.00
C164   C     0.88980   0.58470   0.50010   0.01267  Uiso   1.00
C165   C     0.91372   0.55640   0.48712   0.01267  Uiso   1.00
C166   C     0.85770   0.62890   0.56580   0.01267  Uiso   1.00
C167   C     0.88830   0.68690   0.59900   0.01267  Uiso   1.00
C168   C     0.95000   0.72060   0.61960   0.01267  Uiso   1.00
N21    N     0.93976   0.53582   0.51738   0.01267  Uiso   1.00
H148   H     0.55022   0.13588   0.57290   0.01267  Uiso   1.00
H149   H     0.59584   0.21622   0.67759   0.01267  Uiso   1.00
H150   H     0.62680   0.09819   0.72901   0.01267  Uiso   1.00
H151   H     0.58490   0.03014   0.63020   0.01267  Uiso   1.00
H152   H     0.53929   0.12595   0.73707   0.01267  Uiso   1.00
H153   H     0.52364   0.18636   0.74848   0.01267  Uiso   1.00
H154   H     0.53904   0.16451   0.80446   0.01267  Uiso   1.00
C169   C     0.56715   0.12786   0.61029   0.01267  Uiso   1.00
C170   C     0.59410   0.17320   0.66870   0.01267  Uiso   1.00
C171   C     0.61630   0.16190   0.71060   0.01267  Uiso   1.00
C172   C     0.61020   0.11030   0.69490   0.01267  Uiso   1.00
C173   C     0.58628   0.07340   0.64268   0.01267  Uiso   1.00
C174   C     0.64230   0.20810   0.77120   0.01267  Uiso   1.00
C175   C     0.61170   0.21070   0.79860   0.01267  Uiso   1.00
C176   C     0.55000   0.16960   0.77060   0.01267  Uiso   1.00
N22    N     0.56024   0.07762   0.59606   0.01267  Uiso   1.00
H155   H     0.06299   0.97733   0.92710   0.01267  Uiso   1.00
H156   H     0.03863   0.91825   0.82241   0.01267  Uiso   1.00
H157   H     0.86918   0.89779   0.77099   0.01267  Uiso   1.00
H158   H     0.89995   0.95471   0.86980   0.01267  Uiso   1.00
H159   H     0.93044   0.76258   0.73845   0.01267  Uiso   1.00
H160   H     0.85292   0.74138   0.69973   0.01267  Uiso   1.00
H161   H     0.90345   0.80802   0.77181   0.01267  Uiso   1.00
C177   C     0.01757   0.95686   0.88971   0.01267  Uiso   1.00
C178   C     0.00450   0.92540   0.83130   0.01267  Uiso   1.00
C179   C     0.95130   0.90570   0.78940   0.01267  Uiso   1.00
C180   C     0.91540   0.91530   0.80510   0.01267  Uiso   1.00
C181   C     0.93072   0.94360   0.85732   0.01267  Uiso   1.00
C182   C     0.93690   0.87110   0.72880   0.01267  Uiso   1.00
C183   C     0.91210   0.81310   0.70140   0.01267  Uiso   1.00
C184   C     0.89900   0.77940   0.72940   0.01267  Uiso   1.00
N23    N     0.98156   0.96418   0.90394   0.01267  Uiso   1.00
H162   H     0.43701   0.36412   0.91434   0.01267  Uiso   1.00
H163   H     0.46137   0.28378   0.87962   0.01267  Uiso   1.00
H164   H     0.63082   0.40181   0.02861   0.01267  Uiso   1.00
H165   H     0.60005   0.46986   0.05476   0.01267  Uiso   1.00
H166   H     0.56173   0.31419   0.83783   0.01267  Uiso   1.00
H167   H     0.63927   0.33466   0.87348   0.01267  Uiso   1.00
H168   H     0.61220   0.37435   0.91385   0.01267  Uiso   1.00
C185   C     0.48243   0.37214   0.93929   0.01267  Uiso   1.00
C186   C     0.49550   0.32680   0.92090   0.01267  Uiso   1.00
C187   C     0.54870   0.33810   0.95440   0.01267  Uiso   1.00
C188   C     0.58460   0.38970   0.99990   0.01267  Uiso   1.00
C189   C     0.56928   0.42660   0.01288   0.01267  Uiso   1.00
C190   C     0.56310   0.29190   0.93420   0.01267  Uiso   1.00
C191   C     0.58790   0.28930   0.90100   0.01267  Uiso   1.00
C192   C     0.60100   0.33040   0.88040   0.01267  Uiso   1.00
N24    N     0.51844   0.42238   0.98262   0.01267  Uiso   1.00
H169   H     0.41434   0.86412   0.93701   0.01267  Uiso   1.00
H170   H     0.37962   0.78378   0.96137   0.01267  Uiso   1.00
H171   H     0.52861   0.90181   0.13082   0.01267  Uiso   1.00
H172   H     0.55476   0.96986   0.10005   0.01267  Uiso   1.00
H173   H     0.33522   0.81154   0.06402   0.01267  Uiso   1.00
H174   H     0.41098   0.87261   0.10655   0.01267  Uiso   1.00
H175   H     0.37897   0.83904   0.14263   0.01267  Uiso   1.00
C193   C     0.43929   0.87214   0.98243   0.01267  Uiso   1.00
C194   C     0.42090   0.82680   0.99550   0.01267  Uiso   1.00
C195   C     0.45440   0.83810   0.04870   0.01267  Uiso   1.00
C196   C     0.49990   0.88970   0.08460   0.01267  Uiso   1.00
C197   C     0.51288   0.92660   0.06928   0.01267  Uiso   1.00
C198   C     0.43420   0.79190   0.06310   0.01267  Uiso   1.00
C199   C     0.40100   0.78930   0.08790   0.01267  Uiso   1.00
C200   C     0.38040   0.83040   0.10100   0.01267  Uiso   1.00
N25    N     0.48262   0.92238   0.01844   0.01267  Uiso   1.00
H176   H     0.42710   0.47733   0.56299   0.01267  Uiso   1.00
H177   H     0.32241   0.41825   0.53863   0.01267  Uiso   1.00
H178   H     0.27099   0.39779   0.36918   0.01267  Uiso   1.00
H179   H     0.36980   0.45471   0.39995   0.01267  Uiso   1.00
H180   H     0.27107   0.30760   0.40199   0.01267  Uiso   1.00
H181   H     0.19913   0.24054   0.35345   0.01267  Uiso   1.00
H182   H     0.23980   0.26383   0.43137   0.01267  Uiso   1.00
C201   C     0.38971   0.45686   0.51757   0.01267  Uiso   1.00
C202   C     0.33130   0.42540   0.50450   0.01267  Uiso   1.00
C203   C     0.28940   0.40570   0.45130   0.01267  Uiso   1.00
C204   C     0.30510   0.41530   0.41540   0.01267  Uiso   1.00
C205   C     0.35732   0.44360   0.43072   0.01267  Uiso   1.00
C206   C     0.22880   0.37110   0.43690   0.01267  Uiso   1.00
C207   C     0.20140   0.31310   0.41210   0.01267  Uiso   1.00
C208   C     0.22940   0.27940   0.39900   0.01267  Uiso   1.00
N26    N     0.40394   0.46418   0.48156   0.01267  Uiso   1.00
H183   H     0.07290   0.63588   0.05022   0.01267  Uiso   1.00
H184   H     0.17759   0.71622   0.09584   0.01267  Uiso   1.00
H185   H     0.22901   0.59819   0.12680   0.01267  Uiso   1.00
H186   H     0.13020   0.53014   0.08490   0.01267  Uiso   1.00
H187   H     0.22600   0.63418   0.03511   0.01267  Uiso   1.00
H188   H     0.29800   0.64949   0.04235   0.01267  Uiso   1.00
H189   H     0.26601   0.69313   0.02452   0.01267  Uiso   1.00
C209   C     0.11029   0.62786   0.06715   0.01267  Uiso   1.00
C210   C     0.16870   0.67320   0.09410   0.01267  Uiso   1.00
C211   C     0.21060   0.66190   0.11630   0.01267  Uiso   1.00
C212   C     0.19490   0.61030   0.11020   0.01267  Uiso   1.00
C213   C     0.14268   0.57340   0.08628   0.01267  Uiso   1.00
C214   C     0.27120   0.70810   0.14230   0.01267  Uiso   1.00
C215   C     0.29860   0.71070   0.11170   0.01267  Uiso   1.00
C216   C     0.27060   0.66960   0.05000   0.01267  Uiso   1.00
N27    N     0.09606   0.57762   0.06024   0.01267  Uiso   1.00
H190   H     0.08566   0.02267   0.44978   0.01267  Uiso   1.00
H191   H     0.12038   0.08175   0.40416   0.01267  Uiso   1.00
H192   H     0.97139   0.10221   0.37320   0.01267  Uiso   1.00
H193   H     0.94524   0.04529   0.41510   0.01267  Uiso   1.00
H194   H     0.16109   0.22216   0.47632   0.01267  Uiso   1.00
H195   H     0.08527   0.19946   0.46011   0.01267  Uiso   1.00
H196   H     0.12848   0.26641   0.46159   0.01267  Uiso   1.00
C217   C     0.06071   0.04314   0.43285   0.01267  Uiso   1.00
C218   C     0.07910   0.07460   0.40590   0.01267  Uiso   1.00
C219   C     0.04560   0.09430   0.38370   0.01267  Uiso   1.00
C220   C     0.00010   0.08470   0.38980   0.01267  Uiso   1.00
C221   C     0.98712   0.05640   0.41372   0.01267  Uiso   1.00
C222   C     0.06580   0.12890   0.35770   0.01267  Uiso   1.00
C223   C     0.09900   0.18690   0.38830   0.01267  Uiso   1.00
C224   C     0.11960   0.22060   0.45000   0.01267  Uiso   1.00
N28    N     0.01738   0.03582   0.43976   0.01267  Uiso   1.00
H197   H     0.93701   0.41434   0.86412   0.01267  Uiso   1.00
H198   H     0.96137   0.37962   0.78378   0.01267  Uiso   1.00
H199   H     0.13082   0.52861   0.90181   0.01267  Uiso   1.00
H200   H     0.10005   0.55476   0.96986   0.01267  Uiso   1.00
H201   H     0.13927   0.37348   0.83466   0.01267  Uiso   1.00
H202   H     0.06173   0.33783   0.81419   0.01267  Uiso   1.00
H203   H     0.11220   0.41385   0.87435   0.01267  Uiso   1.00
C225   C     0.98243   0.43929   0.87214   0.01267  Uiso   1.00
C226   C     0.99550   0.42090   0.82680   0.01267  Uiso   1.00
C227   C     0.04870   0.45440   0.83810   0.01267  Uiso   1.00
C228   C     0.08460   0.49990   0.88970   0.01267  Uiso   1.00
C229   C     0.06928   0.51288   0.92660   0.01267  Uiso   1.00
C230   C     0.06310   0.43420   0.79190   0.01267  Uiso   1.00
C231   C     0.08790   0.40100   0.78930   0.01267  Uiso   1.00
C232   C     0.10100   0.38040   0.83040   0.01267  Uiso   1.00
N29    N     0.01844   0.48262   0.92238   0.01267  Uiso   1.00
H204   H     0.56299   0.42710   0.47733   0.01267  Uiso   1.00
H205   H     0.53863   0.32241   0.41825   0.01267  Uiso   1.00
H206   H     0.36918   0.27099   0.39779   0.01267  Uiso   1.00
H207   H     0.39995   0.36980   0.45471   0.01267  Uiso   1.00
H208   H     0.35292   0.19973   0.24138   0.01267  Uiso   1.00
H209   H     0.43044   0.23845   0.26258   0.01267  Uiso   1.00
H210   H     0.40345   0.27181   0.30802   0.01267  Uiso   1.00
C233   C     0.51757   0.38971   0.45686   0.01267  Uiso   1.00
C234   C     0.50450   0.33130   0.42540   0.01267  Uiso   1.00
C235   C     0.45130   0.28940   0.40570   0.01267  Uiso   1.00
C236   C     0.41540   0.30510   0.41530   0.01267  Uiso   1.00
C237   C     0.43072   0.35732   0.44360   0.01267  Uiso   1.00
C238   C     0.43690   0.22880   0.37110   0.01267  Uiso   1.00
C239   C     0.41210   0.20140   0.31310   0.01267  Uiso   1.00
C240   C     0.39900   0.22940   0.27940   0.01267  Uiso   1.00
N30    N     0.48156   0.40394   0.46418   0.01267  Uiso   1.00
H211   H     0.05022   0.07290   0.63588   0.01267  Uiso   1.00
H212   H     0.09584   0.17759   0.71622   0.01267  Uiso   1.00
H213   H     0.12680   0.22901   0.59819   0.01267  Uiso   1.00
H214   H     0.08490   0.13020   0.53014   0.01267  Uiso   1.00
H215   H     0.02364   0.24848   0.68636   0.01267  Uiso   1.00
H216   H     0.03929   0.23707   0.62595   0.01267  Uiso   1.00
H217   H     0.03904   0.30446   0.66451   0.01267  Uiso   1.00
C241   C     0.06715   0.11029   0.62786   0.01267  Uiso   1.00
C242   C     0.09410   0.16870   0.67320   0.01267  Uiso   1.00
C243   C     0.11630   0.21060   0.66190   0.01267  Uiso   1.00
C244   C     0.11020   0.19490   0.61030   0.01267  Uiso   1.00
C245   C     0.08628   0.14268   0.57340   0.01267  Uiso   1.00
C246   C     0.14230   0.27120   0.70810   0.01267  Uiso   1.00
C247   C     0.11170   0.29860   0.71070   0.01267  Uiso   1.00
C248   C     0.05000   0.27060   0.66960   0.01267  Uiso   1.00
N31    N     0.06024   0.09606   0.57762   0.01267  Uiso   1.00
H218   H     0.44978   0.08566   0.02267   0.01267  Uiso   1.00
H219   H     0.40416   0.12038   0.08175   0.01267  Uiso   1.00
H220   H     0.37320   0.97139   0.10221   0.01267  Uiso   1.00
H221   H     0.41510   0.94524   0.04529   0.01267  Uiso   1.00
H222   H     0.46873   0.11386   0.19057   0.01267  Uiso   1.00
H223   H     0.45600   0.09369   0.24313   0.01267  Uiso   1.00
H224   H     0.47329   0.16729   0.25433   0.01267  Uiso   1.00
C249   C     0.43285   0.06071   0.04314   0.01267  Uiso   1.00
C250   C     0.40590   0.07910   0.07460   0.01267  Uiso   1.00
C251   C     0.38370   0.04560   0.09430   0.01267  Uiso   1.00
C252   C     0.38980   0.00010   0.08470   0.01267  Uiso   1.00
C253   C     0.41372   0.98712   0.05640   0.01267  Uiso   1.00
C254   C     0.35770   0.06580   0.12890   0.01267  Uiso   1.00
C255   C     0.38830   0.09900   0.18690   0.01267  Uiso   1.00
C256   C     0.45000   0.11960   0.22060   0.01267  Uiso   1.00
N32    N     0.43976   0.01738   0.03582   0.01267  Uiso   1.00
H225   H     0.86412   0.93701   0.41434   0.01267  Uiso   1.00
H226   H     0.78378   0.96137   0.37962   0.01267  Uiso   1.00
H227   H     0.90181   0.13082   0.52861   0.01267  Uiso   1.00
H228   H     0.96986   0.10005   0.55476   0.01267  Uiso   1.00
H229   H     0.80787   0.06988   0.33204   0.01267  Uiso   1.00
H230   H     0.86812   0.09606   0.40421   0.01267  Uiso   1.00
H231   H     0.84720   0.14725   0.38892   0.01267  Uiso   1.00
C257   C     0.87214   0.98243   0.43929   0.01267  Uiso   1.00
C258   C     0.82680   0.99550   0.42090   0.01267  Uiso   1.00
C259   C     0.83810   0.04870   0.45440   0.01267  Uiso   1.00
C260   C     0.88970   0.08460   0.49990   0.01267  Uiso   1.00
C261   C     0.92660   0.06928   0.51288   0.01267  Uiso   1.00
C262   C     0.79190   0.06310   0.43420   0.01267  Uiso   1.00
C263   C     0.78930   0.08790   0.40100   0.01267  Uiso   1.00
C264   C     0.83040   0.10100   0.38040   0.01267  Uiso   1.00
N33    N     0.92238   0.01844   0.48262   0.01267  Uiso   1.00
H232   H     0.47733   0.56299   0.42710   0.01267  Uiso   1.00
H233   H     0.41825   0.53863   0.32241   0.01267  Uiso   1.00
H234   H     0.39779   0.36918   0.27099   0.01267  Uiso   1.00
H235   H     0.45471   0.39995   0.36980   0.01267  Uiso   1.00
H236   H     0.30100   0.38662   0.26127   0.01267  Uiso   1.00
H237   H     0.23384   0.36152   0.19526   0.01267  Uiso   1.00
H238   H     0.27713   0.43867   0.25347   0.01267  Uiso   1.00
C265   C     0.45686   0.51757   0.38971   0.01267  Uiso   1.00
C266   C     0.42540   0.50450   0.33130   0.01267  Uiso   1.00
C267   C     0.40570   0.45130   0.28940   0.01267  Uiso   1.00
C268   C     0.41530   0.41540   0.30510   0.01267  Uiso   1.00
C269   C     0.44360   0.43072   0.35732   0.01267  Uiso   1.00
C270   C     0.37110   0.43690   0.22880   0.01267  Uiso   1.00
C271   C     0.31310   0.41210   0.20140   0.01267  Uiso   1.00
C272   C     0.27940   0.39900   0.22940   0.01267  Uiso   1.00
N34    N     0.46418   0.48156   0.40394   0.01267  Uiso   1.00
H239   H     0.63588   0.05022   0.07290   0.01267  Uiso   1.00
H240   H     0.71622   0.09584   0.17759   0.01267  Uiso   1.00
H241   H     0.59819   0.12680   0.22901   0.01267  Uiso   1.00
H242   H     0.53014   0.08490   0.13020   0.01267  Uiso   1.00
H243   H     0.68672   0.02364   0.24911   0.01267  Uiso   1.00
H244   H     0.62616   0.03914   0.23654   0.01267  Uiso   1.00
H245   H     0.66394   0.03919   0.30435   0.01267  Uiso   1.00
C273   C     0.62786   0.06715   0.11029   0.01267  Uiso   1.00
C274   C     0.67320   0.09410   0.16870   0.01267  Uiso   1.00
C275   C     0.66190   0.11630   0.21060   0.01267  Uiso   1.00
C276   C     0.61030   0.11020   0.19490   0.01267  Uiso   1.00
C277   C     0.57340   0.08628   0.14268   0.01267  Uiso   1.00
C278   C     0.70810   0.14230   0.27120   0.01267  Uiso   1.00
C279   C     0.71070   0.11170   0.29860   0.01267  Uiso   1.00
C280   C     0.66960   0.05000   0.27060   0.01267  Uiso   1.00
N35    N     0.57762   0.06024   0.09606   0.01267  Uiso   1.00
H246   H     0.02267   0.44978   0.08566   0.01267  Uiso   1.00
H247   H     0.08175   0.40416   0.12038   0.01267  Uiso   1.00
H248   H     0.10221   0.37320   0.97139   0.01267  Uiso   1.00
H249   H     0.04529   0.41510   0.94524   0.01267  Uiso   1.00
H250   H     0.19282   0.46317   0.09345   0.01267  Uiso   1.00
H251   H     0.26021   0.45881   0.11418   0.01267  Uiso   1.00
H252   H     0.23500   0.47605   0.16720   0.01267  Uiso   1.00
C281   C     0.04314   0.43285   0.06071   0.01267  Uiso   1.00
C282   C     0.07460   0.40590   0.07910   0.01267  Uiso   1.00
C283   C     0.09430   0.38370   0.04560   0.01267  Uiso   1.00
C284   C     0.08470   0.38980   0.00010   0.01267  Uiso   1.00
C285   C     0.05640   0.41372   0.98712   0.01267  Uiso   1.00
C286   C     0.12890   0.35770   0.06580   0.01267  Uiso   1.00
C287   C     0.18690   0.38830   0.09900   0.01267  Uiso   1.00
C288   C     0.22060   0.45000   0.11960   0.01267  Uiso   1.00
N36    N     0.03582   0.43976   0.01738   0.01267  Uiso   1.00
H253   H     0.02267   0.07290   0.93701   0.01267  Uiso   1.00
H254   H     0.08175   0.17759   0.96137   0.01267  Uiso   1.00
H255   H     0.10221   0.22901   0.13082   0.01267  Uiso   1.00
H256   H     0.04529   0.13020   0.10005   0.01267  Uiso   1.00
H257   H     0.25969   0.28794   0.09541   0.01267  Uiso   1.00
H258   H     0.19252   0.22193   0.07032   0.01267  Uiso   1.00
H259   H     0.23582   0.28014   0.14747   0.01267  Uiso   1.00
C289   C     0.04314   0.11029   0.98243   0.01267  Uiso   1.00
C290   C     0.07460   0.16870   0.99550   0.01267  Uiso   1.00
C291   C     0.09430   0.21060   0.04870   0.01267  Uiso   1.00
C292   C     0.08470   0.19490   0.08460   0.01267  Uiso   1.00
C293   C     0.05640   0.14268   0.06928   0.01267  Uiso   1.00
C294   C     0.12890   0.27120   0.06310   0.01267  Uiso   1.00
C295   C     0.18690   0.29860   0.08790   0.01267  Uiso   1.00
C296   C     0.22060   0.27060   0.10100   0.01267  Uiso   1.00
N37    N     0.03582   0.09606   0.01844   0.01267  Uiso   1.00
H260   H     0.63588   0.08566   0.56299   0.01267  Uiso   1.00
H261   H     0.71622   0.12038   0.53863   0.01267  Uiso   1.00
H262   H     0.59819   0.97139   0.36918   0.01267  Uiso   1.00
H263   H     0.53014   0.94524   0.39995   0.01267  Uiso   1.00
H264   H     0.62575   0.08193   0.36109   0.01267  Uiso   1.00
H265   H     0.68599   0.15410   0.38726   0.01267  Uiso   1.00
H266   H     0.66507   0.13881   0.43845   0.01267  Uiso   1.00
C297   C     0.62786   0.06071   0.51757   0.01267  Uiso   1.00
C298   C     0.67320   0.07910   0.50450   0.01267  Uiso   1.00
C299   C     0.66190   0.04560   0.45130   0.01267  Uiso   1.00
C300   C     0.61030   0.00010   0.41540   0.01267  Uiso   1.00
C301   C     0.57340   0.98712   0.43072   0.01267  Uiso   1.00
C302   C     0.70810   0.06580   0.43690   0.01267  Uiso   1.00
C303   C     0.71070   0.09900   0.41210   0.01267  Uiso   1.00
C304   C     0.66960   0.11960   0.39900   0.01267  Uiso   1.00
N38    N     0.57762   0.01738   0.48156   0.01267  Uiso   1.00
H267   H     0.47733   0.41434   0.05022   0.01267  Uiso   1.00
H268   H     0.41825   0.37962   0.09584   0.01267  Uiso   1.00
H269   H     0.39779   0.52861   0.12680   0.01267  Uiso   1.00
H270   H     0.45471   0.55476   0.08490   0.01267  Uiso   1.00
H271   H     0.23414   0.34356   0.03115   0.01267  Uiso   1.00
H272   H     0.30152   0.36429   0.02679   0.01267  Uiso   1.00
H273   H     0.27631   0.41731   0.04403   0.01267  Uiso   1.00
C305   C     0.45686   0.43929   0.06715   0.01267  Uiso   1.00
C306   C     0.42540   0.42090   0.09410   0.01267  Uiso   1.00
C307   C     0.40570   0.45440   0.11630   0.01267  Uiso   1.00
C308   C     0.41530   0.49990   0.11020   0.01267  Uiso   1.00
C309   C     0.44360   0.51288   0.08628   0.01267  Uiso   1.00
C310   C     0.37110   0.43420   0.14230   0.01267  Uiso   1.00
C311   C     0.31310   0.40100   0.11170   0.01267  Uiso   1.00
C312   C     0.27940   0.38040   0.05000   0.01267  Uiso   1.00
N39    N     0.46418   0.48262   0.06024   0.01267  Uiso   1.00
H274   H     0.86412   0.42710   0.44978   0.01267  Uiso   1.00
H275   H     0.78378   0.32241   0.40416   0.01267  Uiso   1.00
H276   H     0.90181   0.27099   0.37320   0.01267  Uiso   1.00
H277   H     0.96986   0.36980   0.41510   0.01267  Uiso   1.00
H278   H     0.86884   0.22244   0.45566   0.01267  Uiso   1.00
H279   H     0.80828   0.20987   0.47116   0.01267  Uiso   1.00
H280   H     0.84606   0.27768   0.47121   0.01267  Uiso   1.00
C313   C     0.87214   0.38971   0.43285   0.01267  Uiso   1.00
C314   C     0.82680   0.33130   0.40590   0.01267  Uiso   1.00
C315   C     0.83810   0.28940   0.38370   0.01267  Uiso   1.00
C316   C     0.88970   0.30510   0.38980   0.01267  Uiso   1.00
C317   C     0.92660   0.35732   0.41372   0.01267  Uiso   1.00
C318   C     0.79190   0.22880   0.35770   0.01267  Uiso   1.00
C319   C     0.78930   0.20140   0.38830   0.01267  Uiso   1.00
C320   C     0.83040   0.22940   0.45000   0.01267  Uiso   1.00
N40    N     0.92238   0.40394   0.43976   0.01267  Uiso   1.00
H281   H     0.42710   0.44978   0.86412   0.01267  Uiso   1.00
H282   H     0.32241   0.40416   0.78378   0.01267  Uiso   1.00
H283   H     0.27099   0.37320   0.90181   0.01267  Uiso   1.00
H284   H     0.36980   0.41510   0.96986   0.01267  Uiso   1.00
H285   H     0.19933   0.46713   0.81631   0.01267  Uiso   1.00
H286   H     0.27132   0.47436   0.83162   0.01267  Uiso   1.00
H287   H     0.23934   0.45654   0.87526   0.01267  Uiso   1.00
C321   C     0.38971   0.43285   0.87214   0.01267  Uiso   1.00
C322   C     0.33130   0.40590   0.82680   0.01267  Uiso   1.00
C323   C     0.28940   0.38370   0.83810   0.01267  Uiso   1.00
C324   C     0.30510   0.38980   0.88970   0.01267  Uiso   1.00
C325   C     0.35732   0.41372   0.92660   0.01267  Uiso   1.00
C326   C     0.22880   0.35770   0.79190   0.01267  Uiso   1.00
C327   C     0.20140   0.38830   0.78930   0.01267  Uiso   1.00
C328   C     0.22940   0.45000   0.83040   0.01267  Uiso   1.00
N41    N     0.40394   0.43976   0.92238   0.01267  Uiso   1.00
H288   H     0.41434   0.05022   0.47733   0.01267  Uiso   1.00
H289   H     0.37962   0.09584   0.41825   0.01267  Uiso   1.00
H290   H     0.52861   0.12680   0.39779   0.01267  Uiso   1.00
H291   H     0.55476   0.08490   0.45471   0.01267  Uiso   1.00
H292   H     0.41120   0.04431   0.26348   0.01267  Uiso   1.00
H293   H     0.33538   0.02810   0.24077   0.01267  Uiso   1.00
H294   H     0.37859   0.02957   0.30772   0.01267  Uiso   1.00
C329   C     0.43929   0.06715   0.45686   0.01267  Uiso   1.00
C330   C     0.42090   0.09410   0.42540   0.01267  Uiso   1.00
C331   C     0.45440   0.11630   0.40570   0.01267  Uiso   1.00
C332   C     0.49990   0.11020   0.41530   0.01267  Uiso   1.00
C333   C     0.51288   0.08628   0.44360   0.01267  Uiso   1.00
C334   C     0.43420   0.14230   0.37110   0.01267  Uiso   1.00
C335   C     0.40100   0.11170   0.31310   0.01267  Uiso   1.00
C336   C     0.38040   0.05000   0.27940   0.01267  Uiso   1.00
N42    N     0.48262   0.06024   0.46418   0.01267  Uiso   1.00
H295   H     0.08566   0.56299   0.63588   0.01267  Uiso   1.00
H296   H     0.12038   0.53863   0.71622   0.01267  Uiso   1.00
H297   H     0.97139   0.36918   0.59819   0.01267  Uiso   1.00
H298   H     0.94524   0.39995   0.53014   0.01267  Uiso   1.00
H299   H     0.08511   0.35522   0.62941   0.01267  Uiso   1.00
H300   H     0.16087   0.39775   0.69049   0.01267  Uiso   1.00
H301   H     0.12886   0.43383   0.65692   0.01267  Uiso   1.00
C337   C     0.06071   0.51757   0.62786   0.01267  Uiso   1.00
C338   C     0.07910   0.50450   0.67320   0.01267  Uiso   1.00
C339   C     0.04560   0.45130   0.66190   0.01267  Uiso   1.00
C340   C     0.00010   0.41540   0.61030   0.01267  Uiso   1.00
C341   C     0.98712   0.43072   0.57340   0.01267  Uiso   1.00
C342   C     0.06580   0.43690   0.70810   0.01267  Uiso   1.00
C343   C     0.09900   0.41210   0.71070   0.01267  Uiso   1.00
C344   C     0.11960   0.39900   0.66960   0.01267  Uiso   1.00
N43    N     0.01738   0.48156   0.57762   0.01267  Uiso   1.00
H302   H     0.07290   0.93701   0.02267   0.01267  Uiso   1.00
H303   H     0.17759   0.96137   0.08175   0.01267  Uiso   1.00
H304   H     0.22901   0.13082   0.10221   0.01267  Uiso   1.00
H305   H     0.13020   0.10005   0.04529   0.01267  Uiso   1.00
H306   H     0.29774   0.11079   0.26629   0.01267  Uiso   1.00
H307   H     0.22580   0.06224   0.19923   0.01267  Uiso   1.00
H308   H     0.26647   0.14016   0.22251   0.01267  Uiso   1.00
C345   C     0.11029   0.98243   0.04314   0.01267  Uiso   1.00
C346   C     0.16870   0.99550   0.07460   0.01267  Uiso   1.00
C347   C     0.21060   0.04870   0.09430   0.01267  Uiso   1.00
C348   C     0.19490   0.08460   0.08470   0.01267  Uiso   1.00
C349   C     0.14268   0.06928   0.05640   0.01267  Uiso   1.00
C350   C     0.27120   0.06310   0.12890   0.01267  Uiso   1.00
C351   C     0.29860   0.08790   0.18690   0.01267  Uiso   1.00
C352   C     0.27060   0.10100   0.22060   0.01267  Uiso   1.00
N44    N     0.09606   0.01844   0.03582   0.01267  Uiso   1.00
H309   H     0.05022   0.47733   0.41434   0.01267  Uiso   1.00
H310   H     0.09584   0.41825   0.37962   0.01267  Uiso   1.00
H311   H     0.12680   0.39779   0.52861   0.01267  Uiso   1.00
H312   H     0.08490   0.45471   0.55476   0.01267  Uiso   1.00
H313   H     0.03672   0.23188   0.36397   0.01267  Uiso   1.00
H314   H     0.02398   0.28444   0.34380   0.01267  Uiso   1.00
H315   H     0.04128   0.29565   0.41740   0.01267  Uiso   1.00
C353   C     0.06715   0.45686   0.43929   0.01267  Uiso   1.00
C354   C     0.09410   0.42540   0.42090   0.01267  Uiso   1.00
C355   C     0.11630   0.40570   0.45440   0.01267  Uiso   1.00
C356   C     0.11020   0.41530   0.49990   0.01267  Uiso   1.00
C357   C     0.08628   0.44360   0.51288   0.01267  Uiso   1.00
C358   C     0.14230   0.37110   0.43420   0.01267  Uiso   1.00
C359   C     0.11170   0.31310   0.40100   0.01267  Uiso   1.00
C360   C     0.05000   0.27940   0.38040   0.01267  Uiso   1.00
N45    N     0.06024   0.46418   0.48262   0.01267  Uiso   1.00
H316   H     0.44978   0.86412   0.42710   0.01267  Uiso   1.00
H317   H     0.40416   0.78378   0.32241   0.01267  Uiso   1.00
H318   H     0.37320   0.90181   0.27099   0.01267  Uiso   1.00
H319   H     0.41510   0.96986   0.36980   0.01267  Uiso   1.00
H320   H     0.45566   0.86848   0.22181   0.01267  Uiso   1.00
H321   H     0.47131   0.80807   0.21039   0.01267  Uiso   1.00
H322   H     0.47106   0.84663   0.27779   0.01267  Uiso   1.00
C361   C     0.43285   0.87214   0.38971   0.01267  Uiso   1.00
C362   C     0.40590   0.82680   0.33130   0.01267  Uiso   1.00
C363   C     0.38370   0.83810   0.28940   0.01267  Uiso   1.00
C364   C     0.38980   0.88970   0.30510   0.01267  Uiso   1.00
C365   C     0.41372   0.92660   0.35732   0.01267  Uiso   1.00
C366   C     0.35770   0.79190   0.22880   0.01267  Uiso   1.00
C367   C     0.38830   0.78930   0.20140   0.01267  Uiso   1.00
C368   C     0.45000   0.83040   0.22940   0.01267  Uiso   1.00
N46    N     0.43976   0.92238   0.40394   0.01267  Uiso   1.00
H323   H     0.93701   0.02267   0.07290   0.01267  Uiso   1.00
H324   H     0.96137   0.08175   0.17759   0.01267  Uiso   1.00
H325   H     0.13082   0.10221   0.22901   0.01267  Uiso   1.00
H326   H     0.10005   0.04529   0.13020   0.01267  Uiso   1.00
H327   H     0.06172   0.20006   0.22641   0.01267  Uiso   1.00
H328   H     0.13924   0.22126   0.26512   0.01267  Uiso   1.00
H329   H     0.11224   0.26670   0.29848   0.01267  Uiso   1.00
C369   C     0.98243   0.04314   0.11029   0.01267  Uiso   1.00
C370   C     0.99550   0.07460   0.16870   0.01267  Uiso   1.00
C371   C     0.04870   0.09430   0.21060   0.01267  Uiso   1.00
C372   C     0.08460   0.08470   0.19490   0.01267  Uiso   1.00
C373   C     0.06928   0.05640   0.14268   0.01267  Uiso   1.00
C374   C     0.06310   0.12890   0.27120   0.01267  Uiso   1.00
C375   C     0.08790   0.18690   0.29860   0.01267  Uiso   1.00
C376   C     0.10100   0.22060   0.27060   0.01267  Uiso   1.00
N47    N     0.01844   0.03582   0.09606   0.01267  Uiso   1.00
H330   H     0.56299   0.63588   0.08566   0.01267  Uiso   1.00
H331   H     0.53863   0.71622   0.12038   0.01267  Uiso   1.00
H332   H     0.36918   0.59819   0.97139   0.01267  Uiso   1.00
H333   H     0.39995   0.53014   0.94524   0.01267  Uiso   1.00
H334   H     0.43047   0.65253   0.12337   0.01267  Uiso   1.00
H335   H     0.35293   0.63206   0.08772   0.01267  Uiso   1.00
H336   H     0.40340   0.69222   0.16374   0.01267  Uiso   1.00
C377   C     0.51757   0.62786   0.06071   0.01267  Uiso   1.00
C378   C     0.50450   0.67320   0.07910   0.01267  Uiso   1.00
C379   C     0.45130   0.66190   0.04560   0.01267  Uiso   1.00
C380   C     0.41540   0.61030   0.00010   0.01267  Uiso   1.00
C381   C     0.43072   0.57340   0.98712   0.01267  Uiso   1.00
C382   C     0.43690   0.70810   0.06580   0.01267  Uiso   1.00
C383   C     0.41210   0.71070   0.09900   0.01267  Uiso   1.00
C384   C     0.39900   0.66960   0.11960   0.01267  Uiso   1.00
N48    N     0.48156   0.57762   0.01738   0.01267  Uiso   1.00
Cd1    Cd    0.50000   0.00000   0.00000   0.01267  Uiso   1.00
Cd2    Cd    0.50000   0.50000   0.50000   0.01267  Uiso   1.00
Cd3    Cd    0.00000   0.50000   0.00000   0.01267  Uiso   1.00
Cd4    Cd    0.00000   0.00000   0.50000   0.01267  Uiso   1.00
Cd5    Cd    0.00000   0.00000   0.00000   0.01267  Uiso   1.00
Cd6    Cd    0.50000   0.00000   0.50000   0.01267  Uiso   1.00
Cd7    Cd    0.50000   0.50000   0.00000   0.01267  Uiso   1.00
Cd8    Cd    0.00000   0.50000   0.50000   0.01267  Uiso   1.00
C385   C     0.51490   0.25000   0.98510   0.01267  Uiso   1.00
C386   C     0.54930   0.25000   0.95070   0.01267  Uiso   1.00
C387   C     0.60760   0.25000   0.89240   0.01267  Uiso   1.00
C388   C     0.76490   0.52980   0.51490   0.01267  Uiso   1.00
C389   C     0.79930   0.59860   0.54930   0.01267  Uiso   1.00
C390   C     0.85760   0.71520   0.60760   0.01267  Uiso   1.00
C391   C     0.73510   0.25000   0.76490   0.01267  Uiso   1.00
C392   C     0.70070   0.25000   0.79930   0.01267  Uiso   1.00
C393   C     0.64240   0.25000   0.85760   0.01267  Uiso   1.00
C394   C     0.98510   0.97020   0.73510   0.01267  Uiso   1.00
C395   C     0.95070   0.90140   0.70070   0.01267  Uiso   1.00
C396   C     0.89240   0.78480   0.64240   0.01267  Uiso   1.00
C397   C     0.98510   0.51490   0.25000   0.01267  Uiso   1.00
C398   C     0.95070   0.54930   0.25000   0.01267  Uiso   1.00
C399   C     0.89240   0.60760   0.25000   0.01267  Uiso   1.00
C400   C     0.51490   0.76490   0.52980   0.01267  Uiso   1.00
C401   C     0.54930   0.79930   0.59860   0.01267  Uiso   1.00
C402   C     0.60760   0.85760   0.71520   0.01267  Uiso   1.00
C403   C     0.76490   0.73510   0.25000   0.01267  Uiso   1.00
C404   C     0.79930   0.70070   0.25000   0.01267  Uiso   1.00
C405   C     0.85760   0.64240   0.25000   0.01267  Uiso   1.00
C406   C     0.73510   0.98510   0.97020   0.01267  Uiso   1.00
C407   C     0.70070   0.95070   0.90140   0.01267  Uiso   1.00
C408   C     0.64240   0.89240   0.78480   0.01267  Uiso   1.00
C409   C     0.25000   0.98510   0.51490   0.01267  Uiso   1.00
C410   C     0.25000   0.95070   0.54930   0.01267  Uiso   1.00
C411   C     0.25000   0.89240   0.60760   0.01267  Uiso   1.00
C412   C     0.52980   0.51490   0.76490   0.01267  Uiso   1.00
C413   C     0.59860   0.54930   0.79930   0.01267  Uiso   1.00
C414   C     0.71520   0.60760   0.85760   0.01267  Uiso   1.00
C415   C     0.25000   0.76490   0.73510   0.01267  Uiso   1.00
C416   C     0.25000   0.79930   0.70070   0.01267  Uiso   1.00
C417   C     0.25000   0.85760   0.64240   0.01267  Uiso   1.00
C418   C     0.97020   0.73510   0.98510   0.01267  Uiso   1.00
C419   C     0.90140   0.70070   0.95070   0.01267  Uiso   1.00
C420   C     0.78480   0.64240   0.89240   0.01267  Uiso   1.00
C421   C     0.48510   0.75000   0.01490   0.01267  Uiso   1.00
C422   C     0.45070   0.75000   0.04930   0.01267  Uiso   1.00
C423   C     0.39240   0.75000   0.10760   0.01267  Uiso   1.00
C424   C     0.23510   0.47020   0.48510   0.01267  Uiso   1.00
C425   C     0.20070   0.40140   0.45070   0.01267  Uiso   1.00
C426   C     0.14240   0.28480   0.39240   0.01267  Uiso   1.00
C427   C     0.26490   0.75000   0.23510   0.01267  Uiso   1.00
C428   C     0.29930   0.75000   0.20070   0.01267  Uiso   1.00
C429   C     0.35760   0.75000   0.14240   0.01267  Uiso   1.00
C430   C     0.01490   0.02980   0.26490   0.01267  Uiso   1.00
C431   C     0.04930   0.09860   0.29930   0.01267  Uiso   1.00
C432   C     0.10760   0.21520   0.35760   0.01267  Uiso   1.00
C433   C     0.01490   0.48510   0.75000   0.01267  Uiso   1.00
C434   C     0.04930   0.45070   0.75000   0.01267  Uiso   1.00
C435   C     0.10760   0.39240   0.75000   0.01267  Uiso   1.00
C436   C     0.48510   0.23510   0.47020   0.01267  Uiso   1.00
C437   C     0.45070   0.20070   0.40140   0.01267  Uiso   1.00
C438   C     0.39240   0.14240   0.28480   0.01267  Uiso   1.00
C439   C     0.23510   0.26490   0.75000   0.01267  Uiso   1.00
C440   C     0.20070   0.29930   0.75000   0.01267  Uiso   1.00
C441   C     0.14240   0.35760   0.75000   0.01267  Uiso   1.00
C442   C     0.26490   0.01490   0.02980   0.01267  Uiso   1.00
C443   C     0.29930   0.04930   0.09860   0.01267  Uiso   1.00
C444   C     0.35760   0.10760   0.21520   0.01267  Uiso   1.00
C445   C     0.75000   0.01490   0.48510   0.01267  Uiso   1.00
C446   C     0.75000   0.04930   0.45070   0.01267  Uiso   1.00
C447   C     0.75000   0.10760   0.39240   0.01267  Uiso   1.00
C448   C     0.47020   0.48510   0.23510   0.01267  Uiso   1.00
C449   C     0.40140   0.45070   0.20070   0.01267  Uiso   1.00
C450   C     0.28480   0.39240   0.14240   0.01267  Uiso   1.00
C451   C     0.75000   0.23510   0.26490   0.01267  Uiso   1.00
C452   C     0.75000   0.20070   0.29930   0.01267  Uiso   1.00
C453   C     0.75000   0.14240   0.35760   0.01267  Uiso   1.00
C454   C     0.02980   0.26490   0.01490   0.01267  Uiso   1.00
C455   C     0.09860   0.29930   0.04930   0.01267  Uiso   1.00
C456   C     0.21520   0.35760   0.10760   0.01267  Uiso   1.00
H337   H     0.53877   0.24852   0.02539   0.01267  Uiso   1.00
H338   H     0.46964   0.21054   0.95626   0.01267  Uiso   1.00
H339   H     0.51166   0.29094   0.99828   0.01267  Uiso   1.00
H340   H     0.78921   0.51338   0.49522   0.01267  Uiso   1.00
H341   H     0.71993   0.51338   0.47904   0.01267  Uiso   1.00
H342   H     0.76092   0.51338   0.54581   0.01267  Uiso   1.00
H343   H     0.70626   0.21054   0.71964   0.01267  Uiso   1.00
H344   H     0.77539   0.24852   0.78877   0.01267  Uiso   1.00
H345   H     0.74828   0.29094   0.76166   0.01267  Uiso   1.00
H346   H     0.95655   0.98662   0.71566   0.01267  Uiso   1.00
H347   H     0.02583   0.98662   0.73184   0.01267  Uiso   1.00
H348   H     0.99754   0.98662   0.78243   0.01267  Uiso   1.00
H349   H     0.02539   0.53877   0.24852   0.01267  Uiso   1.00
H350   H     0.95626   0.46964   0.21054   0.01267  Uiso   1.00
H351   H     0.99828   0.51166   0.29094   0.01267  Uiso   1.00
H352   H     0.46993   0.72904   0.51338   0.01267  Uiso   1.00
H353   H     0.53921   0.74522   0.51338   0.01267  Uiso   1.00
H354   H     0.51092   0.79581   0.51338   0.01267  Uiso   1.00
H355   H     0.71964   0.70626   0.21054   0.01267  Uiso   1.00
H356   H     0.78877   0.77539   0.24852   0.01267  Uiso   1.00
H357   H     0.76166   0.74828   0.29094   0.01267  Uiso   1.00
H358   H     0.77583   0.98184   0.98662   0.01267  Uiso   1.00
H359   H     0.70655   0.96566   0.98662   0.01267  Uiso   1.00
H360   H     0.74754   0.03243   0.98662   0.01267  Uiso   1.00
H361   H     0.20643   0.96015   0.47353   0.01267  Uiso   1.00
H362   H     0.28572   0.99017   0.50355   0.01267  Uiso   1.00
H363   H     0.25785   0.02961   0.54298   0.01267  Uiso   1.00
H364   H     0.51338   0.48986   0.71664   0.01267  Uiso   1.00
H365   H     0.51338   0.54674   0.77352   0.01267  Uiso   1.00
H366   H     0.51338   0.48347   0.77991   0.01267  Uiso   1.00
H367   H     0.28572   0.75355   0.74017   0.01267  Uiso   1.00
H368   H     0.20643   0.72353   0.71015   0.01267  Uiso   1.00
H369   H     0.25785   0.79298   0.77961   0.01267  Uiso   1.00
H370   H     0.98662   0.70326   0.97648   0.01267  Uiso   1.00
H371   H     0.98662   0.76014   0.03336   0.01267  Uiso   1.00
H372   H     0.98662   0.76653   0.97009   0.01267  Uiso   1.00
H373   H     0.45626   0.71054   0.96964   0.01267  Uiso   1.00
H374   H     0.52539   0.74852   0.03877   0.01267  Uiso   1.00
H375   H     0.49828   0.79094   0.01166   0.01267  Uiso   1.00
H376   H     0.20655   0.48662   0.46566   0.01267  Uiso   1.00
H377   H     0.27583   0.48662   0.48184   0.01267  Uiso   1.00
H378   H     0.24754   0.48662   0.53243   0.01267  Uiso   1.00
H379   H     0.28877   0.74852   0.27539   0.01267  Uiso   1.00
H380   H     0.21964   0.71054   0.20626   0.01267  Uiso   1.00
H381   H     0.26166   0.79094   0.24828   0.01267  Uiso   1.00
H382   H     0.03921   0.01338   0.24522   0.01267  Uiso   1.00
H383   H     0.96993   0.01338   0.22904   0.01267  Uiso   1.00
H384   H     0.01092   0.01338   0.29581   0.01267  Uiso   1.00
H385   H     0.96964   0.45626   0.71054   0.01267  Uiso   1.00
H386   H     0.03877   0.52539   0.74852   0.01267  Uiso   1.00
H387   H     0.01166   0.49828   0.79094   0.01267  Uiso   1.00
H388   H     0.52583   0.23184   0.48662   0.01267  Uiso   1.00
H389   H     0.45655   0.21566   0.48662   0.01267  Uiso   1.00
H390   H     0.49754   0.28243   0.48662   0.01267  Uiso   1.00
H391   H     0.27539   0.28877   0.74852   0.01267  Uiso   1.00
H392   H     0.20626   0.21964   0.71054   0.01267  Uiso   1.00
H393   H     0.24828   0.26166   0.79094   0.01267  Uiso   1.00
H394   H     0.21993   0.97904   0.01338   0.01267  Uiso   1.00
H395   H     0.28921   0.99522   0.01338   0.01267  Uiso   1.00
H396   H     0.26092   0.04581   0.01338   0.01267  Uiso   1.00
H397   H     0.78572   0.00355   0.49017   0.01267  Uiso   1.00
H398   H     0.70643   0.97353   0.46015   0.01267  Uiso   1.00
H399   H     0.75785   0.04298   0.52961   0.01267  Uiso   1.00
H400   H     0.48662   0.45326   0.22648   0.01267  Uiso   1.00
H401   H     0.48662   0.51014   0.28336   0.01267  Uiso   1.00
H402   H     0.48662   0.51653   0.22009   0.01267  Uiso   1.00
H403   H     0.70643   0.21015   0.22353   0.01267  Uiso   1.00
H404   H     0.78572   0.24017   0.25355   0.01267  Uiso   1.00
H405   H     0.75785   0.27961   0.29298   0.01267  Uiso   1.00
H406   H     0.01338   0.27352   0.04674   0.01267  Uiso   1.00
H407   H     0.01338   0.21664   0.98986   0.01267  Uiso   1.00
H408   H     0.01338   0.27991   0.98347   0.01267  Uiso   1.00
