data_MARPOL_clean
_audit_creation_date              2014-07-02
_audit_creation_method            'Materials Studio'
_symmetry_space_group_name_H-M    'P1'
_symmetry_Int_Tables_number       1
_symmetry_cell_setting            triclinic
loop_
_symmetry_equiv_pos_as_xyz
  x,y,z
_cell_length_a                    15.2910
_cell_length_b                    15.6560
_cell_length_c                    50.9120
_cell_angle_alpha                 90.0000
_cell_angle_beta                  90.0000
_cell_angle_gamma                 90.0000
loop_
_atom_site_label
_atom_site_type_symbol
_atom_site_fract_x
_atom_site_fract_y
_atom_site_fract_z
_atom_site_U_iso_or_equiv
_atom_site_adp_type
_atom_site_occupancy
Fe1    Fe    0.10030   0.24749   0.45982   0.01267  Uiso   1.00
Fe2    Fe    0.41137   0.35350   0.29388   0.01267  Uiso   1.00
Fe3    Fe    0.89970   0.25251   0.95982   0.01267  Uiso   1.00
Fe4    Fe    0.58863   0.14650   0.79388   0.01267  Uiso   1.00
Fe5    Fe    0.60030   0.75251   0.04018   0.01267  Uiso   1.00
Fe6    Fe    0.91137   0.64650   0.20612   0.01267  Uiso   1.00
Fe7    Fe    0.39970   0.74749   0.54018   0.01267  Uiso   1.00
Fe8    Fe    0.08863   0.85350   0.70612   0.01267  Uiso   1.00
Ni1    Ni    0.29726   0.45398   0.50633   0.01267  Uiso   1.00
Ni2    Ni    0.28288   0.22309   0.37545   0.01267  Uiso   1.00
Ni3    Ni    0.61288   0.52182   0.23517   0.01267  Uiso   1.00
Ni4    Ni    0.70274   0.04602   0.00633   0.01267  Uiso   1.00
Ni5    Ni    0.71712   0.27691   0.87545   0.01267  Uiso   1.00
Ni6    Ni    0.38712   0.97818   0.73517   0.01267  Uiso   1.00
Ni7    Ni    0.79726   0.54602   0.99367   0.01267  Uiso   1.00
Ni8    Ni    0.78288   0.77691   0.12455   0.01267  Uiso   1.00
Ni9    Ni    0.11288   0.47818   0.26483   0.01267  Uiso   1.00
Ni10   Ni    0.20274   0.95398   0.49367   0.01267  Uiso   1.00
Ni11   Ni    0.21712   0.72309   0.62455   0.01267  Uiso   1.00
Ni12   Ni    0.88712   0.02182   0.76483   0.01267  Uiso   1.00
H1     H     0.64210   0.40970   0.26990   0.01267  Uiso   1.00
H2     H     0.39200   0.35200   0.53150   0.01267  Uiso   1.00
H3     H     0.37200   0.42100   0.54980   0.01267  Uiso   1.00
H4     H     0.26500   0.28300   0.53830   0.01267  Uiso   1.00
H5     H     0.32300   0.29500   0.56470   0.01267  Uiso   1.00
H6     H     0.24700   0.42600   0.57550   0.01267  Uiso   1.00
H7     H     0.19400   0.34100   0.57640   0.01267  Uiso   1.00
H8     H     0.13100   0.36100   0.53420   0.01267  Uiso   1.00
H9     H     0.10200   0.42700   0.55360   0.01267  Uiso   1.00
H10    H     0.19100   0.51400   0.53740   0.01267  Uiso   1.00
H11    H     0.06400   0.53900   0.52030   0.01267  Uiso   1.00
H12    H     0.08600   0.45800   0.50110   0.01267  Uiso   1.00
H13    H     0.17900   0.62200   0.50040   0.01267  Uiso   1.00
H14    H     0.11100   0.58800   0.47860   0.01267  Uiso   1.00
H15    H     0.20500   0.48500   0.46870   0.01267  Uiso   1.00
H16    H     0.29700   0.63600   0.47120   0.01267  Uiso   1.00
H17    H     0.23900   0.60500   0.44660   0.01267  Uiso   1.00
H18    H     0.36900   0.57800   0.43110   0.01267  Uiso   1.00
H19    H     0.32900   0.48600   0.43650   0.01267  Uiso   1.00
H20    H     0.48000   0.49700   0.45030   0.01267  Uiso   1.00
H21    H     0.43700   0.56200   0.47600   0.01267  Uiso   1.00
H22    H     0.45400   0.42200   0.48880   0.01267  Uiso   1.00
H23    H     0.39700   0.39500   0.46910   0.01267  Uiso   1.00
H24    H     0.35300   0.36100   0.36740   0.01267  Uiso   1.00
H25    H     0.36200   0.34900   0.39490   0.01267  Uiso   1.00
H26    H     0.28700   0.48000   0.38540   0.01267  Uiso   1.00
H27    H     0.23600   0.40800   0.40180   0.01267  Uiso   1.00
H28    H     0.15700   0.46400   0.36620   0.01267  Uiso   1.00
H29    H     0.21000   0.41500   0.34610   0.01267  Uiso   1.00
H30    H     0.10200   0.33100   0.38190   0.01267  Uiso   1.00
H31    H     0.07500   0.34600   0.35180   0.01267  Uiso   1.00
H32    H     0.17400   0.26400   0.34120   0.01267  Uiso   1.00
H33    H     0.08400   0.18500   0.38020   0.01267  Uiso   1.00
H34    H     0.04500   0.19700   0.35090   0.01267  Uiso   1.00
H35    H     0.11500   0.05700   0.35660   0.01267  Uiso   1.00
H36    H     0.17300   0.10300   0.33550   0.01267  Uiso   1.00
H37    H     0.21400   0.08000   0.38840   0.01267  Uiso   1.00
H38    H     0.24400   0.97100   0.36940   0.01267  Uiso   1.00
H39    H     0.30400   0.03600   0.34740   0.01267  Uiso   1.00
H40    H     0.38400   0.96500   0.38260   0.01267  Uiso   1.00
H41    H     0.33500   0.02500   0.40250   0.01267  Uiso   1.00
H42    H     0.44200   0.09400   0.36040   0.01267  Uiso   1.00
H43    H     0.48600   0.07900   0.39300   0.01267  Uiso   1.00
H44    H     0.38700   0.17000   0.40870   0.01267  Uiso   1.00
H45    H     0.43400   0.21800   0.39160   0.01267  Uiso   1.00
H46    H     0.50700   0.63600   0.22050   0.01267  Uiso   1.00
H47    H     0.56500   0.62100   0.19930   0.01267  Uiso   1.00
H48    H     0.42000   0.52600   0.21120   0.01267  Uiso   1.00
H49    H     0.43000   0.59900   0.18660   0.01267  Uiso   1.00
H50    H     0.44500   0.46600   0.16860   0.01267  Uiso   1.00
H51    H     0.54700   0.50200   0.17040   0.01267  Uiso   1.00
H52    H     0.47400   0.39200   0.20570   0.01267  Uiso   1.00
H53    H     0.53600   0.35300   0.18100   0.01267  Uiso   1.00
H54    H     0.64600   0.42300   0.19810   0.01267  Uiso   1.00
H55    H     0.64800   0.29500   0.20960   0.01267  Uiso   1.00
H56    H     0.58100   0.32000   0.23480   0.01267  Uiso   1.00
H57    H     0.75100   0.37900   0.22970   0.01267  Uiso   1.00
H58    H     0.72600   0.30900   0.25130   0.01267  Uiso   1.00
H59    H     0.80800   0.48000   0.26110   0.01267  Uiso   1.00
H60    H     0.78500   0.40500   0.28720   0.01267  Uiso   1.00
H61    H     0.67800   0.52600   0.29810   0.01267  Uiso   1.00
H62    H     0.78000   0.54400   0.30470   0.01267  Uiso   1.00
H63    H     0.71000   0.67000   0.29550   0.01267  Uiso   1.00
H64    H     0.77100   0.63600   0.26380   0.01267  Uiso   1.00
H65    H     0.58800   0.62100   0.27740   0.01267  Uiso   1.00
H66    H     0.61600   0.66500   0.25320   0.01267  Uiso   1.00
H67    H     0.35790   0.09030   0.76990   0.01267  Uiso   1.00
H68    H     0.60800   0.14800   0.03150   0.01267  Uiso   1.00
H69    H     0.62800   0.07900   0.04980   0.01267  Uiso   1.00
H70    H     0.73500   0.21700   0.03830   0.01267  Uiso   1.00
H71    H     0.67700   0.20500   0.06470   0.01267  Uiso   1.00
H72    H     0.75300   0.07400   0.07550   0.01267  Uiso   1.00
H73    H     0.80600   0.15900   0.07640   0.01267  Uiso   1.00
H74    H     0.86900   0.13900   0.03420   0.01267  Uiso   1.00
H75    H     0.89800   0.07300   0.05360   0.01267  Uiso   1.00
H76    H     0.80900   0.98600   0.03740   0.01267  Uiso   1.00
H77    H     0.93600   0.96100   0.02030   0.01267  Uiso   1.00
H78    H     0.91400   0.04200   0.00110   0.01267  Uiso   1.00
H79    H     0.82100   0.87800   0.00040   0.01267  Uiso   1.00
H80    H     0.88900   0.91200   0.97860   0.01267  Uiso   1.00
H81    H     0.79500   0.01500   0.96870   0.01267  Uiso   1.00
H82    H     0.70300   0.86400   0.97120   0.01267  Uiso   1.00
H83    H     0.76100   0.89500   0.94660   0.01267  Uiso   1.00
H84    H     0.63100   0.92200   0.93110   0.01267  Uiso   1.00
H85    H     0.67100   0.01400   0.93650   0.01267  Uiso   1.00
H86    H     0.52000   0.00300   0.95030   0.01267  Uiso   1.00
H87    H     0.56300   0.93800   0.97600   0.01267  Uiso   1.00
H88    H     0.54600   0.07800   0.98880   0.01267  Uiso   1.00
H89    H     0.60300   0.10500   0.96910   0.01267  Uiso   1.00
H90    H     0.64700   0.13900   0.86740   0.01267  Uiso   1.00
H91    H     0.63800   0.15100   0.89490   0.01267  Uiso   1.00
H92    H     0.71300   0.02000   0.88540   0.01267  Uiso   1.00
H93    H     0.76400   0.09200   0.90180   0.01267  Uiso   1.00
H94    H     0.84300   0.03600   0.86620   0.01267  Uiso   1.00
H95    H     0.79000   0.08500   0.84610   0.01267  Uiso   1.00
H96    H     0.89800   0.16900   0.88190   0.01267  Uiso   1.00
H97    H     0.92500   0.15400   0.85180   0.01267  Uiso   1.00
H98    H     0.82600   0.23600   0.84120   0.01267  Uiso   1.00
H99    H     0.91600   0.31500   0.88020   0.01267  Uiso   1.00
H100   H     0.95500   0.30300   0.85090   0.01267  Uiso   1.00
H101   H     0.88500   0.44300   0.85660   0.01267  Uiso   1.00
H102   H     0.82700   0.39700   0.83550   0.01267  Uiso   1.00
H103   H     0.78600   0.42000   0.88840   0.01267  Uiso   1.00
H104   H     0.75600   0.52900   0.86940   0.01267  Uiso   1.00
H105   H     0.69600   0.46400   0.84740   0.01267  Uiso   1.00
H106   H     0.61600   0.53500   0.88260   0.01267  Uiso   1.00
H107   H     0.66500   0.47500   0.90250   0.01267  Uiso   1.00
H108   H     0.55800   0.40600   0.86040   0.01267  Uiso   1.00
H109   H     0.51400   0.42100   0.89300   0.01267  Uiso   1.00
H110   H     0.61300   0.33000   0.90870   0.01267  Uiso   1.00
H111   H     0.56600   0.28200   0.89160   0.01267  Uiso   1.00
H112   H     0.49300   0.86400   0.72050   0.01267  Uiso   1.00
H113   H     0.43500   0.87900   0.69930   0.01267  Uiso   1.00
H114   H     0.58000   0.97400   0.71120   0.01267  Uiso   1.00
H115   H     0.57000   0.90100   0.68660   0.01267  Uiso   1.00
H116   H     0.55500   0.03400   0.66860   0.01267  Uiso   1.00
H117   H     0.45300   0.99800   0.67040   0.01267  Uiso   1.00
H118   H     0.52600   0.10800   0.70570   0.01267  Uiso   1.00
H119   H     0.46400   0.14700   0.68100   0.01267  Uiso   1.00
H120   H     0.35400   0.07700   0.69810   0.01267  Uiso   1.00
H121   H     0.35200   0.20500   0.70960   0.01267  Uiso   1.00
H122   H     0.41900   0.18000   0.73480   0.01267  Uiso   1.00
H123   H     0.24900   0.12100   0.72970   0.01267  Uiso   1.00
H124   H     0.27400   0.19100   0.75130   0.01267  Uiso   1.00
H125   H     0.19200   0.02000   0.76110   0.01267  Uiso   1.00
H126   H     0.21500   0.09500   0.78720   0.01267  Uiso   1.00
H127   H     0.32200   0.97400   0.79810   0.01267  Uiso   1.00
H128   H     0.22000   0.95600   0.80470   0.01267  Uiso   1.00
H129   H     0.29000   0.83000   0.79550   0.01267  Uiso   1.00
H130   H     0.22900   0.86400   0.76380   0.01267  Uiso   1.00
H131   H     0.41200   0.87900   0.77740   0.01267  Uiso   1.00
H132   H     0.38400   0.83500   0.75320   0.01267  Uiso   1.00
H133   H     0.14210   0.59030   0.23010   0.01267  Uiso   1.00
H134   H     0.89200   0.64800   0.96850   0.01267  Uiso   1.00
H135   H     0.87200   0.57900   0.95020   0.01267  Uiso   1.00
H136   H     0.76500   0.71700   0.96170   0.01267  Uiso   1.00
H137   H     0.82300   0.70500   0.93530   0.01267  Uiso   1.00
H138   H     0.74700   0.57400   0.92450   0.01267  Uiso   1.00
H139   H     0.69400   0.65900   0.92360   0.01267  Uiso   1.00
H140   H     0.63100   0.63900   0.96580   0.01267  Uiso   1.00
H141   H     0.60200   0.57300   0.94640   0.01267  Uiso   1.00
H142   H     0.69100   0.48600   0.96260   0.01267  Uiso   1.00
H143   H     0.56400   0.46100   0.97970   0.01267  Uiso   1.00
H144   H     0.58600   0.54200   0.99890   0.01267  Uiso   1.00
H145   H     0.67900   0.37800   0.99960   0.01267  Uiso   1.00
H146   H     0.61100   0.41200   0.02140   0.01267  Uiso   1.00
H147   H     0.70500   0.51500   0.03130   0.01267  Uiso   1.00
H148   H     0.79700   0.36400   0.02880   0.01267  Uiso   1.00
H149   H     0.73900   0.39500   0.05340   0.01267  Uiso   1.00
H150   H     0.86900   0.42200   0.06890   0.01267  Uiso   1.00
H151   H     0.82900   0.51400   0.06350   0.01267  Uiso   1.00
H152   H     0.98000   0.50300   0.04970   0.01267  Uiso   1.00
H153   H     0.93700   0.43800   0.02400   0.01267  Uiso   1.00
H154   H     0.95400   0.57800   0.01120   0.01267  Uiso   1.00
H155   H     0.89700   0.60500   0.03090   0.01267  Uiso   1.00
H156   H     0.85300   0.63900   0.13260   0.01267  Uiso   1.00
H157   H     0.86200   0.65100   0.10510   0.01267  Uiso   1.00
H158   H     0.78700   0.52000   0.11460   0.01267  Uiso   1.00
H159   H     0.73600   0.59200   0.09820   0.01267  Uiso   1.00
H160   H     0.65700   0.53600   0.13380   0.01267  Uiso   1.00
H161   H     0.71000   0.58500   0.15390   0.01267  Uiso   1.00
H162   H     0.60200   0.66900   0.11810   0.01267  Uiso   1.00
H163   H     0.57500   0.65400   0.14820   0.01267  Uiso   1.00
H164   H     0.67400   0.73600   0.15880   0.01267  Uiso   1.00
H165   H     0.58400   0.81500   0.11980   0.01267  Uiso   1.00
H166   H     0.54500   0.80300   0.14910   0.01267  Uiso   1.00
H167   H     0.61500   0.94300   0.14340   0.01267  Uiso   1.00
H168   H     0.67300   0.89700   0.16450   0.01267  Uiso   1.00
H169   H     0.71400   0.92000   0.11160   0.01267  Uiso   1.00
H170   H     0.74400   0.02900   0.13060   0.01267  Uiso   1.00
H171   H     0.80400   0.96400   0.15260   0.01267  Uiso   1.00
H172   H     0.88400   0.03500   0.11740   0.01267  Uiso   1.00
H173   H     0.83500   0.97500   0.09750   0.01267  Uiso   1.00
H174   H     0.94200   0.90600   0.13960   0.01267  Uiso   1.00
H175   H     0.98600   0.92100   0.10700   0.01267  Uiso   1.00
H176   H     0.88700   0.83000   0.09130   0.01267  Uiso   1.00
H177   H     0.93400   0.78200   0.10840   0.01267  Uiso   1.00
H178   H     0.00700   0.36400   0.27950   0.01267  Uiso   1.00
H179   H     0.06500   0.37900   0.30070   0.01267  Uiso   1.00
H180   H     0.92000   0.47400   0.28880   0.01267  Uiso   1.00
H181   H     0.93000   0.40100   0.31340   0.01267  Uiso   1.00
H182   H     0.94500   0.53400   0.33140   0.01267  Uiso   1.00
H183   H     0.04700   0.49800   0.32960   0.01267  Uiso   1.00
H184   H     0.97400   0.60800   0.29430   0.01267  Uiso   1.00
H185   H     0.03600   0.64700   0.31900   0.01267  Uiso   1.00
H186   H     0.14600   0.57700   0.30190   0.01267  Uiso   1.00
H187   H     0.14800   0.70500   0.29040   0.01267  Uiso   1.00
H188   H     0.08100   0.68000   0.26520   0.01267  Uiso   1.00
H189   H     0.25100   0.62100   0.27030   0.01267  Uiso   1.00
H190   H     0.22600   0.69100   0.24870   0.01267  Uiso   1.00
H191   H     0.30800   0.52000   0.23890   0.01267  Uiso   1.00
H192   H     0.28500   0.59500   0.21280   0.01267  Uiso   1.00
H193   H     0.17800   0.47400   0.20190   0.01267  Uiso   1.00
H194   H     0.28000   0.45600   0.19530   0.01267  Uiso   1.00
H195   H     0.21000   0.33000   0.20450   0.01267  Uiso   1.00
H196   H     0.27100   0.36400   0.23620   0.01267  Uiso   1.00
H197   H     0.08800   0.37900   0.22260   0.01267  Uiso   1.00
H198   H     0.11600   0.33500   0.24680   0.01267  Uiso   1.00
H199   H     0.85790   0.90970   0.73010   0.01267  Uiso   1.00
H200   H     0.10800   0.85200   0.46850   0.01267  Uiso   1.00
H201   H     0.12800   0.92100   0.45020   0.01267  Uiso   1.00
H202   H     0.23500   0.78300   0.46170   0.01267  Uiso   1.00
H203   H     0.17700   0.79500   0.43530   0.01267  Uiso   1.00
H204   H     0.25300   0.92600   0.42450   0.01267  Uiso   1.00
H205   H     0.30600   0.84100   0.42360   0.01267  Uiso   1.00
H206   H     0.36900   0.86100   0.46580   0.01267  Uiso   1.00
H207   H     0.39800   0.92700   0.44640   0.01267  Uiso   1.00
H208   H     0.30900   0.01400   0.46260   0.01267  Uiso   1.00
H209   H     0.43600   0.03900   0.47970   0.01267  Uiso   1.00
H210   H     0.41400   0.95800   0.49890   0.01267  Uiso   1.00
H211   H     0.32100   0.12200   0.49960   0.01267  Uiso   1.00
H212   H     0.38900   0.08800   0.52140   0.01267  Uiso   1.00
H213   H     0.29500   0.98500   0.53130   0.01267  Uiso   1.00
H214   H     0.20300   0.13600   0.52880   0.01267  Uiso   1.00
H215   H     0.26100   0.10500   0.55340   0.01267  Uiso   1.00
H216   H     0.13100   0.07800   0.56890   0.01267  Uiso   1.00
H217   H     0.17100   0.98600   0.56350   0.01267  Uiso   1.00
H218   H     0.02000   0.99700   0.54970   0.01267  Uiso   1.00
H219   H     0.06300   0.06200   0.52400   0.01267  Uiso   1.00
H220   H     0.04600   0.92200   0.51120   0.01267  Uiso   1.00
H221   H     0.10300   0.89500   0.53090   0.01267  Uiso   1.00
H222   H     0.14700   0.86100   0.63260   0.01267  Uiso   1.00
H223   H     0.13800   0.84900   0.60510   0.01267  Uiso   1.00
H224   H     0.21300   0.98000   0.61460   0.01267  Uiso   1.00
H225   H     0.26400   0.90800   0.59820   0.01267  Uiso   1.00
H226   H     0.34300   0.96400   0.63380   0.01267  Uiso   1.00
H227   H     0.29000   0.91500   0.65390   0.01267  Uiso   1.00
H228   H     0.39800   0.83100   0.61810   0.01267  Uiso   1.00
H229   H     0.42500   0.84600   0.64820   0.01267  Uiso   1.00
H230   H     0.32600   0.76400   0.65880   0.01267  Uiso   1.00
H231   H     0.41600   0.68500   0.61980   0.01267  Uiso   1.00
H232   H     0.45500   0.69700   0.64910   0.01267  Uiso   1.00
H233   H     0.38500   0.55700   0.64340   0.01267  Uiso   1.00
H234   H     0.32700   0.60300   0.66450   0.01267  Uiso   1.00
H235   H     0.28600   0.58000   0.61160   0.01267  Uiso   1.00
H236   H     0.25600   0.47100   0.63060   0.01267  Uiso   1.00
H237   H     0.19600   0.53600   0.65260   0.01267  Uiso   1.00
H238   H     0.11600   0.46500   0.61740   0.01267  Uiso   1.00
H239   H     0.16500   0.52500   0.59750   0.01267  Uiso   1.00
H240   H     0.05800   0.59400   0.63960   0.01267  Uiso   1.00
H241   H     0.01400   0.57900   0.60700   0.01267  Uiso   1.00
H242   H     0.11300   0.67000   0.59130   0.01267  Uiso   1.00
H243   H     0.06600   0.71800   0.60840   0.01267  Uiso   1.00
H244   H     0.99300   0.13600   0.77950   0.01267  Uiso   1.00
H245   H     0.93500   0.12100   0.80070   0.01267  Uiso   1.00
H246   H     0.08000   0.02600   0.78880   0.01267  Uiso   1.00
H247   H     0.07000   0.09900   0.81340   0.01267  Uiso   1.00
H248   H     0.05500   0.96600   0.83140   0.01267  Uiso   1.00
H249   H     0.95300   0.00200   0.82960   0.01267  Uiso   1.00
H250   H     0.02600   0.89200   0.79430   0.01267  Uiso   1.00
H251   H     0.96400   0.85300   0.81900   0.01267  Uiso   1.00
H252   H     0.85400   0.92300   0.80190   0.01267  Uiso   1.00
H253   H     0.85200   0.79500   0.79040   0.01267  Uiso   1.00
H254   H     0.91900   0.82000   0.76520   0.01267  Uiso   1.00
H255   H     0.74900   0.87900   0.77030   0.01267  Uiso   1.00
H256   H     0.77400   0.80900   0.74870   0.01267  Uiso   1.00
H257   H     0.69200   0.98000   0.73890   0.01267  Uiso   1.00
H258   H     0.71500   0.90500   0.71280   0.01267  Uiso   1.00
H259   H     0.82200   0.02600   0.70190   0.01267  Uiso   1.00
H260   H     0.72000   0.04400   0.69530   0.01267  Uiso   1.00
H261   H     0.79000   0.17000   0.70450   0.01267  Uiso   1.00
H262   H     0.72900   0.13600   0.73620   0.01267  Uiso   1.00
H263   H     0.91200   0.12100   0.72260   0.01267  Uiso   1.00
H264   H     0.88400   0.16500   0.74680   0.01267  Uiso   1.00
C1     C     0.29480   0.32490   0.55149   0.01267  Uiso   1.00
C2     C     0.22070   0.37470   0.56452   0.01267  Uiso   1.00
C3     C     0.15140   0.40740   0.54598   0.01267  Uiso   1.00
C4     C     0.11460   0.50720   0.51064   0.01267  Uiso   1.00
C5     C     0.15420   0.56790   0.49113   0.01267  Uiso   1.00
C6     C     0.27630   0.58420   0.46011   0.01267  Uiso   1.00
C7     C     0.35100   0.54010   0.44605   0.01267  Uiso   1.00
C8     C     0.42750   0.51390   0.46378   0.01267  Uiso   1.00
C9     C     0.19200   0.30280   0.47953   0.01267  Uiso   1.00
C10    C     0.07210   0.36110   0.44738   0.01267  Uiso   1.00
C11    C     0.17910   0.23580   0.43031   0.01267  Uiso   1.00
C12    C     0.00840   0.19550   0.43847   0.01267  Uiso   1.00
C13    C     0.13350   0.13420   0.47161   0.01267  Uiso   1.00
C14    C     0.02720   0.25250   0.49124   0.01267  Uiso   1.00
C15    C     0.25710   0.41720   0.38429   0.01267  Uiso   1.00
C16    C     0.18720   0.41430   0.36329   0.01267  Uiso   1.00
C17    C     0.12490   0.34010   0.36500   0.01267  Uiso   1.00
C18    C     0.10360   0.18510   0.36142   0.01267  Uiso   1.00
C19    C     0.15200   0.10450   0.35497   0.01267  Uiso   1.00
C20    C     0.28300   0.02510   0.36677   0.01267  Uiso   1.00
C21    C     0.36000   0.01980   0.38588   0.01267  Uiso   1.00
C22    C     0.42790   0.08930   0.38208   0.01267  Uiso   1.00
C23    C     0.36670   0.27210   0.31999   0.01267  Uiso   1.00
C24    C     0.40150   0.27440   0.26480   0.01267  Uiso   1.00
C25    C     0.53010   0.31030   0.29778   0.01267  Uiso   1.00
C26    C     0.46130   0.43450   0.26914   0.01267  Uiso   1.00
C27    C     0.42690   0.43580   0.32223   0.01267  Uiso   1.00
C28    C     0.29470   0.40070   0.28755   0.01267  Uiso   1.00
C29    C     0.46390   0.55350   0.19620   0.01267  Uiso   1.00
C30    C     0.49800   0.48360   0.17872   0.01267  Uiso   1.00
C31    C     0.52640   0.40440   0.19269   0.01267  Uiso   1.00
C32    C     0.63240   0.34080   0.22266   0.01267  Uiso   1.00
C33    C     0.70660   0.36070   0.24051   0.01267  Uiso   1.00
C34    C     0.75580   0.46050   0.27451   0.01267  Uiso   1.00
C35    C     0.72950   0.53330   0.29212   0.01267  Uiso   1.00
C36    C     0.71280   0.61950   0.27873   0.01267  Uiso   1.00
C37    C     0.70520   0.17510   0.05149   0.01267  Uiso   1.00
C38    C     0.77930   0.12530   0.06452   0.01267  Uiso   1.00
C39    C     0.84860   0.09260   0.04598   0.01267  Uiso   1.00
C40    C     0.88540   0.99280   0.01064   0.01267  Uiso   1.00
C41    C     0.84580   0.93210   0.99113   0.01267  Uiso   1.00
C42    C     0.72370   0.91580   0.96011   0.01267  Uiso   1.00
C43    C     0.64900   0.95990   0.94605   0.01267  Uiso   1.00
C44    C     0.57250   0.98610   0.96378   0.01267  Uiso   1.00
C45    C     0.80800   0.19720   0.97953   0.01267  Uiso   1.00
C46    C     0.92790   0.13890   0.94738   0.01267  Uiso   1.00
C47    C     0.82090   0.26420   0.93031   0.01267  Uiso   1.00
C48    C     0.99160   0.30450   0.93847   0.01267  Uiso   1.00
C49    C     0.86650   0.36580   0.97161   0.01267  Uiso   1.00
C50    C     0.97280   0.24750   0.99124   0.01267  Uiso   1.00
C51    C     0.74290   0.08280   0.88429   0.01267  Uiso   1.00
C52    C     0.81280   0.08570   0.86329   0.01267  Uiso   1.00
C53    C     0.87510   0.15990   0.86500   0.01267  Uiso   1.00
C54    C     0.89640   0.31490   0.86142   0.01267  Uiso   1.00
C55    C     0.84800   0.39550   0.85497   0.01267  Uiso   1.00
C56    C     0.71700   0.47490   0.86677   0.01267  Uiso   1.00
C57    C     0.64000   0.48020   0.88588   0.01267  Uiso   1.00
C58    C     0.57210   0.41070   0.88208   0.01267  Uiso   1.00
C59    C     0.63330   0.22790   0.81999   0.01267  Uiso   1.00
C60    C     0.59850   0.22560   0.76480   0.01267  Uiso   1.00
C61    C     0.46990   0.18970   0.79778   0.01267  Uiso   1.00
C62    C     0.53870   0.06550   0.76914   0.01267  Uiso   1.00
C63    C     0.57310   0.06420   0.82223   0.01267  Uiso   1.00
C64    C     0.70530   0.09930   0.78755   0.01267  Uiso   1.00
C65    C     0.53610   0.94650   0.69620   0.01267  Uiso   1.00
C66    C     0.50200   0.01640   0.67872   0.01267  Uiso   1.00
C67    C     0.47360   0.09560   0.69269   0.01267  Uiso   1.00
C68    C     0.36760   0.15920   0.72266   0.01267  Uiso   1.00
C69    C     0.29340   0.13930   0.74051   0.01267  Uiso   1.00
C70    C     0.24420   0.03950   0.77451   0.01267  Uiso   1.00
C71    C     0.27050   0.96670   0.79212   0.01267  Uiso   1.00
C72    C     0.28720   0.88050   0.77873   0.01267  Uiso   1.00
C73    C     0.79480   0.67510   0.94851   0.01267  Uiso   1.00
C74    C     0.72070   0.62530   0.93548   0.01267  Uiso   1.00
C75    C     0.65140   0.59260   0.95402   0.01267  Uiso   1.00
C76    C     0.61460   0.49280   0.98936   0.01267  Uiso   1.00
C77    C     0.65420   0.43210   0.00887   0.01267  Uiso   1.00
C78    C     0.77630   0.41580   0.03989   0.01267  Uiso   1.00
C79    C     0.85100   0.45990   0.05395   0.01267  Uiso   1.00
C80    C     0.92750   0.48610   0.03622   0.01267  Uiso   1.00
C81    C     0.69200   0.69720   0.02047   0.01267  Uiso   1.00
C82    C     0.57210   0.63890   0.05262   0.01267  Uiso   1.00
C83    C     0.67910   0.76420   0.06969   0.01267  Uiso   1.00
C84    C     0.50840   0.80450   0.06153   0.01267  Uiso   1.00
C85    C     0.63350   0.86580   0.02839   0.01267  Uiso   1.00
C86    C     0.52720   0.74750   0.00876   0.01267  Uiso   1.00
C87    C     0.75710   0.58280   0.11571   0.01267  Uiso   1.00
C88    C     0.68720   0.58570   0.13671   0.01267  Uiso   1.00
C89    C     0.62490   0.65990   0.13500   0.01267  Uiso   1.00
C90    C     0.60360   0.81490   0.13858   0.01267  Uiso   1.00
C91    C     0.65200   0.89550   0.14503   0.01267  Uiso   1.00
C92    C     0.78300   0.97490   0.13323   0.01267  Uiso   1.00
C93    C     0.86000   0.98020   0.11412   0.01267  Uiso   1.00
C94    C     0.92790   0.91070   0.11792   0.01267  Uiso   1.00
C95    C     0.86670   0.72790   0.18001   0.01267  Uiso   1.00
C96    C     0.90150   0.72560   0.23520   0.01267  Uiso   1.00
C97    C     0.03010   0.68970   0.20222   0.01267  Uiso   1.00
C98    C     0.96130   0.56550   0.23086   0.01267  Uiso   1.00
C99    C     0.92690   0.56420   0.17777   0.01267  Uiso   1.00
C100   C     0.79470   0.59930   0.21245   0.01267  Uiso   1.00
C101   C     0.96390   0.44650   0.30380   0.01267  Uiso   1.00
C102   C     0.99800   0.51640   0.32128   0.01267  Uiso   1.00
C103   C     0.02640   0.59560   0.30731   0.01267  Uiso   1.00
C104   C     0.13240   0.65920   0.27734   0.01267  Uiso   1.00
C105   C     0.20660   0.63930   0.25949   0.01267  Uiso   1.00
C106   C     0.25580   0.53950   0.22549   0.01267  Uiso   1.00
C107   C     0.22950   0.46670   0.20788   0.01267  Uiso   1.00
C108   C     0.21280   0.38050   0.22127   0.01267  Uiso   1.00
C109   C     0.20520   0.82490   0.44851   0.01267  Uiso   1.00
C110   C     0.27930   0.87470   0.43548   0.01267  Uiso   1.00
C111   C     0.34860   0.90740   0.45402   0.01267  Uiso   1.00
C112   C     0.38540   0.00720   0.48936   0.01267  Uiso   1.00
C113   C     0.34580   0.06790   0.50887   0.01267  Uiso   1.00
C114   C     0.22370   0.08420   0.53989   0.01267  Uiso   1.00
C115   C     0.14900   0.04010   0.55395   0.01267  Uiso   1.00
C116   C     0.07250   0.01390   0.53622   0.01267  Uiso   1.00
C117   C     0.30800   0.80280   0.52047   0.01267  Uiso   1.00
C118   C     0.42790   0.86110   0.55262   0.01267  Uiso   1.00
C119   C     0.32090   0.73580   0.56969   0.01267  Uiso   1.00
C120   C     0.49160   0.69550   0.56153   0.01267  Uiso   1.00
C121   C     0.36650   0.63420   0.52839   0.01267  Uiso   1.00
C122   C     0.47280   0.75250   0.50876   0.01267  Uiso   1.00
C123   C     0.24290   0.91720   0.61571   0.01267  Uiso   1.00
C124   C     0.31280   0.91430   0.63671   0.01267  Uiso   1.00
C125   C     0.37510   0.84010   0.63500   0.01267  Uiso   1.00
C126   C     0.39640   0.68510   0.63858   0.01267  Uiso   1.00
C127   C     0.34800   0.60450   0.64503   0.01267  Uiso   1.00
C128   C     0.21700   0.52510   0.63323   0.01267  Uiso   1.00
C129   C     0.14000   0.51980   0.61412   0.01267  Uiso   1.00
C130   C     0.07210   0.58930   0.61792   0.01267  Uiso   1.00
C131   C     0.13330   0.77210   0.68001   0.01267  Uiso   1.00
C132   C     0.09850   0.77440   0.73520   0.01267  Uiso   1.00
C133   C     0.96990   0.81030   0.70222   0.01267  Uiso   1.00
C134   C     0.03870   0.93450   0.73086   0.01267  Uiso   1.00
C135   C     0.07310   0.93580   0.67777   0.01267  Uiso   1.00
C136   C     0.20530   0.90070   0.71245   0.01267  Uiso   1.00
C137   C     0.03610   0.05350   0.80380   0.01267  Uiso   1.00
C138   C     0.00200   0.98360   0.82128   0.01267  Uiso   1.00
C139   C     0.97360   0.90440   0.80731   0.01267  Uiso   1.00
C140   C     0.86760   0.84080   0.77734   0.01267  Uiso   1.00
C141   C     0.79340   0.86070   0.75949   0.01267  Uiso   1.00
C142   C     0.74420   0.96050   0.72549   0.01267  Uiso   1.00
C143   C     0.77050   0.03330   0.70788   0.01267  Uiso   1.00
C144   C     0.78720   0.11950   0.72127   0.01267  Uiso   1.00
N1     N     0.35390   0.38360   0.53697   0.01267  Uiso   1.00
N2     N     0.18340   0.47570   0.52881   0.01267  Uiso   1.00
N3     N     0.22720   0.52490   0.47726   0.01267  Uiso   1.00
N4     N     0.40440   0.44010   0.48073   0.01267  Uiso   1.00
N5     N     0.24210   0.34340   0.49062   0.01267  Uiso   1.00
N6     N     0.06090   0.43030   0.43964   0.01267  Uiso   1.00
N7     N     0.22400   0.23000   0.41221   0.01267  Uiso   1.00
N8     N     0.95850   0.16260   0.42542   0.01267  Uiso   1.00
N9     N     0.15190   0.06720   0.47917   0.01267  Uiso   1.00
N10    N     0.98970   0.25120   0.51083   0.01267  Uiso   1.00
N11    N     0.32450   0.35060   0.38055   0.01267  Uiso   1.00
N12    N     0.16400   0.25750   0.35746   0.01267  Uiso   1.00
N13    N     0.22860   0.09910   0.37244   0.01267  Uiso   1.00
N14    N     0.39770   0.17310   0.39180   0.01267  Uiso   1.00
N15    N     0.34180   0.23030   0.33697   0.01267  Uiso   1.00
N16    N     0.40280   0.22890   0.24706   0.01267  Uiso   1.00
N17    N     0.60130   0.28560   0.29862   0.01267  Uiso   1.00
N18    N     0.49980   0.47750   0.25490   0.01267  Uiso   1.00
N19    N     0.43630   0.48460   0.33913   0.01267  Uiso   1.00
N20    N     0.22780   0.43120   0.28304   0.01267  Uiso   1.00
N21    N     0.53370   0.59710   0.21134   0.01267  Uiso   1.00
N22    N     0.60720   0.41850   0.20842   0.01267  Uiso   1.00
N23    N     0.68280   0.43220   0.25824   0.01267  Uiso   1.00
N24    N     0.63040   0.61950   0.26304   0.01267  Uiso   1.00
N25    N     0.64610   0.11640   0.03697   0.01267  Uiso   1.00
N26    N     0.81660   0.02430   0.02881   0.01267  Uiso   1.00
N27    N     0.77280   0.97510   0.97726   0.01267  Uiso   1.00
N28    N     0.59560   0.05990   0.98073   0.01267  Uiso   1.00
N29    N     0.75790   0.15660   0.99062   0.01267  Uiso   1.00
N30    N     0.93910   0.06970   0.93964   0.01267  Uiso   1.00
N31    N     0.77600   0.27000   0.91221   0.01267  Uiso   1.00
N32    N     0.04150   0.33740   0.92542   0.01267  Uiso   1.00
N33    N     0.84810   0.43280   0.97917   0.01267  Uiso   1.00
N34    N     0.01030   0.24880   0.01083   0.01267  Uiso   1.00
N35    N     0.67550   0.14940   0.88055   0.01267  Uiso   1.00
N36    N     0.83600   0.24250   0.85746   0.01267  Uiso   1.00
N37    N     0.77140   0.40090   0.87244   0.01267  Uiso   1.00
N38    N     0.60230   0.32690   0.89180   0.01267  Uiso   1.00
N39    N     0.65820   0.26970   0.83697   0.01267  Uiso   1.00
N40    N     0.59720   0.27110   0.74706   0.01267  Uiso   1.00
N41    N     0.39870   0.21440   0.79862   0.01267  Uiso   1.00
N42    N     0.50020   0.02250   0.75490   0.01267  Uiso   1.00
N43    N     0.56370   0.01540   0.83913   0.01267  Uiso   1.00
N44    N     0.77220   0.06880   0.78304   0.01267  Uiso   1.00
N45    N     0.46630   0.90290   0.71134   0.01267  Uiso   1.00
N46    N     0.39280   0.08150   0.70842   0.01267  Uiso   1.00
N47    N     0.31720   0.06780   0.75824   0.01267  Uiso   1.00
N48    N     0.36960   0.88050   0.76304   0.01267  Uiso   1.00
N49    N     0.85390   0.61640   0.96303   0.01267  Uiso   1.00
N50    N     0.68340   0.52430   0.97119   0.01267  Uiso   1.00
N51    N     0.72720   0.47510   0.02274   0.01267  Uiso   1.00
N52    N     0.90440   0.55990   0.01927   0.01267  Uiso   1.00
N53    N     0.74210   0.65660   0.00938   0.01267  Uiso   1.00
N54    N     0.56090   0.56970   0.06036   0.01267  Uiso   1.00
N55    N     0.72400   0.77000   0.08779   0.01267  Uiso   1.00
N56    N     0.45850   0.83740   0.07458   0.01267  Uiso   1.00
N57    N     0.65190   0.93280   0.02083   0.01267  Uiso   1.00
N58    N     0.48970   0.74880   0.98917   0.01267  Uiso   1.00
N59    N     0.82450   0.64940   0.11945   0.01267  Uiso   1.00
N60    N     0.66400   0.74250   0.14254   0.01267  Uiso   1.00
N61    N     0.72860   0.90090   0.12756   0.01267  Uiso   1.00
N62    N     0.89770   0.82690   0.10820   0.01267  Uiso   1.00
N63    N     0.84180   0.76970   0.16303   0.01267  Uiso   1.00
N64    N     0.90280   0.77110   0.25294   0.01267  Uiso   1.00
N65    N     0.10130   0.71440   0.20138   0.01267  Uiso   1.00
N66    N     0.99980   0.52250   0.24510   0.01267  Uiso   1.00
N67    N     0.93630   0.51540   0.16087   0.01267  Uiso   1.00
N68    N     0.72780   0.56880   0.21696   0.01267  Uiso   1.00
N69    N     0.03370   0.40290   0.28866   0.01267  Uiso   1.00
N70    N     0.10720   0.58150   0.29158   0.01267  Uiso   1.00
N71    N     0.18280   0.56780   0.24176   0.01267  Uiso   1.00
N72    N     0.13040   0.38050   0.23696   0.01267  Uiso   1.00
N73    N     0.14610   0.88360   0.46303   0.01267  Uiso   1.00
N74    N     0.31660   0.97570   0.47119   0.01267  Uiso   1.00
N75    N     0.27280   0.02490   0.52274   0.01267  Uiso   1.00
N76    N     0.09560   0.94010   0.51927   0.01267  Uiso   1.00
N77    N     0.25790   0.84340   0.50938   0.01267  Uiso   1.00
N78    N     0.43910   0.93030   0.56036   0.01267  Uiso   1.00
N79    N     0.27600   0.73000   0.58779   0.01267  Uiso   1.00
N80    N     0.54150   0.66260   0.57458   0.01267  Uiso   1.00
N81    N     0.34810   0.56720   0.52083   0.01267  Uiso   1.00
N82    N     0.51030   0.75120   0.48917   0.01267  Uiso   1.00
N83    N     0.17550   0.85060   0.61945   0.01267  Uiso   1.00
N84    N     0.33600   0.75750   0.64254   0.01267  Uiso   1.00
N85    N     0.27140   0.59910   0.62756   0.01267  Uiso   1.00
N86    N     0.10230   0.67310   0.60820   0.01267  Uiso   1.00
N87    N     0.15820   0.73030   0.66303   0.01267  Uiso   1.00
N88    N     0.09720   0.72890   0.75294   0.01267  Uiso   1.00
N89    N     0.89870   0.78560   0.70138   0.01267  Uiso   1.00
N90    N     0.00020   0.97750   0.74510   0.01267  Uiso   1.00
N91    N     0.06370   0.98460   0.66087   0.01267  Uiso   1.00
N92    N     0.27220   0.93120   0.71696   0.01267  Uiso   1.00
N93    N     0.96630   0.09710   0.78866   0.01267  Uiso   1.00
N94    N     0.89280   0.91850   0.79158   0.01267  Uiso   1.00
N95    N     0.81720   0.93220   0.74176   0.01267  Uiso   1.00
N96    N     0.86960   0.11950   0.73696   0.01267  Uiso   1.00
Fe9    Fe    0.89970   0.75251   0.54018   0.01267  Uiso   1.00
Fe10   Fe    0.58863   0.64650   0.70612   0.01267  Uiso   1.00
Fe11   Fe    0.10030   0.74749   0.04018   0.01267  Uiso   1.00
Fe12   Fe    0.41137   0.85350   0.20612   0.01267  Uiso   1.00
Fe13   Fe    0.39970   0.24749   0.95982   0.01267  Uiso   1.00
Fe14   Fe    0.08863   0.35350   0.79388   0.01267  Uiso   1.00
Fe15   Fe    0.60030   0.25251   0.45982   0.01267  Uiso   1.00
Fe16   Fe    0.91137   0.14650   0.29388   0.01267  Uiso   1.00
Ni13   Ni    0.70274   0.54602   0.49367   0.01267  Uiso   1.00
Ni14   Ni    0.71712   0.77691   0.62455   0.01267  Uiso   1.00
Ni15   Ni    0.38712   0.47818   0.76483   0.01267  Uiso   1.00
Ni16   Ni    0.29726   0.95398   0.99367   0.01267  Uiso   1.00
Ni17   Ni    0.28288   0.72309   0.12455   0.01267  Uiso   1.00
Ni18   Ni    0.61288   0.02182   0.26483   0.01267  Uiso   1.00
Ni19   Ni    0.20274   0.45398   0.00633   0.01267  Uiso   1.00
Ni20   Ni    0.21712   0.22309   0.87545   0.01267  Uiso   1.00
Ni21   Ni    0.88712   0.52182   0.73517   0.01267  Uiso   1.00
Ni22   Ni    0.79726   0.04602   0.50633   0.01267  Uiso   1.00
Ni23   Ni    0.78288   0.27691   0.37545   0.01267  Uiso   1.00
Ni24   Ni    0.11288   0.97818   0.23517   0.01267  Uiso   1.00
H265   H     0.35790   0.59030   0.73010   0.01267  Uiso   1.00
H266   H     0.60800   0.64800   0.46850   0.01267  Uiso   1.00
H267   H     0.62800   0.57900   0.45020   0.01267  Uiso   1.00
H268   H     0.73500   0.71700   0.46170   0.01267  Uiso   1.00
H269   H     0.67700   0.70500   0.43530   0.01267  Uiso   1.00
H270   H     0.75300   0.57400   0.42450   0.01267  Uiso   1.00
H271   H     0.80600   0.65900   0.42360   0.01267  Uiso   1.00
H272   H     0.86900   0.63900   0.46580   0.01267  Uiso   1.00
H273   H     0.89800   0.57300   0.44640   0.01267  Uiso   1.00
H274   H     0.80900   0.48600   0.46260   0.01267  Uiso   1.00
H275   H     0.93600   0.46100   0.47970   0.01267  Uiso   1.00
H276   H     0.91400   0.54200   0.49890   0.01267  Uiso   1.00
H277   H     0.82100   0.37800   0.49960   0.01267  Uiso   1.00
H278   H     0.88900   0.41200   0.52140   0.01267  Uiso   1.00
H279   H     0.79500   0.51500   0.53130   0.01267  Uiso   1.00
H280   H     0.70300   0.36400   0.52880   0.01267  Uiso   1.00
H281   H     0.76100   0.39500   0.55340   0.01267  Uiso   1.00
H282   H     0.63100   0.42200   0.56890   0.01267  Uiso   1.00
H283   H     0.67100   0.51400   0.56350   0.01267  Uiso   1.00
H284   H     0.52000   0.50300   0.54970   0.01267  Uiso   1.00
H285   H     0.56300   0.43800   0.52400   0.01267  Uiso   1.00
H286   H     0.54600   0.57800   0.51120   0.01267  Uiso   1.00
H287   H     0.60300   0.60500   0.53090   0.01267  Uiso   1.00
H288   H     0.64700   0.63900   0.63260   0.01267  Uiso   1.00
H289   H     0.63800   0.65100   0.60510   0.01267  Uiso   1.00
H290   H     0.71300   0.52000   0.61460   0.01267  Uiso   1.00
H291   H     0.76400   0.59200   0.59820   0.01267  Uiso   1.00
H292   H     0.84300   0.53600   0.63380   0.01267  Uiso   1.00
H293   H     0.79000   0.58500   0.65390   0.01267  Uiso   1.00
H294   H     0.89800   0.66900   0.61810   0.01267  Uiso   1.00
H295   H     0.92500   0.65400   0.64820   0.01267  Uiso   1.00
H296   H     0.82600   0.73600   0.65880   0.01267  Uiso   1.00
H297   H     0.91600   0.81500   0.61980   0.01267  Uiso   1.00
H298   H     0.95500   0.80300   0.64910   0.01267  Uiso   1.00
H299   H     0.88500   0.94300   0.64340   0.01267  Uiso   1.00
H300   H     0.82700   0.89700   0.66450   0.01267  Uiso   1.00
H301   H     0.78600   0.92000   0.61160   0.01267  Uiso   1.00
H302   H     0.75600   0.02900   0.63060   0.01267  Uiso   1.00
H303   H     0.69600   0.96400   0.65260   0.01267  Uiso   1.00
H304   H     0.61600   0.03500   0.61740   0.01267  Uiso   1.00
H305   H     0.66500   0.97500   0.59750   0.01267  Uiso   1.00
H306   H     0.55800   0.90600   0.63960   0.01267  Uiso   1.00
H307   H     0.51400   0.92100   0.60700   0.01267  Uiso   1.00
H308   H     0.61300   0.83000   0.59130   0.01267  Uiso   1.00
H309   H     0.56600   0.78200   0.60840   0.01267  Uiso   1.00
H310   H     0.49300   0.36400   0.77950   0.01267  Uiso   1.00
H311   H     0.43500   0.37900   0.80070   0.01267  Uiso   1.00
H312   H     0.58000   0.47400   0.78880   0.01267  Uiso   1.00
H313   H     0.57000   0.40100   0.81340   0.01267  Uiso   1.00
H314   H     0.55500   0.53400   0.83140   0.01267  Uiso   1.00
H315   H     0.45300   0.49800   0.82960   0.01267  Uiso   1.00
H316   H     0.52600   0.60800   0.79430   0.01267  Uiso   1.00
H317   H     0.46400   0.64700   0.81900   0.01267  Uiso   1.00
H318   H     0.35400   0.57700   0.80190   0.01267  Uiso   1.00
H319   H     0.35200   0.70500   0.79040   0.01267  Uiso   1.00
H320   H     0.41900   0.68000   0.76520   0.01267  Uiso   1.00
H321   H     0.24900   0.62100   0.77030   0.01267  Uiso   1.00
H322   H     0.27400   0.69100   0.74870   0.01267  Uiso   1.00
H323   H     0.19200   0.52000   0.73890   0.01267  Uiso   1.00
H324   H     0.21500   0.59500   0.71280   0.01267  Uiso   1.00
H325   H     0.32200   0.47400   0.70190   0.01267  Uiso   1.00
H326   H     0.22000   0.45600   0.69530   0.01267  Uiso   1.00
H327   H     0.29000   0.33000   0.70450   0.01267  Uiso   1.00
H328   H     0.22900   0.36400   0.73620   0.01267  Uiso   1.00
H329   H     0.41200   0.37900   0.72260   0.01267  Uiso   1.00
H330   H     0.38400   0.33500   0.74680   0.01267  Uiso   1.00
H331   H     0.64210   0.90970   0.23010   0.01267  Uiso   1.00
H332   H     0.39200   0.85200   0.96850   0.01267  Uiso   1.00
H333   H     0.37200   0.92100   0.95020   0.01267  Uiso   1.00
H334   H     0.26500   0.78300   0.96170   0.01267  Uiso   1.00
H335   H     0.32300   0.79500   0.93530   0.01267  Uiso   1.00
H336   H     0.24700   0.92600   0.92450   0.01267  Uiso   1.00
H337   H     0.19400   0.84100   0.92360   0.01267  Uiso   1.00
H338   H     0.13100   0.86100   0.96580   0.01267  Uiso   1.00
H339   H     0.10200   0.92700   0.94640   0.01267  Uiso   1.00
H340   H     0.19100   0.01400   0.96260   0.01267  Uiso   1.00
H341   H     0.06400   0.03900   0.97970   0.01267  Uiso   1.00
H342   H     0.08600   0.95800   0.99890   0.01267  Uiso   1.00
H343   H     0.17900   0.12200   0.99960   0.01267  Uiso   1.00
H344   H     0.11100   0.08800   0.02140   0.01267  Uiso   1.00
H345   H     0.20500   0.98500   0.03130   0.01267  Uiso   1.00
H346   H     0.29700   0.13600   0.02880   0.01267  Uiso   1.00
H347   H     0.23900   0.10500   0.05340   0.01267  Uiso   1.00
H348   H     0.36900   0.07800   0.06890   0.01267  Uiso   1.00
H349   H     0.32900   0.98600   0.06350   0.01267  Uiso   1.00
H350   H     0.48000   0.99700   0.04970   0.01267  Uiso   1.00
H351   H     0.43700   0.06200   0.02400   0.01267  Uiso   1.00
H352   H     0.45400   0.92200   0.01120   0.01267  Uiso   1.00
H353   H     0.39700   0.89500   0.03090   0.01267  Uiso   1.00
H354   H     0.35300   0.86100   0.13260   0.01267  Uiso   1.00
H355   H     0.36200   0.84900   0.10510   0.01267  Uiso   1.00
H356   H     0.28700   0.98000   0.11460   0.01267  Uiso   1.00
H357   H     0.23600   0.90800   0.09820   0.01267  Uiso   1.00
H358   H     0.15700   0.96400   0.13380   0.01267  Uiso   1.00
H359   H     0.21000   0.91500   0.15390   0.01267  Uiso   1.00
H360   H     0.10200   0.83100   0.11810   0.01267  Uiso   1.00
H361   H     0.07500   0.84600   0.14820   0.01267  Uiso   1.00
H362   H     0.17400   0.76400   0.15880   0.01267  Uiso   1.00
H363   H     0.08400   0.68500   0.11980   0.01267  Uiso   1.00
H364   H     0.04500   0.69700   0.14910   0.01267  Uiso   1.00
H365   H     0.11500   0.55700   0.14340   0.01267  Uiso   1.00
H366   H     0.17300   0.60300   0.16450   0.01267  Uiso   1.00
H367   H     0.21400   0.58000   0.11160   0.01267  Uiso   1.00
H368   H     0.24400   0.47100   0.13060   0.01267  Uiso   1.00
H369   H     0.30400   0.53600   0.15260   0.01267  Uiso   1.00
H370   H     0.38400   0.46500   0.11740   0.01267  Uiso   1.00
H371   H     0.33500   0.52500   0.09750   0.01267  Uiso   1.00
H372   H     0.44200   0.59400   0.13960   0.01267  Uiso   1.00
H373   H     0.48600   0.57900   0.10700   0.01267  Uiso   1.00
H374   H     0.38700   0.67000   0.09130   0.01267  Uiso   1.00
H375   H     0.43400   0.71800   0.10840   0.01267  Uiso   1.00
H376   H     0.50700   0.13600   0.27950   0.01267  Uiso   1.00
H377   H     0.56500   0.12100   0.30070   0.01267  Uiso   1.00
H378   H     0.42000   0.02600   0.28880   0.01267  Uiso   1.00
H379   H     0.43000   0.09900   0.31340   0.01267  Uiso   1.00
H380   H     0.44500   0.96600   0.33140   0.01267  Uiso   1.00
H381   H     0.54700   0.00200   0.32960   0.01267  Uiso   1.00
H382   H     0.47400   0.89200   0.29430   0.01267  Uiso   1.00
H383   H     0.53600   0.85300   0.31900   0.01267  Uiso   1.00
H384   H     0.64600   0.92300   0.30190   0.01267  Uiso   1.00
H385   H     0.64800   0.79500   0.29040   0.01267  Uiso   1.00
H386   H     0.58100   0.82000   0.26520   0.01267  Uiso   1.00
H387   H     0.75100   0.87900   0.27030   0.01267  Uiso   1.00
H388   H     0.72600   0.80900   0.24870   0.01267  Uiso   1.00
H389   H     0.80800   0.98000   0.23890   0.01267  Uiso   1.00
H390   H     0.78500   0.90500   0.21280   0.01267  Uiso   1.00
H391   H     0.67800   0.02600   0.20190   0.01267  Uiso   1.00
H392   H     0.78000   0.04400   0.19530   0.01267  Uiso   1.00
H393   H     0.71000   0.17000   0.20450   0.01267  Uiso   1.00
H394   H     0.77100   0.13600   0.23620   0.01267  Uiso   1.00
H395   H     0.58800   0.12100   0.22260   0.01267  Uiso   1.00
H396   H     0.61600   0.16500   0.24680   0.01267  Uiso   1.00
H397   H     0.85790   0.40970   0.76990   0.01267  Uiso   1.00
H398   H     0.10800   0.35200   0.03150   0.01267  Uiso   1.00
H399   H     0.12800   0.42100   0.04980   0.01267  Uiso   1.00
H400   H     0.23500   0.28300   0.03830   0.01267  Uiso   1.00
H401   H     0.17700   0.29500   0.06470   0.01267  Uiso   1.00
H402   H     0.25300   0.42600   0.07550   0.01267  Uiso   1.00
H403   H     0.30600   0.34100   0.07640   0.01267  Uiso   1.00
H404   H     0.36900   0.36100   0.03420   0.01267  Uiso   1.00
H405   H     0.39800   0.42700   0.05360   0.01267  Uiso   1.00
H406   H     0.30900   0.51400   0.03740   0.01267  Uiso   1.00
H407   H     0.43600   0.53900   0.02030   0.01267  Uiso   1.00
H408   H     0.41400   0.45800   0.00110   0.01267  Uiso   1.00
H409   H     0.32100   0.62200   0.00040   0.01267  Uiso   1.00
H410   H     0.38900   0.58800   0.97860   0.01267  Uiso   1.00
H411   H     0.29500   0.48500   0.96870   0.01267  Uiso   1.00
H412   H     0.20300   0.63600   0.97120   0.01267  Uiso   1.00
H413   H     0.26100   0.60500   0.94660   0.01267  Uiso   1.00
H414   H     0.13100   0.57800   0.93110   0.01267  Uiso   1.00
H415   H     0.17100   0.48600   0.93650   0.01267  Uiso   1.00
H416   H     0.02000   0.49700   0.95030   0.01267  Uiso   1.00
H417   H     0.06300   0.56200   0.97600   0.01267  Uiso   1.00
H418   H     0.04600   0.42200   0.98880   0.01267  Uiso   1.00
H419   H     0.10300   0.39500   0.96910   0.01267  Uiso   1.00
H420   H     0.14700   0.36100   0.86740   0.01267  Uiso   1.00
H421   H     0.13800   0.34900   0.89490   0.01267  Uiso   1.00
H422   H     0.21300   0.48000   0.88540   0.01267  Uiso   1.00
H423   H     0.26400   0.40800   0.90180   0.01267  Uiso   1.00
H424   H     0.34300   0.46400   0.86620   0.01267  Uiso   1.00
H425   H     0.29000   0.41500   0.84610   0.01267  Uiso   1.00
H426   H     0.39800   0.33100   0.88190   0.01267  Uiso   1.00
H427   H     0.42500   0.34600   0.85180   0.01267  Uiso   1.00
H428   H     0.32600   0.26400   0.84120   0.01267  Uiso   1.00
H429   H     0.41600   0.18500   0.88020   0.01267  Uiso   1.00
H430   H     0.45500   0.19700   0.85090   0.01267  Uiso   1.00
H431   H     0.38500   0.05700   0.85660   0.01267  Uiso   1.00
H432   H     0.32700   0.10300   0.83550   0.01267  Uiso   1.00
H433   H     0.28600   0.08000   0.88840   0.01267  Uiso   1.00
H434   H     0.25600   0.97100   0.86940   0.01267  Uiso   1.00
H435   H     0.19600   0.03600   0.84740   0.01267  Uiso   1.00
H436   H     0.11600   0.96500   0.88260   0.01267  Uiso   1.00
H437   H     0.16500   0.02500   0.90250   0.01267  Uiso   1.00
H438   H     0.05800   0.09400   0.86040   0.01267  Uiso   1.00
H439   H     0.01400   0.07900   0.89300   0.01267  Uiso   1.00
H440   H     0.11300   0.17000   0.90870   0.01267  Uiso   1.00
H441   H     0.06600   0.21800   0.89160   0.01267  Uiso   1.00
H442   H     0.99300   0.63600   0.72050   0.01267  Uiso   1.00
H443   H     0.93500   0.62100   0.69930   0.01267  Uiso   1.00
H444   H     0.08000   0.52600   0.71120   0.01267  Uiso   1.00
H445   H     0.07000   0.59900   0.68660   0.01267  Uiso   1.00
H446   H     0.05500   0.46600   0.66860   0.01267  Uiso   1.00
H447   H     0.95300   0.50200   0.67040   0.01267  Uiso   1.00
H448   H     0.02600   0.39200   0.70570   0.01267  Uiso   1.00
H449   H     0.96400   0.35300   0.68100   0.01267  Uiso   1.00
H450   H     0.85400   0.42300   0.69810   0.01267  Uiso   1.00
H451   H     0.85200   0.29500   0.70960   0.01267  Uiso   1.00
H452   H     0.91900   0.32000   0.73480   0.01267  Uiso   1.00
H453   H     0.74900   0.37900   0.72970   0.01267  Uiso   1.00
H454   H     0.77400   0.30900   0.75130   0.01267  Uiso   1.00
H455   H     0.69200   0.48000   0.76110   0.01267  Uiso   1.00
H456   H     0.71500   0.40500   0.78720   0.01267  Uiso   1.00
H457   H     0.82200   0.52600   0.79810   0.01267  Uiso   1.00
H458   H     0.72000   0.54400   0.80470   0.01267  Uiso   1.00
H459   H     0.79000   0.67000   0.79550   0.01267  Uiso   1.00
H460   H     0.72900   0.63600   0.76380   0.01267  Uiso   1.00
H461   H     0.91200   0.62100   0.77740   0.01267  Uiso   1.00
H462   H     0.88400   0.66500   0.75320   0.01267  Uiso   1.00
H463   H     0.14210   0.09030   0.26990   0.01267  Uiso   1.00
H464   H     0.89200   0.14800   0.53150   0.01267  Uiso   1.00
H465   H     0.87200   0.07900   0.54980   0.01267  Uiso   1.00
H466   H     0.76500   0.21700   0.53830   0.01267  Uiso   1.00
H467   H     0.82300   0.20500   0.56470   0.01267  Uiso   1.00
H468   H     0.74700   0.07400   0.57550   0.01267  Uiso   1.00
H469   H     0.69400   0.15900   0.57640   0.01267  Uiso   1.00
H470   H     0.63100   0.13900   0.53420   0.01267  Uiso   1.00
H471   H     0.60200   0.07300   0.55360   0.01267  Uiso   1.00
H472   H     0.69100   0.98600   0.53740   0.01267  Uiso   1.00
H473   H     0.56400   0.96100   0.52030   0.01267  Uiso   1.00
H474   H     0.58600   0.04200   0.50110   0.01267  Uiso   1.00
H475   H     0.67900   0.87800   0.50040   0.01267  Uiso   1.00
H476   H     0.61100   0.91200   0.47860   0.01267  Uiso   1.00
H477   H     0.70500   0.01500   0.46870   0.01267  Uiso   1.00
H478   H     0.79700   0.86400   0.47120   0.01267  Uiso   1.00
H479   H     0.73900   0.89500   0.44660   0.01267  Uiso   1.00
H480   H     0.86900   0.92200   0.43110   0.01267  Uiso   1.00
H481   H     0.82900   0.01400   0.43650   0.01267  Uiso   1.00
H482   H     0.98000   0.00300   0.45030   0.01267  Uiso   1.00
H483   H     0.93700   0.93800   0.47600   0.01267  Uiso   1.00
H484   H     0.95400   0.07800   0.48880   0.01267  Uiso   1.00
H485   H     0.89700   0.10500   0.46910   0.01267  Uiso   1.00
H486   H     0.85300   0.13900   0.36740   0.01267  Uiso   1.00
H487   H     0.86200   0.15100   0.39490   0.01267  Uiso   1.00
H488   H     0.78700   0.02000   0.38540   0.01267  Uiso   1.00
H489   H     0.73600   0.09200   0.40180   0.01267  Uiso   1.00
H490   H     0.65700   0.03600   0.36620   0.01267  Uiso   1.00
H491   H     0.71000   0.08500   0.34610   0.01267  Uiso   1.00
H492   H     0.60200   0.16900   0.38190   0.01267  Uiso   1.00
H493   H     0.57500   0.15400   0.35180   0.01267  Uiso   1.00
H494   H     0.67400   0.23600   0.34120   0.01267  Uiso   1.00
H495   H     0.58400   0.31500   0.38020   0.01267  Uiso   1.00
H496   H     0.54500   0.30300   0.35090   0.01267  Uiso   1.00
H497   H     0.61500   0.44300   0.35660   0.01267  Uiso   1.00
H498   H     0.67300   0.39700   0.33550   0.01267  Uiso   1.00
H499   H     0.71400   0.42000   0.38840   0.01267  Uiso   1.00
H500   H     0.74400   0.52900   0.36940   0.01267  Uiso   1.00
H501   H     0.80400   0.46400   0.34740   0.01267  Uiso   1.00
H502   H     0.88400   0.53500   0.38260   0.01267  Uiso   1.00
H503   H     0.83500   0.47500   0.40250   0.01267  Uiso   1.00
H504   H     0.94200   0.40600   0.36040   0.01267  Uiso   1.00
H505   H     0.98600   0.42100   0.39300   0.01267  Uiso   1.00
H506   H     0.88700   0.33000   0.40870   0.01267  Uiso   1.00
H507   H     0.93400   0.28200   0.39160   0.01267  Uiso   1.00
H508   H     0.00700   0.86400   0.22050   0.01267  Uiso   1.00
H509   H     0.06500   0.87900   0.19930   0.01267  Uiso   1.00
H510   H     0.92000   0.97400   0.21120   0.01267  Uiso   1.00
H511   H     0.93000   0.90100   0.18660   0.01267  Uiso   1.00
H512   H     0.94500   0.03400   0.16860   0.01267  Uiso   1.00
H513   H     0.04700   0.99800   0.17040   0.01267  Uiso   1.00
H514   H     0.97400   0.10800   0.20570   0.01267  Uiso   1.00
H515   H     0.03600   0.14700   0.18100   0.01267  Uiso   1.00
H516   H     0.14600   0.07700   0.19810   0.01267  Uiso   1.00
H517   H     0.14800   0.20500   0.20960   0.01267  Uiso   1.00
H518   H     0.08100   0.18000   0.23480   0.01267  Uiso   1.00
H519   H     0.25100   0.12100   0.22970   0.01267  Uiso   1.00
H520   H     0.22600   0.19100   0.25130   0.01267  Uiso   1.00
H521   H     0.30800   0.02000   0.26110   0.01267  Uiso   1.00
H522   H     0.28500   0.09500   0.28720   0.01267  Uiso   1.00
H523   H     0.17800   0.97400   0.29810   0.01267  Uiso   1.00
H524   H     0.28000   0.95600   0.30470   0.01267  Uiso   1.00
H525   H     0.21000   0.83000   0.29550   0.01267  Uiso   1.00
H526   H     0.27100   0.86400   0.26380   0.01267  Uiso   1.00
H527   H     0.08800   0.87900   0.27740   0.01267  Uiso   1.00
H528   H     0.11600   0.83500   0.25320   0.01267  Uiso   1.00
C145   C     0.70520   0.67510   0.44851   0.01267  Uiso   1.00
C146   C     0.77930   0.62530   0.43548   0.01267  Uiso   1.00
C147   C     0.84860   0.59260   0.45402   0.01267  Uiso   1.00
C148   C     0.88540   0.49280   0.48936   0.01267  Uiso   1.00
C149   C     0.84580   0.43210   0.50887   0.01267  Uiso   1.00
C150   C     0.72370   0.41580   0.53989   0.01267  Uiso   1.00
C151   C     0.64900   0.45990   0.55395   0.01267  Uiso   1.00
C152   C     0.57250   0.48610   0.53622   0.01267  Uiso   1.00
C153   C     0.80800   0.69720   0.52047   0.01267  Uiso   1.00
C154   C     0.92790   0.63890   0.55262   0.01267  Uiso   1.00
C155   C     0.82090   0.76420   0.56969   0.01267  Uiso   1.00
C156   C     0.99160   0.80450   0.56153   0.01267  Uiso   1.00
C157   C     0.86650   0.86580   0.52839   0.01267  Uiso   1.00
C158   C     0.97280   0.74750   0.50876   0.01267  Uiso   1.00
C159   C     0.74290   0.58280   0.61571   0.01267  Uiso   1.00
C160   C     0.81280   0.58570   0.63671   0.01267  Uiso   1.00
C161   C     0.87510   0.65990   0.63500   0.01267  Uiso   1.00
C162   C     0.89640   0.81490   0.63858   0.01267  Uiso   1.00
C163   C     0.84800   0.89550   0.64503   0.01267  Uiso   1.00
C164   C     0.71700   0.97490   0.63323   0.01267  Uiso   1.00
C165   C     0.64000   0.98020   0.61412   0.01267  Uiso   1.00
C166   C     0.57210   0.91070   0.61792   0.01267  Uiso   1.00
C167   C     0.63330   0.72790   0.68001   0.01267  Uiso   1.00
C168   C     0.59850   0.72560   0.73520   0.01267  Uiso   1.00
C169   C     0.46990   0.68970   0.70222   0.01267  Uiso   1.00
C170   C     0.53870   0.56550   0.73086   0.01267  Uiso   1.00
C171   C     0.57310   0.56420   0.67777   0.01267  Uiso   1.00
C172   C     0.70530   0.59930   0.71245   0.01267  Uiso   1.00
C173   C     0.53610   0.44650   0.80380   0.01267  Uiso   1.00
C174   C     0.50200   0.51640   0.82128   0.01267  Uiso   1.00
C175   C     0.47360   0.59560   0.80731   0.01267  Uiso   1.00
C176   C     0.36760   0.65920   0.77734   0.01267  Uiso   1.00
C177   C     0.29340   0.63930   0.75949   0.01267  Uiso   1.00
C178   C     0.24420   0.53950   0.72549   0.01267  Uiso   1.00
C179   C     0.27050   0.46670   0.70788   0.01267  Uiso   1.00
C180   C     0.28720   0.38050   0.72127   0.01267  Uiso   1.00
C181   C     0.29480   0.82490   0.94851   0.01267  Uiso   1.00
C182   C     0.22070   0.87470   0.93548   0.01267  Uiso   1.00
C183   C     0.15140   0.90740   0.95402   0.01267  Uiso   1.00
C184   C     0.11460   0.00720   0.98936   0.01267  Uiso   1.00
C185   C     0.15420   0.06790   0.00887   0.01267  Uiso   1.00
C186   C     0.27630   0.08420   0.03989   0.01267  Uiso   1.00
C187   C     0.35100   0.04010   0.05395   0.01267  Uiso   1.00
C188   C     0.42750   0.01390   0.03622   0.01267  Uiso   1.00
C189   C     0.19200   0.80280   0.02047   0.01267  Uiso   1.00
C190   C     0.07210   0.86110   0.05262   0.01267  Uiso   1.00
C191   C     0.17910   0.73580   0.06969   0.01267  Uiso   1.00
C192   C     0.00840   0.69550   0.06153   0.01267  Uiso   1.00
C193   C     0.13350   0.63420   0.02839   0.01267  Uiso   1.00
C194   C     0.02720   0.75250   0.00876   0.01267  Uiso   1.00
C195   C     0.25710   0.91720   0.11571   0.01267  Uiso   1.00
C196   C     0.18720   0.91430   0.13671   0.01267  Uiso   1.00
C197   C     0.12490   0.84010   0.13500   0.01267  Uiso   1.00
C198   C     0.10360   0.68510   0.13858   0.01267  Uiso   1.00
C199   C     0.15200   0.60450   0.14503   0.01267  Uiso   1.00
C200   C     0.28300   0.52510   0.13323   0.01267  Uiso   1.00
C201   C     0.36000   0.51980   0.11412   0.01267  Uiso   1.00
C202   C     0.42790   0.58930   0.11792   0.01267  Uiso   1.00
C203   C     0.36670   0.77210   0.18001   0.01267  Uiso   1.00
C204   C     0.40150   0.77440   0.23520   0.01267  Uiso   1.00
C205   C     0.53010   0.81030   0.20222   0.01267  Uiso   1.00
C206   C     0.46130   0.93450   0.23086   0.01267  Uiso   1.00
C207   C     0.42690   0.93580   0.17777   0.01267  Uiso   1.00
C208   C     0.29470   0.90070   0.21245   0.01267  Uiso   1.00
C209   C     0.46390   0.05350   0.30380   0.01267  Uiso   1.00
C210   C     0.49800   0.98360   0.32128   0.01267  Uiso   1.00
C211   C     0.52640   0.90440   0.30731   0.01267  Uiso   1.00
C212   C     0.63240   0.84080   0.27734   0.01267  Uiso   1.00
C213   C     0.70660   0.86070   0.25949   0.01267  Uiso   1.00
C214   C     0.75580   0.96050   0.22549   0.01267  Uiso   1.00
C215   C     0.72950   0.03330   0.20788   0.01267  Uiso   1.00
C216   C     0.71280   0.11950   0.22127   0.01267  Uiso   1.00
C217   C     0.20520   0.32490   0.05149   0.01267  Uiso   1.00
C218   C     0.27930   0.37470   0.06452   0.01267  Uiso   1.00
C219   C     0.34860   0.40740   0.04598   0.01267  Uiso   1.00
C220   C     0.38540   0.50720   0.01064   0.01267  Uiso   1.00
C221   C     0.34580   0.56790   0.99113   0.01267  Uiso   1.00
C222   C     0.22370   0.58420   0.96011   0.01267  Uiso   1.00
C223   C     0.14900   0.54010   0.94605   0.01267  Uiso   1.00
C224   C     0.07250   0.51390   0.96378   0.01267  Uiso   1.00
C225   C     0.30800   0.30280   0.97953   0.01267  Uiso   1.00
C226   C     0.42790   0.36110   0.94738   0.01267  Uiso   1.00
C227   C     0.32090   0.23580   0.93031   0.01267  Uiso   1.00
C228   C     0.49160   0.19550   0.93847   0.01267  Uiso   1.00
C229   C     0.36650   0.13420   0.97161   0.01267  Uiso   1.00
C230   C     0.47280   0.25250   0.99124   0.01267  Uiso   1.00
C231   C     0.24290   0.41720   0.88429   0.01267  Uiso   1.00
C232   C     0.31280   0.41430   0.86329   0.01267  Uiso   1.00
C233   C     0.37510   0.34010   0.86500   0.01267  Uiso   1.00
C234   C     0.39640   0.18510   0.86142   0.01267  Uiso   1.00
C235   C     0.34800   0.10450   0.85497   0.01267  Uiso   1.00
C236   C     0.21700   0.02510   0.86677   0.01267  Uiso   1.00
C237   C     0.14000   0.01980   0.88588   0.01267  Uiso   1.00
C238   C     0.07210   0.08930   0.88208   0.01267  Uiso   1.00
C239   C     0.13330   0.27210   0.81999   0.01267  Uiso   1.00
C240   C     0.09850   0.27440   0.76480   0.01267  Uiso   1.00
C241   C     0.96990   0.31030   0.79778   0.01267  Uiso   1.00
C242   C     0.03870   0.43450   0.76914   0.01267  Uiso   1.00
C243   C     0.07310   0.43580   0.82223   0.01267  Uiso   1.00
C244   C     0.20530   0.40070   0.78755   0.01267  Uiso   1.00
C245   C     0.03610   0.55350   0.69620   0.01267  Uiso   1.00
C246   C     0.00200   0.48360   0.67872   0.01267  Uiso   1.00
C247   C     0.97360   0.40440   0.69269   0.01267  Uiso   1.00
C248   C     0.86760   0.34080   0.72266   0.01267  Uiso   1.00
C249   C     0.79340   0.36070   0.74051   0.01267  Uiso   1.00
C250   C     0.74420   0.46050   0.77451   0.01267  Uiso   1.00
C251   C     0.77050   0.53330   0.79212   0.01267  Uiso   1.00
C252   C     0.78720   0.61950   0.77873   0.01267  Uiso   1.00
C253   C     0.79480   0.17510   0.55149   0.01267  Uiso   1.00
C254   C     0.72070   0.12530   0.56452   0.01267  Uiso   1.00
C255   C     0.65140   0.09260   0.54598   0.01267  Uiso   1.00
C256   C     0.61460   0.99280   0.51064   0.01267  Uiso   1.00
C257   C     0.65420   0.93210   0.49113   0.01267  Uiso   1.00
C258   C     0.77630   0.91580   0.46011   0.01267  Uiso   1.00
C259   C     0.85100   0.95990   0.44605   0.01267  Uiso   1.00
C260   C     0.92750   0.98610   0.46378   0.01267  Uiso   1.00
C261   C     0.69200   0.19720   0.47953   0.01267  Uiso   1.00
C262   C     0.57210   0.13890   0.44738   0.01267  Uiso   1.00
C263   C     0.67910   0.26420   0.43031   0.01267  Uiso   1.00
C264   C     0.50840   0.30450   0.43847   0.01267  Uiso   1.00
C265   C     0.63350   0.36580   0.47161   0.01267  Uiso   1.00
C266   C     0.52720   0.24750   0.49124   0.01267  Uiso   1.00
C267   C     0.75710   0.08280   0.38429   0.01267  Uiso   1.00
C268   C     0.68720   0.08570   0.36329   0.01267  Uiso   1.00
C269   C     0.62490   0.15990   0.36500   0.01267  Uiso   1.00
C270   C     0.60360   0.31490   0.36142   0.01267  Uiso   1.00
C271   C     0.65200   0.39550   0.35497   0.01267  Uiso   1.00
C272   C     0.78300   0.47490   0.36677   0.01267  Uiso   1.00
C273   C     0.86000   0.48020   0.38588   0.01267  Uiso   1.00
C274   C     0.92790   0.41070   0.38208   0.01267  Uiso   1.00
C275   C     0.86670   0.22790   0.31999   0.01267  Uiso   1.00
C276   C     0.90150   0.22560   0.26480   0.01267  Uiso   1.00
C277   C     0.03010   0.18970   0.29778   0.01267  Uiso   1.00
C278   C     0.96130   0.06550   0.26914   0.01267  Uiso   1.00
C279   C     0.92690   0.06420   0.32223   0.01267  Uiso   1.00
C280   C     0.79470   0.09930   0.28755   0.01267  Uiso   1.00
C281   C     0.96390   0.94650   0.19620   0.01267  Uiso   1.00
C282   C     0.99800   0.01640   0.17872   0.01267  Uiso   1.00
C283   C     0.02640   0.09560   0.19269   0.01267  Uiso   1.00
C284   C     0.13240   0.15920   0.22266   0.01267  Uiso   1.00
C285   C     0.20660   0.13930   0.24051   0.01267  Uiso   1.00
C286   C     0.25580   0.03950   0.27451   0.01267  Uiso   1.00
C287   C     0.22950   0.96670   0.29212   0.01267  Uiso   1.00
C288   C     0.21280   0.88050   0.27873   0.01267  Uiso   1.00
N97    N     0.64610   0.61640   0.46303   0.01267  Uiso   1.00
N98    N     0.81660   0.52430   0.47119   0.01267  Uiso   1.00
N99    N     0.77280   0.47510   0.52274   0.01267  Uiso   1.00
N100   N     0.59560   0.55990   0.51927   0.01267  Uiso   1.00
N101   N     0.75790   0.65660   0.50938   0.01267  Uiso   1.00
N102   N     0.93910   0.56970   0.56036   0.01267  Uiso   1.00
N103   N     0.77600   0.77000   0.58779   0.01267  Uiso   1.00
N104   N     0.04150   0.83740   0.57458   0.01267  Uiso   1.00
N105   N     0.84810   0.93280   0.52083   0.01267  Uiso   1.00
N106   N     0.01030   0.74880   0.48917   0.01267  Uiso   1.00
N107   N     0.67550   0.64940   0.61945   0.01267  Uiso   1.00
N108   N     0.83600   0.74250   0.64254   0.01267  Uiso   1.00
N109   N     0.77140   0.90090   0.62756   0.01267  Uiso   1.00
N110   N     0.60230   0.82690   0.60820   0.01267  Uiso   1.00
N111   N     0.65820   0.76970   0.66303   0.01267  Uiso   1.00
N112   N     0.59720   0.77110   0.75294   0.01267  Uiso   1.00
N113   N     0.39870   0.71440   0.70138   0.01267  Uiso   1.00
N114   N     0.50020   0.52250   0.74510   0.01267  Uiso   1.00
N115   N     0.56370   0.51540   0.66087   0.01267  Uiso   1.00
N116   N     0.77220   0.56880   0.71696   0.01267  Uiso   1.00
N117   N     0.46630   0.40290   0.78866   0.01267  Uiso   1.00
N118   N     0.39280   0.58150   0.79158   0.01267  Uiso   1.00
N119   N     0.31720   0.56780   0.74176   0.01267  Uiso   1.00
N120   N     0.36960   0.38050   0.73696   0.01267  Uiso   1.00
N121   N     0.35390   0.88360   0.96303   0.01267  Uiso   1.00
N122   N     0.18340   0.97570   0.97119   0.01267  Uiso   1.00
N123   N     0.22720   0.02490   0.02274   0.01267  Uiso   1.00
N124   N     0.40440   0.94010   0.01927   0.01267  Uiso   1.00
N125   N     0.24210   0.84340   0.00938   0.01267  Uiso   1.00
N126   N     0.06090   0.93030   0.06036   0.01267  Uiso   1.00
N127   N     0.22400   0.73000   0.08779   0.01267  Uiso   1.00
N128   N     0.95850   0.66260   0.07458   0.01267  Uiso   1.00
N129   N     0.15190   0.56720   0.02083   0.01267  Uiso   1.00
N130   N     0.98970   0.75120   0.98917   0.01267  Uiso   1.00
N131   N     0.32450   0.85060   0.11945   0.01267  Uiso   1.00
N132   N     0.16400   0.75750   0.14254   0.01267  Uiso   1.00
N133   N     0.22860   0.59910   0.12756   0.01267  Uiso   1.00
N134   N     0.39770   0.67310   0.10820   0.01267  Uiso   1.00
N135   N     0.34180   0.73030   0.16303   0.01267  Uiso   1.00
N136   N     0.40280   0.72890   0.25294   0.01267  Uiso   1.00
N137   N     0.60130   0.78560   0.20138   0.01267  Uiso   1.00
N138   N     0.49980   0.97750   0.24510   0.01267  Uiso   1.00
N139   N     0.43630   0.98460   0.16087   0.01267  Uiso   1.00
N140   N     0.22780   0.93120   0.21696   0.01267  Uiso   1.00
N141   N     0.53370   0.09710   0.28866   0.01267  Uiso   1.00
N142   N     0.60720   0.91850   0.29158   0.01267  Uiso   1.00
N143   N     0.68280   0.93220   0.24176   0.01267  Uiso   1.00
N144   N     0.63040   0.11950   0.23696   0.01267  Uiso   1.00
N145   N     0.14610   0.38360   0.03697   0.01267  Uiso   1.00
N146   N     0.31660   0.47570   0.02881   0.01267  Uiso   1.00
N147   N     0.27280   0.52490   0.97726   0.01267  Uiso   1.00
N148   N     0.09560   0.44010   0.98073   0.01267  Uiso   1.00
N149   N     0.25790   0.34340   0.99062   0.01267  Uiso   1.00
N150   N     0.43910   0.43030   0.93964   0.01267  Uiso   1.00
N151   N     0.27600   0.23000   0.91221   0.01267  Uiso   1.00
N152   N     0.54150   0.16260   0.92542   0.01267  Uiso   1.00
N153   N     0.34810   0.06720   0.97917   0.01267  Uiso   1.00
N154   N     0.51030   0.25120   0.01083   0.01267  Uiso   1.00
N155   N     0.17550   0.35060   0.88055   0.01267  Uiso   1.00
N156   N     0.33600   0.25750   0.85746   0.01267  Uiso   1.00
N157   N     0.27140   0.09910   0.87244   0.01267  Uiso   1.00
N158   N     0.10230   0.17310   0.89180   0.01267  Uiso   1.00
N159   N     0.15820   0.23030   0.83697   0.01267  Uiso   1.00
N160   N     0.09720   0.22890   0.74706   0.01267  Uiso   1.00
N161   N     0.89870   0.28560   0.79862   0.01267  Uiso   1.00
N162   N     0.00020   0.47750   0.75490   0.01267  Uiso   1.00
N163   N     0.06370   0.48460   0.83913   0.01267  Uiso   1.00
N164   N     0.27220   0.43120   0.78304   0.01267  Uiso   1.00
N165   N     0.96630   0.59710   0.71134   0.01267  Uiso   1.00
N166   N     0.89280   0.41850   0.70842   0.01267  Uiso   1.00
N167   N     0.81720   0.43220   0.75824   0.01267  Uiso   1.00
N168   N     0.86960   0.61950   0.76304   0.01267  Uiso   1.00
N169   N     0.85390   0.11640   0.53697   0.01267  Uiso   1.00
N170   N     0.68340   0.02430   0.52881   0.01267  Uiso   1.00
N171   N     0.72720   0.97510   0.47726   0.01267  Uiso   1.00
N172   N     0.90440   0.05990   0.48073   0.01267  Uiso   1.00
N173   N     0.74210   0.15660   0.49062   0.01267  Uiso   1.00
N174   N     0.56090   0.06970   0.43964   0.01267  Uiso   1.00
N175   N     0.72400   0.27000   0.41221   0.01267  Uiso   1.00
N176   N     0.45850   0.33740   0.42542   0.01267  Uiso   1.00
N177   N     0.65190   0.43280   0.47917   0.01267  Uiso   1.00
N178   N     0.48970   0.24880   0.51083   0.01267  Uiso   1.00
N179   N     0.82450   0.14940   0.38055   0.01267  Uiso   1.00
N180   N     0.66400   0.24250   0.35746   0.01267  Uiso   1.00
N181   N     0.72860   0.40090   0.37244   0.01267  Uiso   1.00
N182   N     0.89770   0.32690   0.39180   0.01267  Uiso   1.00
N183   N     0.84180   0.26970   0.33697   0.01267  Uiso   1.00
N184   N     0.90280   0.27110   0.24706   0.01267  Uiso   1.00
N185   N     0.10130   0.21440   0.29862   0.01267  Uiso   1.00
N186   N     0.99980   0.02250   0.25490   0.01267  Uiso   1.00
N187   N     0.93630   0.01540   0.33913   0.01267  Uiso   1.00
N188   N     0.72780   0.06880   0.28304   0.01267  Uiso   1.00
N189   N     0.03370   0.90290   0.21134   0.01267  Uiso   1.00
N190   N     0.10720   0.08150   0.20842   0.01267  Uiso   1.00
N191   N     0.18280   0.06780   0.25824   0.01267  Uiso   1.00
N192   N     0.13040   0.88050   0.26304   0.01267  Uiso   1.00
