data_MEFZUU_clean5b
_audit_creation_date              2014-07-02
_audit_creation_method            'Materials Studio'
_symmetry_space_group_name_H-M    'P1'
_symmetry_Int_Tables_number       1
_symmetry_cell_setting            triclinic
loop_
_symmetry_equiv_pos_as_xyz
  x,y,z
_cell_length_a                    38.1428
_cell_length_b                    38.1428
_cell_length_c                    39.2456
_cell_angle_alpha                 66.4777
_cell_angle_beta                  66.4780
_cell_angle_gamma                 100.2950
loop_
_atom_site_label
_atom_site_type_symbol
_atom_site_fract_x
_atom_site_fract_y
_atom_site_fract_z
_atom_site_U_iso_or_equiv
_atom_site_adp_type
_atom_site_occupancy
Mn1    Mn    0.25000  -0.00000   0.25000   0.01267  Uiso   1.00
Mn2    Mn    0.00000   0.25000   0.25000   0.01267  Uiso   1.00
Mn3    Mn    0.25000   0.25000   0.25000   0.01267  Uiso   1.00
Mn4    Mn    0.00000   0.00000   0.25000   0.01267  Uiso   1.00
Mn5    Mn    0.34170   0.34170   0.14617   0.01267  Uiso   1.00
Mn6    Mn    0.01213   0.01213   0.14617   0.01267  Uiso   1.00
Mn7    Mn    0.15830   0.15830   0.35383   0.01267  Uiso   1.00
Mn8    Mn    0.48787   0.48787   0.35383   0.01267  Uiso   1.00
Mn9    Mn    0.01458   0.29276   0.00000   0.01267  Uiso   1.00
Mn10   Mn    0.48542   0.20725   0.00000   0.01267  Uiso   1.00
Mn11   Mn    0.20725   0.48542   0.00000   0.01267  Uiso   1.00
Mn12   Mn    0.29276   0.01458   0.00000   0.01267  Uiso   1.00
H13    H     0.35165   0.12985   0.22070   0.01267  Uiso   1.00
H14    H     0.27320   0.14190   0.13500   0.01267  Uiso   1.00
H15    H     0.28410   0.16780   0.20550   0.01267  Uiso   1.00
H16    H     0.38605   0.26695   0.10140   0.01267  Uiso   1.00
H17    H     0.36965   0.15345   0.11780   0.01267  Uiso   1.00
H18    H     0.42765   0.14945   0.22070   0.01267  Uiso   1.00
H19    H     0.09180   0.22310   0.13500   0.01267  Uiso   1.00
H20    H     0.01040   0.12670   0.20550   0.01267  Uiso   1.00
H21    H     0.01255   0.13165   0.10140   0.01267  Uiso   1.00
H22    H     0.01255   0.22875   0.11780   0.01267  Uiso   1.00
H23    H     0.37015   0.14835   0.27930   0.01267  Uiso   1.00
H24    H     0.35810   0.22680   0.36500   0.01267  Uiso   1.00
H25    H     0.33220   0.21590   0.29450   0.01267  Uiso   1.00
H26    H     0.23305   0.11395   0.39860   0.01267  Uiso   1.00
H27    H     0.34655   0.13035   0.38220   0.01267  Uiso   1.00
H28    H     0.35055   0.07235   0.27930   0.01267  Uiso   1.00
H29    H     0.27690   0.40820   0.36500   0.01267  Uiso   1.00
H30    H     0.37330   0.48960   0.29450   0.01267  Uiso   1.00
H31    H     0.36835   0.48745   0.39860   0.01267  Uiso   1.00
H32    H     0.27125   0.48745   0.38220   0.01267  Uiso   1.00
H33    H     0.14835   0.37015   0.27930   0.01267  Uiso   1.00
H34    H     0.22680   0.35810   0.36500   0.01267  Uiso   1.00
H35    H     0.21590   0.33220   0.29450   0.01267  Uiso   1.00
H36    H     0.11395   0.23305   0.39860   0.01267  Uiso   1.00
H37    H     0.13035   0.34655   0.38220   0.01267  Uiso   1.00
H38    H     0.07235   0.35055   0.27930   0.01267  Uiso   1.00
H39    H     0.40820   0.27690   0.36500   0.01267  Uiso   1.00
H40    H     0.48960   0.37330   0.29450   0.01267  Uiso   1.00
H41    H     0.48745   0.36835   0.39860   0.01267  Uiso   1.00
H42    H     0.48745   0.27125   0.38220   0.01267  Uiso   1.00
H43    H     0.12985   0.35165   0.22070   0.01267  Uiso   1.00
H44    H     0.14190   0.27320   0.13500   0.01267  Uiso   1.00
H45    H     0.16780   0.28410   0.20550   0.01267  Uiso   1.00
H46    H     0.26695   0.38605   0.10140   0.01267  Uiso   1.00
H47    H     0.15345   0.36965   0.11780   0.01267  Uiso   1.00
H48    H     0.14945   0.42765   0.22070   0.01267  Uiso   1.00
H49    H     0.22310   0.09180   0.13500   0.01267  Uiso   1.00
H50    H     0.12670   0.01040   0.20550   0.01267  Uiso   1.00
H51    H     0.13165   0.01255   0.10140   0.01267  Uiso   1.00
H52    H     0.22875   0.01255   0.11780   0.01267  Uiso   1.00
C53    C     0.33605   0.10155   0.23400   0.01267  Uiso   1.00
C54    C     0.30804   0.08366   0.22400   0.01267  Uiso   1.00
C55    C     0.29953   0.10703   0.19294   0.01267  Uiso   1.00
C56    C     0.27158   0.08924   0.18438   0.01267  Uiso   1.00
C57    C     0.26225   0.11295   0.15240   0.01267  Uiso   1.00
C58    C     0.32319   0.15308   0.16633   0.01267  Uiso   1.00
C59    C     0.30945   0.17915   0.17980   0.01267  Uiso   1.00
C60    C     0.33272   0.22122   0.15587   0.01267  Uiso   1.00
C61    C     0.37015   0.23825   0.11770   0.01267  Uiso   1.00
C62    C     0.38458   0.21298   0.10315   0.01267  Uiso   1.00
C63    C     0.36053   0.17053   0.12754   0.01267  Uiso   1.00
C64    C     0.31750   0.24920   0.17080   0.01267  Uiso   1.00
C65    C     0.42635   0.23115   0.06250   0.01267  Uiso   1.00
C66    C     0.42995   0.16445   0.23400   0.01267  Uiso   1.00
C67    C     0.46796   0.19234   0.22400   0.01267  Uiso   1.00
C68    C     0.00753   0.20003   0.19294   0.01267  Uiso   1.00
C69    C     0.04404   0.22638   0.18438   0.01267  Uiso   1.00
C70    C     0.08535   0.23465   0.15240   0.01267  Uiso   1.00
C71    C     0.01048   0.18059   0.16633   0.01267  Uiso   1.00
C72    C     0.01075   0.14105   0.17980   0.01267  Uiso   1.00
C73    C     0.01141   0.12292   0.15587   0.01267  Uiso   1.00
C74    C     0.01215   0.14405   0.11770   0.01267  Uiso   1.00
C75    C     0.01227   0.18388   0.10315   0.01267  Uiso   1.00
C76    C     0.01193   0.20193   0.12754   0.01267  Uiso   1.00
C77    C     0.01170   0.08000   0.17080   0.01267  Uiso   1.00
C78    C     0.01115   0.20635   0.06250   0.01267  Uiso   1.00
C79    C     0.39845   0.16395   0.26600   0.01267  Uiso   1.00
C80    C     0.41634   0.19196   0.27600   0.01267  Uiso   1.00
C81    C     0.39297   0.20047   0.30706   0.01267  Uiso   1.00
C82    C     0.41076   0.22842   0.31562   0.01267  Uiso   1.00
C83    C     0.38705   0.23775   0.34760   0.01267  Uiso   1.00
C84    C     0.34692   0.17681   0.33367   0.01267  Uiso   1.00
C85    C     0.32085   0.19055   0.32020   0.01267  Uiso   1.00
C86    C     0.27879   0.16729   0.34413   0.01267  Uiso   1.00
C87    C     0.26175   0.12985   0.38230   0.01267  Uiso   1.00
C88    C     0.28703   0.11543   0.39685   0.01267  Uiso   1.00
C89    C     0.32947   0.13947   0.37246   0.01267  Uiso   1.00
C90    C     0.25080   0.18250   0.32920   0.01267  Uiso   1.00
C91    C     0.26885   0.07365   0.43750   0.01267  Uiso   1.00
C92    C     0.33555   0.07005   0.26600   0.01267  Uiso   1.00
C93    C     0.30766   0.03204   0.27600   0.01267  Uiso   1.00
C94    C     0.29997   0.49247   0.30706   0.01267  Uiso   1.00
C95    C     0.27362   0.45596   0.31562   0.01267  Uiso   1.00
C96    C     0.26535   0.41465   0.34760   0.01267  Uiso   1.00
C97    C     0.31942   0.48952   0.33367   0.01267  Uiso   1.00
C98    C     0.35895   0.48925   0.32020   0.01267  Uiso   1.00
C99    C     0.37709   0.48859   0.34413   0.01267  Uiso   1.00
C100   C     0.35595   0.48785   0.38230   0.01267  Uiso   1.00
C101   C     0.31612   0.48773   0.39685   0.01267  Uiso   1.00
C102   C     0.29807   0.48807   0.37246   0.01267  Uiso   1.00
C103   C     0.42000   0.48830   0.32920   0.01267  Uiso   1.00
C104   C     0.29365   0.48885   0.43750   0.01267  Uiso   1.00
C105   C     0.16395   0.39845   0.26600   0.01267  Uiso   1.00
C106   C     0.19196   0.41634   0.27600   0.01267  Uiso   1.00
C107   C     0.20047   0.39297   0.30706   0.01267  Uiso   1.00
C108   C     0.22842   0.41076   0.31562   0.01267  Uiso   1.00
C109   C     0.23775   0.38705   0.34760   0.01267  Uiso   1.00
C110   C     0.17682   0.34692   0.33367   0.01267  Uiso   1.00
C111   C     0.19055   0.32085   0.32020   0.01267  Uiso   1.00
C112   C     0.16729   0.27879   0.34413   0.01267  Uiso   1.00
C113   C     0.12985   0.26175   0.38230   0.01267  Uiso   1.00
C114   C     0.11543   0.28703   0.39685   0.01267  Uiso   1.00
C115   C     0.13947   0.32947   0.37246   0.01267  Uiso   1.00
C116   C     0.18250   0.25080   0.32920   0.01267  Uiso   1.00
C117   C     0.07365   0.26885   0.43750   0.01267  Uiso   1.00
C118   C     0.07005   0.33555   0.26600   0.01267  Uiso   1.00
C119   C     0.03204   0.30766   0.27600   0.01267  Uiso   1.00
C120   C     0.49247   0.29997   0.30706   0.01267  Uiso   1.00
C121   C     0.45596   0.27362   0.31562   0.01267  Uiso   1.00
C122   C     0.41465   0.26535   0.34760   0.01267  Uiso   1.00
C123   C     0.48952   0.31942   0.33367   0.01267  Uiso   1.00
C124   C     0.48925   0.35895   0.32020   0.01267  Uiso   1.00
C125   C     0.48859   0.37708   0.34413   0.01267  Uiso   1.00
C126   C     0.48785   0.35595   0.38230   0.01267  Uiso   1.00
C127   C     0.48773   0.31613   0.39685   0.01267  Uiso   1.00
C128   C     0.48807   0.29807   0.37246   0.01267  Uiso   1.00
C129   C     0.48830   0.42000   0.32920   0.01267  Uiso   1.00
C130   C     0.48885   0.29365   0.43750   0.01267  Uiso   1.00
C131   C     0.10155   0.33605   0.23400   0.01267  Uiso   1.00
C132   C     0.08366   0.30804   0.22400   0.01267  Uiso   1.00
C133   C     0.10703   0.29953   0.19294   0.01267  Uiso   1.00
C134   C     0.08924   0.27158   0.18438   0.01267  Uiso   1.00
C135   C     0.11295   0.26225   0.15240   0.01267  Uiso   1.00
C136   C     0.15309   0.32319   0.16633   0.01267  Uiso   1.00
C137   C     0.17915   0.30945   0.17980   0.01267  Uiso   1.00
C138   C     0.22122   0.33271   0.15587   0.01267  Uiso   1.00
C139   C     0.23825   0.37015   0.11770   0.01267  Uiso   1.00
C140   C     0.21298   0.38458   0.10315   0.01267  Uiso   1.00
C141   C     0.17053   0.36053   0.12754   0.01267  Uiso   1.00
C142   C     0.24920   0.31750   0.17080   0.01267  Uiso   1.00
C143   C     0.23115   0.42635   0.06250   0.01267  Uiso   1.00
C144   C     0.16445   0.42995   0.23400   0.01267  Uiso   1.00
C145   C     0.19234   0.46796   0.22400   0.01267  Uiso   1.00
C146   C     0.20003   0.00753   0.19294   0.01267  Uiso   1.00
C147   C     0.22638   0.04404   0.18438   0.01267  Uiso   1.00
C148   C     0.23465   0.08535   0.15240   0.01267  Uiso   1.00
C149   C     0.18059   0.01049   0.16633   0.01267  Uiso   1.00
C150   C     0.14105   0.01075   0.17980   0.01267  Uiso   1.00
C151   C     0.12292   0.01141   0.15587   0.01267  Uiso   1.00
C152   C     0.14405   0.01215   0.11770   0.01267  Uiso   1.00
C153   C     0.18388   0.01227   0.10315   0.01267  Uiso   1.00
C154   C     0.20193   0.01193   0.12754   0.01267  Uiso   1.00
C155   C     0.08000   0.01170   0.17080   0.01267  Uiso   1.00
C156   C     0.20635   0.01115   0.06250   0.01267  Uiso   1.00
N157   N     0.24918   0.04738   0.20344   0.01267  Uiso   1.00
N158   N     0.04738   0.24918   0.20344   0.01267  Uiso   1.00
N159   N     0.45262   0.25082   0.29656   0.01267  Uiso   1.00
N160   N     0.25082   0.45262   0.29656   0.01267  Uiso   1.00
N161   N     0.29120   0.04120   0.25000   0.01267  Uiso   1.00
N162   N     0.45880   0.20880   0.25000   0.01267  Uiso   1.00
N163   N     0.20880   0.45880   0.25000   0.01267  Uiso   1.00
N164   N     0.04120   0.29120   0.25000   0.01267  Uiso   1.00
Cl165  Cl    0.04150   0.35295   0.00000   0.01267  Uiso   1.00
Cl166  Cl    0.45850   0.14705   0.00000   0.01267  Uiso   1.00
Cl167  Cl    0.14705   0.45850   0.00000   0.01267  Uiso   1.00
Cl168  Cl    0.35295   0.04150  -0.00000   0.01267  Uiso   1.00
Cl169  Cl    0.19219   0.00158   0.30623   0.01267  Uiso   1.00
Cl170  Cl    0.00158   0.19219   0.30623   0.01267  Uiso   1.00
Cl171  Cl    0.49842   0.30782   0.19377   0.01267  Uiso   1.00
Cl172  Cl    0.30782   0.49842   0.19377   0.01267  Uiso   1.00
O173   O     0.28492   0.23250   0.20629   0.01267  Uiso   1.00
O174   O     0.33965   0.28705   0.14700   0.01267  Uiso   1.00
O175   O     0.45033   0.26733   0.04715   0.01267  Uiso   1.00
O176   O     0.43381   0.20780   0.04809   0.01267  Uiso   1.00
O177   O     0.00879   0.06122   0.20629   0.01267  Uiso   1.00
O178   O     0.01335   0.06595   0.14700   0.01267  Uiso   1.00
O179   O     0.00252   0.18553   0.04715   0.01267  Uiso   1.00
O180   O     0.01810   0.24411   0.04809   0.01267  Uiso   1.00
O181   O     0.26751   0.21509   0.29371   0.01267  Uiso   1.00
O182   O     0.21295   0.16035   0.35300   0.01267  Uiso   1.00
O183   O     0.23268   0.04967   0.45285   0.01267  Uiso   1.00
O184   O     0.29220   0.06619   0.45191   0.01267  Uiso   1.00
O185   O     0.43879   0.49121   0.29371   0.01267  Uiso   1.00
O186   O     0.43405   0.48665   0.35300   0.01267  Uiso   1.00
O187   O     0.31448   0.49748   0.45285   0.01267  Uiso   1.00
O188   O     0.25589   0.48190   0.45191   0.01267  Uiso   1.00
O189   O     0.21509   0.26751   0.29371   0.01267  Uiso   1.00
O190   O     0.16035   0.21295   0.35300   0.01267  Uiso   1.00
O191   O     0.04968   0.23267   0.45285   0.01267  Uiso   1.00
O192   O     0.06619   0.29220   0.45191   0.01267  Uiso   1.00
O193   O     0.49121   0.43879   0.29371   0.01267  Uiso   1.00
O194   O     0.48665   0.43405   0.35300   0.01267  Uiso   1.00
O195   O     0.49748   0.31448   0.45285   0.01267  Uiso   1.00
O196   O     0.48190   0.25589   0.45191   0.01267  Uiso   1.00
O197   O     0.23250   0.28492   0.20629   0.01267  Uiso   1.00
O198   O     0.28705   0.33965   0.14700   0.01267  Uiso   1.00
O199   O     0.26733   0.45033   0.04715   0.01267  Uiso   1.00
O200   O     0.20780   0.43381   0.04809   0.01267  Uiso   1.00
O201   O     0.06122   0.00880   0.20629   0.01267  Uiso   1.00
O202   O     0.06595   0.01335   0.14700   0.01267  Uiso   1.00
O203   O     0.18553   0.00252   0.04715   0.01267  Uiso   1.00
O204   O     0.24411   0.01810   0.04809   0.01267  Uiso   1.00
Mn205  Mn    0.75000  -0.00000   0.25000   0.01267  Uiso   1.00
Mn206  Mn    0.50000   0.25000   0.25000   0.01267  Uiso   1.00
Mn207  Mn    0.75000   0.25000   0.25000   0.01267  Uiso   1.00
Mn208  Mn    0.50000  -0.00000   0.25000   0.01267  Uiso   1.00
Mn209  Mn    0.84170   0.34170   0.14617   0.01267  Uiso   1.00
Mn210  Mn    0.51213   0.01213   0.14617   0.01267  Uiso   1.00
Mn211  Mn    0.65830   0.15830   0.35383   0.01267  Uiso   1.00
Mn212  Mn    0.98787   0.48787   0.35383   0.01267  Uiso   1.00
Mn213  Mn    0.51459   0.29276   0.00000   0.01267  Uiso   1.00
Mn214  Mn    0.98542   0.20725   0.00000   0.01267  Uiso   1.00
Mn215  Mn    0.70725   0.48542   0.00000   0.01267  Uiso   1.00
Mn216  Mn    0.79276   0.01458   0.00000   0.01267  Uiso   1.00
H217   H     0.85165   0.12985   0.22070   0.01267  Uiso   1.00
H218   H     0.77320   0.14190   0.13500   0.01267  Uiso   1.00
H219   H     0.78410   0.16780   0.20550   0.01267  Uiso   1.00
H220   H     0.88605   0.26695   0.10140   0.01267  Uiso   1.00
H221   H     0.86965   0.15345   0.11780   0.01267  Uiso   1.00
H222   H     0.92765   0.14945   0.22070   0.01267  Uiso   1.00
H223   H     0.59180   0.22310   0.13500   0.01267  Uiso   1.00
H224   H     0.51040   0.12670   0.20550   0.01267  Uiso   1.00
H225   H     0.51255   0.13165   0.10140   0.01267  Uiso   1.00
H226   H     0.51255   0.22875   0.11780   0.01267  Uiso   1.00
H227   H     0.87015   0.14835   0.27930   0.01267  Uiso   1.00
H228   H     0.85810   0.22680   0.36500   0.01267  Uiso   1.00
H229   H     0.83220   0.21590   0.29450   0.01267  Uiso   1.00
H230   H     0.73305   0.11395   0.39860   0.01267  Uiso   1.00
H231   H     0.84655   0.13035   0.38220   0.01267  Uiso   1.00
H232   H     0.85055   0.07235   0.27930   0.01267  Uiso   1.00
H233   H     0.77690   0.40820   0.36500   0.01267  Uiso   1.00
H234   H     0.87330   0.48960   0.29450   0.01267  Uiso   1.00
H235   H     0.86835   0.48745   0.39860   0.01267  Uiso   1.00
H236   H     0.77125   0.48745   0.38220   0.01267  Uiso   1.00
H237   H     0.64835   0.37015   0.27930   0.01267  Uiso   1.00
H238   H     0.72680   0.35810   0.36500   0.01267  Uiso   1.00
H239   H     0.71590   0.33220   0.29450   0.01267  Uiso   1.00
H240   H     0.61395   0.23305   0.39860   0.01267  Uiso   1.00
H241   H     0.63035   0.34655   0.38220   0.01267  Uiso   1.00
H242   H     0.57235   0.35055   0.27930   0.01267  Uiso   1.00
H243   H     0.90820   0.27690   0.36500   0.01267  Uiso   1.00
H244   H     0.98960   0.37330   0.29450   0.01267  Uiso   1.00
H245   H     0.98745   0.36835   0.39860   0.01267  Uiso   1.00
H246   H     0.98745   0.27125   0.38220   0.01267  Uiso   1.00
H247   H     0.62985   0.35165   0.22070   0.01267  Uiso   1.00
H248   H     0.64190   0.27320   0.13500   0.01267  Uiso   1.00
H249   H     0.66780   0.28410   0.20550   0.01267  Uiso   1.00
H250   H     0.76695   0.38605   0.10140   0.01267  Uiso   1.00
H251   H     0.65345   0.36965   0.11780   0.01267  Uiso   1.00
H252   H     0.64945   0.42765   0.22070   0.01267  Uiso   1.00
H253   H     0.72310   0.09180   0.13500   0.01267  Uiso   1.00
H254   H     0.62670   0.01040   0.20550   0.01267  Uiso   1.00
H255   H     0.63165   0.01255   0.10140   0.01267  Uiso   1.00
H256   H     0.72875   0.01255   0.11780   0.01267  Uiso   1.00
C257   C     0.83605   0.10155   0.23400   0.01267  Uiso   1.00
C258   C     0.80804   0.08366   0.22400   0.01267  Uiso   1.00
C259   C     0.79953   0.10703   0.19294   0.01267  Uiso   1.00
C260   C     0.77158   0.08924   0.18438   0.01267  Uiso   1.00
C261   C     0.76225   0.11295   0.15240   0.01267  Uiso   1.00
C262   C     0.82319   0.15308   0.16633   0.01267  Uiso   1.00
C263   C     0.80945   0.17915   0.17980   0.01267  Uiso   1.00
C264   C     0.83272   0.22122   0.15587   0.01267  Uiso   1.00
C265   C     0.87015   0.23825   0.11770   0.01267  Uiso   1.00
C266   C     0.88458   0.21298   0.10315   0.01267  Uiso   1.00
C267   C     0.86053   0.17053   0.12754   0.01267  Uiso   1.00
C268   C     0.81750   0.24920   0.17080   0.01267  Uiso   1.00
C269   C     0.92635   0.23115   0.06250   0.01267  Uiso   1.00
C270   C     0.92995   0.16445   0.23400   0.01267  Uiso   1.00
C271   C     0.96796   0.19234   0.22400   0.01267  Uiso   1.00
C272   C     0.50753   0.20003   0.19294   0.01267  Uiso   1.00
C273   C     0.54404   0.22638   0.18438   0.01267  Uiso   1.00
C274   C     0.58535   0.23465   0.15240   0.01267  Uiso   1.00
C275   C     0.51049   0.18058   0.16633   0.01267  Uiso   1.00
C276   C     0.51075   0.14105   0.17980   0.01267  Uiso   1.00
C277   C     0.51142   0.12292   0.15587   0.01267  Uiso   1.00
C278   C     0.51215   0.14405   0.11770   0.01267  Uiso   1.00
C279   C     0.51228   0.18388   0.10315   0.01267  Uiso   1.00
C280   C     0.51193   0.20193   0.12754   0.01267  Uiso   1.00
C281   C     0.51170   0.08000   0.17080   0.01267  Uiso   1.00
C282   C     0.51115   0.20635   0.06250   0.01267  Uiso   1.00
C283   C     0.89845   0.16395   0.26600   0.01267  Uiso   1.00
C284   C     0.91634   0.19196   0.27600   0.01267  Uiso   1.00
C285   C     0.89297   0.20047   0.30706   0.01267  Uiso   1.00
C286   C     0.91076   0.22842   0.31562   0.01267  Uiso   1.00
C287   C     0.88705   0.23775   0.34760   0.01267  Uiso   1.00
C288   C     0.84692   0.17681   0.33367   0.01267  Uiso   1.00
C289   C     0.82085   0.19055   0.32020   0.01267  Uiso   1.00
C290   C     0.77879   0.16729   0.34413   0.01267  Uiso   1.00
C291   C     0.76175   0.12985   0.38230   0.01267  Uiso   1.00
C292   C     0.78703   0.11543   0.39685   0.01267  Uiso   1.00
C293   C     0.82947   0.13947   0.37246   0.01267  Uiso   1.00
C294   C     0.75080   0.18250   0.32920   0.01267  Uiso   1.00
C295   C     0.76885   0.07365   0.43750   0.01267  Uiso   1.00
C296   C     0.83555   0.07005   0.26600   0.01267  Uiso   1.00
C297   C     0.80766   0.03204   0.27600   0.01267  Uiso   1.00
C298   C     0.79997   0.49247   0.30706   0.01267  Uiso   1.00
C299   C     0.77362   0.45596   0.31562   0.01267  Uiso   1.00
C300   C     0.76535   0.41465   0.34760   0.01267  Uiso   1.00
C301   C     0.81942   0.48952   0.33367   0.01267  Uiso   1.00
C302   C     0.85895   0.48925   0.32020   0.01267  Uiso   1.00
C303   C     0.87709   0.48859   0.34413   0.01267  Uiso   1.00
C304   C     0.85595   0.48785   0.38230   0.01267  Uiso   1.00
C305   C     0.81613   0.48773   0.39685   0.01267  Uiso   1.00
C306   C     0.79807   0.48807   0.37246   0.01267  Uiso   1.00
C307   C     0.92000   0.48830   0.32920   0.01267  Uiso   1.00
C308   C     0.79365   0.48885   0.43750   0.01267  Uiso   1.00
C309   C     0.66395   0.39845   0.26600   0.01267  Uiso   1.00
C310   C     0.69196   0.41634   0.27600   0.01267  Uiso   1.00
C311   C     0.70047   0.39297   0.30706   0.01267  Uiso   1.00
C312   C     0.72842   0.41076   0.31562   0.01267  Uiso   1.00
C313   C     0.73775   0.38705   0.34760   0.01267  Uiso   1.00
C314   C     0.67682   0.34692   0.33367   0.01267  Uiso   1.00
C315   C     0.69055   0.32085   0.32020   0.01267  Uiso   1.00
C316   C     0.66729   0.27879   0.34413   0.01267  Uiso   1.00
C317   C     0.62985   0.26175   0.38230   0.01267  Uiso   1.00
C318   C     0.61543   0.28703   0.39685   0.01267  Uiso   1.00
C319   C     0.63947   0.32947   0.37246   0.01267  Uiso   1.00
C320   C     0.68250   0.25080   0.32920   0.01267  Uiso   1.00
C321   C     0.57365   0.26885   0.43750   0.01267  Uiso   1.00
C322   C     0.57005   0.33555   0.26600   0.01267  Uiso   1.00
C323   C     0.53204   0.30766   0.27600   0.01267  Uiso   1.00
C324   C     0.99247   0.29997   0.30706   0.01267  Uiso   1.00
C325   C     0.95596   0.27362   0.31562   0.01267  Uiso   1.00
C326   C     0.91465   0.26535   0.34760   0.01267  Uiso   1.00
C327   C     0.98952   0.31942   0.33367   0.01267  Uiso   1.00
C328   C     0.98925   0.35895   0.32020   0.01267  Uiso   1.00
C329   C     0.98859   0.37708   0.34413   0.01267  Uiso   1.00
C330   C     0.98785   0.35595   0.38230   0.01267  Uiso   1.00
C331   C     0.98773   0.31613   0.39685   0.01267  Uiso   1.00
C332   C     0.98807   0.29807   0.37246   0.01267  Uiso   1.00
C333   C     0.98830   0.42000   0.32920   0.01267  Uiso   1.00
C334   C     0.98885   0.29365   0.43750   0.01267  Uiso   1.00
C335   C     0.60155   0.33605   0.23400   0.01267  Uiso   1.00
C336   C     0.58366   0.30804   0.22400   0.01267  Uiso   1.00
C337   C     0.60703   0.29953   0.19294   0.01267  Uiso   1.00
C338   C     0.58924   0.27158   0.18438   0.01267  Uiso   1.00
C339   C     0.61295   0.26225   0.15240   0.01267  Uiso   1.00
C340   C     0.65309   0.32319   0.16633   0.01267  Uiso   1.00
C341   C     0.67915   0.30945   0.17980   0.01267  Uiso   1.00
C342   C     0.72122   0.33271   0.15587   0.01267  Uiso   1.00
C343   C     0.73825   0.37015   0.11770   0.01267  Uiso   1.00
C344   C     0.71298   0.38458   0.10315   0.01267  Uiso   1.00
C345   C     0.67053   0.36053   0.12754   0.01267  Uiso   1.00
C346   C     0.74920   0.31750   0.17080   0.01267  Uiso   1.00
C347   C     0.73115   0.42635   0.06250   0.01267  Uiso   1.00
C348   C     0.66445   0.42995   0.23400   0.01267  Uiso   1.00
C349   C     0.69234   0.46796   0.22400   0.01267  Uiso   1.00
C350   C     0.70003   0.00753   0.19294   0.01267  Uiso   1.00
C351   C     0.72638   0.04404   0.18438   0.01267  Uiso   1.00
C352   C     0.73465   0.08535   0.15240   0.01267  Uiso   1.00
C353   C     0.68059   0.01049   0.16633   0.01267  Uiso   1.00
C354   C     0.64105   0.01075   0.17980   0.01267  Uiso   1.00
C355   C     0.62292   0.01141   0.15587   0.01267  Uiso   1.00
C356   C     0.64405   0.01215   0.11770   0.01267  Uiso   1.00
C357   C     0.68388   0.01227   0.10315   0.01267  Uiso   1.00
C358   C     0.70193   0.01193   0.12754   0.01267  Uiso   1.00
C359   C     0.58000   0.01170   0.17080   0.01267  Uiso   1.00
C360   C     0.70635   0.01115   0.06250   0.01267  Uiso   1.00
N361   N     0.74918   0.04738   0.20344   0.01267  Uiso   1.00
N362   N     0.54738   0.24918   0.20344   0.01267  Uiso   1.00
N363   N     0.95262   0.25082   0.29656   0.01267  Uiso   1.00
N364   N     0.75082   0.45262   0.29656   0.01267  Uiso   1.00
N365   N     0.79120   0.04120   0.25000   0.01267  Uiso   1.00
N366   N     0.95880   0.20880   0.25000   0.01267  Uiso   1.00
N367   N     0.70880   0.45880   0.25000   0.01267  Uiso   1.00
N368   N     0.54120   0.29120   0.25000   0.01267  Uiso   1.00
Cl369  Cl    0.54150   0.35295   0.00000   0.01267  Uiso   1.00
Cl370  Cl    0.95850   0.14705   0.00000   0.01267  Uiso   1.00
Cl371  Cl    0.64705   0.45850   0.00000   0.01267  Uiso   1.00
Cl372  Cl    0.85295   0.04150   0.00000   0.01267  Uiso   1.00
Cl373  Cl    0.69219   0.00158   0.30623   0.01267  Uiso   1.00
Cl374  Cl    0.80782   0.49842   0.19377   0.01267  Uiso   1.00
O375   O     0.78492   0.23250   0.20629   0.01267  Uiso   1.00
O376   O     0.83965   0.28705   0.14700   0.01267  Uiso   1.00
O377   O     0.95033   0.26733   0.04715   0.01267  Uiso   1.00
O378   O     0.93381   0.20780   0.04809   0.01267  Uiso   1.00
O379   O     0.50879   0.06121   0.20629   0.01267  Uiso   1.00
O380   O     0.51335   0.06595   0.14700   0.01267  Uiso   1.00
O381   O     0.50253   0.18553   0.04715   0.01267  Uiso   1.00
O382   O     0.51810   0.24411   0.04809   0.01267  Uiso   1.00
O383   O     0.76751   0.21509   0.29371   0.01267  Uiso   1.00
O384   O     0.71295   0.16035   0.35300   0.01267  Uiso   1.00
O385   O     0.73268   0.04967   0.45285   0.01267  Uiso   1.00
O386   O     0.79220   0.06619   0.45191   0.01267  Uiso   1.00
O387   O     0.93879   0.49121   0.29371   0.01267  Uiso   1.00
O388   O     0.93405   0.48665   0.35300   0.01267  Uiso   1.00
O389   O     0.81448   0.49748   0.45285   0.01267  Uiso   1.00
O390   O     0.75589   0.48190   0.45191   0.01267  Uiso   1.00
O391   O     0.71509   0.26751   0.29371   0.01267  Uiso   1.00
O392   O     0.66035   0.21295   0.35300   0.01267  Uiso   1.00
O393   O     0.54968   0.23267   0.45285   0.01267  Uiso   1.00
O394   O     0.56619   0.29220   0.45191   0.01267  Uiso   1.00
O395   O     0.99121   0.43879   0.29371   0.01267  Uiso   1.00
O396   O     0.98665   0.43405   0.35300   0.01267  Uiso   1.00
O397   O     0.99748   0.31447   0.45285   0.01267  Uiso   1.00
O398   O     0.98190   0.25589   0.45191   0.01267  Uiso   1.00
O399   O     0.73250   0.28492   0.20629   0.01267  Uiso   1.00
O400   O     0.78705   0.33965   0.14700   0.01267  Uiso   1.00
O401   O     0.76733   0.45033   0.04715   0.01267  Uiso   1.00
O402   O     0.70780   0.43381   0.04809   0.01267  Uiso   1.00
O403   O     0.56122   0.00880   0.20629   0.01267  Uiso   1.00
O404   O     0.56595   0.01335   0.14700   0.01267  Uiso   1.00
O405   O     0.68553   0.00252   0.04715   0.01267  Uiso   1.00
O406   O     0.74411   0.01810   0.04809   0.01267  Uiso   1.00
Mn407  Mn    0.25000   0.50000   0.25000   0.01267  Uiso   1.00
Mn408  Mn    0.00000   0.75000   0.25000   0.01267  Uiso   1.00
Mn409  Mn    0.25000   0.75000   0.25000   0.01267  Uiso   1.00
Mn410  Mn    0.00000   0.50000   0.25000   0.01267  Uiso   1.00
Mn411  Mn    0.34170   0.84170   0.14617   0.01267  Uiso   1.00
Mn412  Mn    0.01213   0.51213   0.14617   0.01267  Uiso   1.00
Mn413  Mn    0.15830   0.65830   0.35383   0.01267  Uiso   1.00
Mn414  Mn    0.48787   0.98787   0.35383   0.01267  Uiso   1.00
Mn415  Mn    0.01458   0.79276   0.00000   0.01267  Uiso   1.00
Mn416  Mn    0.48542   0.70725   0.00000   0.01267  Uiso   1.00
Mn417  Mn    0.20725   0.98542   0.00000   0.01267  Uiso   1.00
Mn418  Mn    0.29276   0.51458   0.00000   0.01267  Uiso   1.00
H419   H     0.35165   0.62985   0.22070   0.01267  Uiso   1.00
H420   H     0.27320   0.64190   0.13500   0.01267  Uiso   1.00
H421   H     0.28410   0.66780   0.20550   0.01267  Uiso   1.00
H422   H     0.38605   0.76695   0.10140   0.01267  Uiso   1.00
H423   H     0.36965   0.65345   0.11780   0.01267  Uiso   1.00
H424   H     0.42765   0.64945   0.22070   0.01267  Uiso   1.00
H425   H     0.09180   0.72310   0.13500   0.01267  Uiso   1.00
H426   H     0.01040   0.62670   0.20550   0.01267  Uiso   1.00
H427   H     0.01255   0.63165   0.10140   0.01267  Uiso   1.00
H428   H     0.01255   0.72875   0.11780   0.01267  Uiso   1.00
H429   H     0.37015   0.64835   0.27930   0.01267  Uiso   1.00
H430   H     0.35810   0.72680   0.36500   0.01267  Uiso   1.00
H431   H     0.33220   0.71590   0.29450   0.01267  Uiso   1.00
H432   H     0.23305   0.61395   0.39860   0.01267  Uiso   1.00
H433   H     0.34655   0.63035   0.38220   0.01267  Uiso   1.00
H434   H     0.35055   0.57235   0.27930   0.01267  Uiso   1.00
H435   H     0.27690   0.90820   0.36500   0.01267  Uiso   1.00
H436   H     0.37330   0.98960   0.29450   0.01267  Uiso   1.00
H437   H     0.36835   0.98745   0.39860   0.01267  Uiso   1.00
H438   H     0.27125   0.98745   0.38220   0.01267  Uiso   1.00
H439   H     0.14835   0.87015   0.27930   0.01267  Uiso   1.00
H440   H     0.22680   0.85810   0.36500   0.01267  Uiso   1.00
H441   H     0.21590   0.83220   0.29450   0.01267  Uiso   1.00
H442   H     0.11395   0.73305   0.39860   0.01267  Uiso   1.00
H443   H     0.13035   0.84655   0.38220   0.01267  Uiso   1.00
H444   H     0.07235   0.85055   0.27930   0.01267  Uiso   1.00
H445   H     0.40820   0.77690   0.36500   0.01267  Uiso   1.00
H446   H     0.48960   0.87330   0.29450   0.01267  Uiso   1.00
H447   H     0.48745   0.86835   0.39860   0.01267  Uiso   1.00
H448   H     0.48745   0.77125   0.38220   0.01267  Uiso   1.00
H449   H     0.12985   0.85165   0.22070   0.01267  Uiso   1.00
H450   H     0.14190   0.77320   0.13500   0.01267  Uiso   1.00
H451   H     0.16780   0.78410   0.20550   0.01267  Uiso   1.00
H452   H     0.26695   0.88605   0.10140   0.01267  Uiso   1.00
H453   H     0.15345   0.86965   0.11780   0.01267  Uiso   1.00
H454   H     0.14945   0.92765   0.22070   0.01267  Uiso   1.00
H455   H     0.22310   0.59180   0.13500   0.01267  Uiso   1.00
H456   H     0.12670   0.51040   0.20550   0.01267  Uiso   1.00
H457   H     0.13165   0.51255   0.10140   0.01267  Uiso   1.00
H458   H     0.22875   0.51255   0.11780   0.01267  Uiso   1.00
C459   C     0.33605   0.60155   0.23400   0.01267  Uiso   1.00
C460   C     0.30804   0.58366   0.22400   0.01267  Uiso   1.00
C461   C     0.29953   0.60703   0.19294   0.01267  Uiso   1.00
C462   C     0.27158   0.58924   0.18438   0.01267  Uiso   1.00
C463   C     0.26225   0.61295   0.15240   0.01267  Uiso   1.00
C464   C     0.32319   0.65309   0.16633   0.01267  Uiso   1.00
C465   C     0.30945   0.67915   0.17980   0.01267  Uiso   1.00
C466   C     0.33272   0.72122   0.15587   0.01267  Uiso   1.00
C467   C     0.37015   0.73825   0.11770   0.01267  Uiso   1.00
C468   C     0.38458   0.71298   0.10315   0.01267  Uiso   1.00
C469   C     0.36053   0.67053   0.12754   0.01267  Uiso   1.00
C470   C     0.31750   0.74920   0.17080   0.01267  Uiso   1.00
C471   C     0.42635   0.73115   0.06250   0.01267  Uiso   1.00
C472   C     0.42995   0.66445   0.23400   0.01267  Uiso   1.00
C473   C     0.46796   0.69234   0.22400   0.01267  Uiso   1.00
C474   C     0.00753   0.70003   0.19294   0.01267  Uiso   1.00
C475   C     0.04404   0.72638   0.18438   0.01267  Uiso   1.00
C476   C     0.08535   0.73465   0.15240   0.01267  Uiso   1.00
C477   C     0.01048   0.68059   0.16633   0.01267  Uiso   1.00
C478   C     0.01075   0.64105   0.17980   0.01267  Uiso   1.00
C479   C     0.01141   0.62292   0.15587   0.01267  Uiso   1.00
C480   C     0.01215   0.64405   0.11770   0.01267  Uiso   1.00
C481   C     0.01227   0.68388   0.10315   0.01267  Uiso   1.00
C482   C     0.01193   0.70193   0.12754   0.01267  Uiso   1.00
C483   C     0.01170   0.58000   0.17080   0.01267  Uiso   1.00
C484   C     0.01115   0.70635   0.06250   0.01267  Uiso   1.00
C485   C     0.39845   0.66395   0.26600   0.01267  Uiso   1.00
C486   C     0.41634   0.69196   0.27600   0.01267  Uiso   1.00
C487   C     0.39297   0.70047   0.30706   0.01267  Uiso   1.00
C488   C     0.41076   0.72842   0.31562   0.01267  Uiso   1.00
C489   C     0.38705   0.73775   0.34760   0.01267  Uiso   1.00
C490   C     0.34692   0.67681   0.33367   0.01267  Uiso   1.00
C491   C     0.32085   0.69055   0.32020   0.01267  Uiso   1.00
C492   C     0.27879   0.66729   0.34413   0.01267  Uiso   1.00
C493   C     0.26175   0.62985   0.38230   0.01267  Uiso   1.00
C494   C     0.28703   0.61543   0.39685   0.01267  Uiso   1.00
C495   C     0.32947   0.63947   0.37246   0.01267  Uiso   1.00
C496   C     0.25080   0.68250   0.32920   0.01267  Uiso   1.00
C497   C     0.26885   0.57365   0.43750   0.01267  Uiso   1.00
C498   C     0.33555   0.57005   0.26600   0.01267  Uiso   1.00
C499   C     0.30766   0.53204   0.27600   0.01267  Uiso   1.00
C500   C     0.29997   0.99247   0.30706   0.01267  Uiso   1.00
C501   C     0.27362   0.95596   0.31562   0.01267  Uiso   1.00
C502   C     0.26535   0.91465   0.34760   0.01267  Uiso   1.00
C503   C     0.31942   0.98952   0.33367   0.01267  Uiso   1.00
C504   C     0.35895   0.98925   0.32020   0.01267  Uiso   1.00
C505   C     0.37709   0.98859   0.34413   0.01267  Uiso   1.00
C506   C     0.35595   0.98785   0.38230   0.01267  Uiso   1.00
C507   C     0.31612   0.98773   0.39685   0.01267  Uiso   1.00
C508   C     0.29807   0.98807   0.37246   0.01267  Uiso   1.00
C509   C     0.42000   0.98830   0.32920   0.01267  Uiso   1.00
C510   C     0.29365   0.98885   0.43750   0.01267  Uiso   1.00
C511   C     0.16395   0.89845   0.26600   0.01267  Uiso   1.00
C512   C     0.19196   0.91634   0.27600   0.01267  Uiso   1.00
C513   C     0.20047   0.89297   0.30706   0.01267  Uiso   1.00
C514   C     0.22842   0.91076   0.31562   0.01267  Uiso   1.00
C515   C     0.23775   0.88705   0.34760   0.01267  Uiso   1.00
C516   C     0.17682   0.84692   0.33367   0.01267  Uiso   1.00
C517   C     0.19055   0.82085   0.32020   0.01267  Uiso   1.00
C518   C     0.16729   0.77879   0.34413   0.01267  Uiso   1.00
C519   C     0.12985   0.76175   0.38230   0.01267  Uiso   1.00
C520   C     0.11543   0.78703   0.39685   0.01267  Uiso   1.00
C521   C     0.13947   0.82947   0.37246   0.01267  Uiso   1.00
C522   C     0.18250   0.75080   0.32920   0.01267  Uiso   1.00
C523   C     0.07365   0.76885   0.43750   0.01267  Uiso   1.00
C524   C     0.07005   0.83555   0.26600   0.01267  Uiso   1.00
C525   C     0.03204   0.80766   0.27600   0.01267  Uiso   1.00
C526   C     0.49247   0.79997   0.30706   0.01267  Uiso   1.00
C527   C     0.45596   0.77362   0.31562   0.01267  Uiso   1.00
C528   C     0.41465   0.76535   0.34760   0.01267  Uiso   1.00
C529   C     0.48952   0.81942   0.33367   0.01267  Uiso   1.00
C530   C     0.48925   0.85895   0.32020   0.01267  Uiso   1.00
C531   C     0.48859   0.87708   0.34413   0.01267  Uiso   1.00
C532   C     0.48785   0.85595   0.38230   0.01267  Uiso   1.00
C533   C     0.48773   0.81613   0.39685   0.01267  Uiso   1.00
C534   C     0.48807   0.79807   0.37246   0.01267  Uiso   1.00
C535   C     0.48830   0.92000   0.32920   0.01267  Uiso   1.00
C536   C     0.48885   0.79365   0.43750   0.01267  Uiso   1.00
C537   C     0.10155   0.83605   0.23400   0.01267  Uiso   1.00
C538   C     0.08366   0.80804   0.22400   0.01267  Uiso   1.00
C539   C     0.10703   0.79953   0.19294   0.01267  Uiso   1.00
C540   C     0.08924   0.77158   0.18438   0.01267  Uiso   1.00
C541   C     0.11295   0.76225   0.15240   0.01267  Uiso   1.00
C542   C     0.15309   0.82319   0.16633   0.01267  Uiso   1.00
C543   C     0.17915   0.80945   0.17980   0.01267  Uiso   1.00
C544   C     0.22122   0.83272   0.15587   0.01267  Uiso   1.00
C545   C     0.23825   0.87015   0.11770   0.01267  Uiso   1.00
C546   C     0.21298   0.88458   0.10315   0.01267  Uiso   1.00
C547   C     0.17053   0.86053   0.12754   0.01267  Uiso   1.00
C548   C     0.24920   0.81750   0.17080   0.01267  Uiso   1.00
C549   C     0.23115   0.92635   0.06250   0.01267  Uiso   1.00
C550   C     0.16445   0.92995   0.23400   0.01267  Uiso   1.00
C551   C     0.19234   0.96796   0.22400   0.01267  Uiso   1.00
C552   C     0.20003   0.50753   0.19294   0.01267  Uiso   1.00
C553   C     0.22638   0.54404   0.18438   0.01267  Uiso   1.00
C554   C     0.23465   0.58535   0.15240   0.01267  Uiso   1.00
C555   C     0.18059   0.51049   0.16633   0.01267  Uiso   1.00
C556   C     0.14105   0.51075   0.17980   0.01267  Uiso   1.00
C557   C     0.12292   0.51141   0.15587   0.01267  Uiso   1.00
C558   C     0.14405   0.51215   0.11770   0.01267  Uiso   1.00
C559   C     0.18388   0.51227   0.10315   0.01267  Uiso   1.00
C560   C     0.20193   0.51193   0.12754   0.01267  Uiso   1.00
C561   C     0.08000   0.51170   0.17080   0.01267  Uiso   1.00
C562   C     0.20635   0.51115   0.06250   0.01267  Uiso   1.00
N563   N     0.24918   0.54738   0.20344   0.01267  Uiso   1.00
N564   N     0.04738   0.74918   0.20344   0.01267  Uiso   1.00
N565   N     0.45262   0.75082   0.29656   0.01267  Uiso   1.00
N566   N     0.25082   0.95262   0.29656   0.01267  Uiso   1.00
N567   N     0.29120   0.54120   0.25000   0.01267  Uiso   1.00
N568   N     0.45880   0.70880   0.25000   0.01267  Uiso   1.00
N569   N     0.20880   0.95880   0.25000   0.01267  Uiso   1.00
N570   N     0.04120   0.79120   0.25000   0.01267  Uiso   1.00
Cl571  Cl    0.04150   0.85295   0.00000   0.01267  Uiso   1.00
Cl572  Cl    0.45850   0.64705   0.00000   0.01267  Uiso   1.00
Cl573  Cl    0.14705   0.95850   0.00000   0.01267  Uiso   1.00
Cl574  Cl    0.35295   0.54150  -0.00000   0.01267  Uiso   1.00
Cl575  Cl    0.00158   0.69219   0.30623   0.01267  Uiso   1.00
Cl576  Cl    0.49842   0.80782   0.19377   0.01267  Uiso   1.00
O577   O     0.28492   0.73250   0.20629   0.01267  Uiso   1.00
O578   O     0.33965   0.78705   0.14700   0.01267  Uiso   1.00
O579   O     0.45033   0.76733   0.04715   0.01267  Uiso   1.00
O580   O     0.43381   0.70780   0.04809   0.01267  Uiso   1.00
O581   O     0.00879   0.56122   0.20629   0.01267  Uiso   1.00
O582   O     0.01335   0.56595   0.14700   0.01267  Uiso   1.00
O583   O     0.00252   0.68553   0.04715   0.01267  Uiso   1.00
O584   O     0.01810   0.74411   0.04809   0.01267  Uiso   1.00
O585   O     0.26751   0.71509   0.29371   0.01267  Uiso   1.00
O586   O     0.21295   0.66035   0.35300   0.01267  Uiso   1.00
O587   O     0.23268   0.54967   0.45285   0.01267  Uiso   1.00
O588   O     0.29220   0.56619   0.45191   0.01267  Uiso   1.00
O589   O     0.43879   0.99121   0.29371   0.01267  Uiso   1.00
O590   O     0.43405   0.98665   0.35300   0.01267  Uiso   1.00
O591   O     0.31448   0.99748   0.45285   0.01267  Uiso   1.00
O592   O     0.25589   0.98190   0.45191   0.01267  Uiso   1.00
O593   O     0.21509   0.76751   0.29371   0.01267  Uiso   1.00
O594   O     0.16035   0.71295   0.35300   0.01267  Uiso   1.00
O595   O     0.04968   0.73267   0.45285   0.01267  Uiso   1.00
O596   O     0.06619   0.79220   0.45191   0.01267  Uiso   1.00
O597   O     0.49121   0.93879   0.29371   0.01267  Uiso   1.00
O598   O     0.48665   0.93405   0.35300   0.01267  Uiso   1.00
O599   O     0.49748   0.81448   0.45285   0.01267  Uiso   1.00
O600   O     0.48190   0.75589   0.45191   0.01267  Uiso   1.00
O601   O     0.23250   0.78492   0.20629   0.01267  Uiso   1.00
O602   O     0.28705   0.83965   0.14700   0.01267  Uiso   1.00
O603   O     0.26733   0.95033   0.04715   0.01267  Uiso   1.00
O604   O     0.20780   0.93381   0.04809   0.01267  Uiso   1.00
O605   O     0.06122   0.50880   0.20629   0.01267  Uiso   1.00
O606   O     0.06595   0.51335   0.14700   0.01267  Uiso   1.00
O607   O     0.18553   0.50253   0.04715   0.01267  Uiso   1.00
O608   O     0.24411   0.51810   0.04809   0.01267  Uiso   1.00
Mn609  Mn    0.75000   0.50000   0.25000   0.01267  Uiso   1.00
Mn610  Mn    0.50000   0.75000   0.25000   0.01267  Uiso   1.00
Mn611  Mn    0.75000   0.75000   0.25000   0.01267  Uiso   1.00
Mn612  Mn    0.50000   0.50000   0.25000   0.01267  Uiso   1.00
Mn613  Mn    0.84170   0.84170   0.14617   0.01267  Uiso   1.00
Mn614  Mn    0.51213   0.51213   0.14617   0.01267  Uiso   1.00
Mn615  Mn    0.65830   0.65830   0.35383   0.01267  Uiso   1.00
Mn616  Mn    0.98787   0.98787   0.35383   0.01267  Uiso   1.00
Mn617  Mn    0.51459   0.79276   0.00000   0.01267  Uiso   1.00
Mn618  Mn    0.98542   0.70725   0.00000   0.01267  Uiso   1.00
Mn619  Mn    0.70725   0.98542   0.00000   0.01267  Uiso   1.00
Mn620  Mn    0.79276   0.51458   0.00000   0.01267  Uiso   1.00
H621   H     0.85165   0.62985   0.22070   0.01267  Uiso   1.00
H622   H     0.77320   0.64190   0.13500   0.01267  Uiso   1.00
H623   H     0.78410   0.66780   0.20550   0.01267  Uiso   1.00
H624   H     0.88605   0.76695   0.10140   0.01267  Uiso   1.00
H625   H     0.86965   0.65345   0.11780   0.01267  Uiso   1.00
H626   H     0.92765   0.64945   0.22070   0.01267  Uiso   1.00
H627   H     0.59180   0.72310   0.13500   0.01267  Uiso   1.00
H628   H     0.51040   0.62670   0.20550   0.01267  Uiso   1.00
H629   H     0.51255   0.63165   0.10140   0.01267  Uiso   1.00
H630   H     0.51255   0.72875   0.11780   0.01267  Uiso   1.00
H631   H     0.87015   0.64835   0.27930   0.01267  Uiso   1.00
H632   H     0.85810   0.72680   0.36500   0.01267  Uiso   1.00
H633   H     0.83220   0.71590   0.29450   0.01267  Uiso   1.00
H634   H     0.73305   0.61395   0.39860   0.01267  Uiso   1.00
H635   H     0.84655   0.63035   0.38220   0.01267  Uiso   1.00
H636   H     0.85055   0.57235   0.27930   0.01267  Uiso   1.00
H637   H     0.77690   0.90820   0.36500   0.01267  Uiso   1.00
H638   H     0.87330   0.98960   0.29450   0.01267  Uiso   1.00
H639   H     0.86835   0.98745   0.39860   0.01267  Uiso   1.00
H640   H     0.77125   0.98745   0.38220   0.01267  Uiso   1.00
H641   H     0.64835   0.87015   0.27930   0.01267  Uiso   1.00
H642   H     0.72680   0.85810   0.36500   0.01267  Uiso   1.00
H643   H     0.71590   0.83220   0.29450   0.01267  Uiso   1.00
H644   H     0.61395   0.73305   0.39860   0.01267  Uiso   1.00
H645   H     0.63035   0.84655   0.38220   0.01267  Uiso   1.00
H646   H     0.57235   0.85055   0.27930   0.01267  Uiso   1.00
H647   H     0.90820   0.77690   0.36500   0.01267  Uiso   1.00
H648   H     0.98960   0.87330   0.29450   0.01267  Uiso   1.00
H649   H     0.98745   0.86835   0.39860   0.01267  Uiso   1.00
H650   H     0.98745   0.77125   0.38220   0.01267  Uiso   1.00
H651   H     0.62985   0.85165   0.22070   0.01267  Uiso   1.00
H652   H     0.64190   0.77320   0.13500   0.01267  Uiso   1.00
H653   H     0.66780   0.78410   0.20550   0.01267  Uiso   1.00
H654   H     0.76695   0.88605   0.10140   0.01267  Uiso   1.00
H655   H     0.65345   0.86965   0.11780   0.01267  Uiso   1.00
H656   H     0.64945   0.92765   0.22070   0.01267  Uiso   1.00
H657   H     0.72310   0.59180   0.13500   0.01267  Uiso   1.00
H658   H     0.62670   0.51040   0.20550   0.01267  Uiso   1.00
H659   H     0.63165   0.51255   0.10140   0.01267  Uiso   1.00
H660   H     0.72875   0.51255   0.11780   0.01267  Uiso   1.00
C661   C     0.83605   0.60155   0.23400   0.01267  Uiso   1.00
C662   C     0.80804   0.58366   0.22400   0.01267  Uiso   1.00
C663   C     0.79953   0.60703   0.19294   0.01267  Uiso   1.00
C664   C     0.77158   0.58924   0.18438   0.01267  Uiso   1.00
C665   C     0.76225   0.61295   0.15240   0.01267  Uiso   1.00
C666   C     0.82319   0.65308   0.16633   0.01267  Uiso   1.00
C667   C     0.80945   0.67915   0.17980   0.01267  Uiso   1.00
C668   C     0.83272   0.72122   0.15587   0.01267  Uiso   1.00
C669   C     0.87015   0.73825   0.11770   0.01267  Uiso   1.00
C670   C     0.88458   0.71298   0.10315   0.01267  Uiso   1.00
C671   C     0.86053   0.67053   0.12754   0.01267  Uiso   1.00
C672   C     0.81750   0.74920   0.17080   0.01267  Uiso   1.00
C673   C     0.92635   0.73115   0.06250   0.01267  Uiso   1.00
C674   C     0.92995   0.66445   0.23400   0.01267  Uiso   1.00
C675   C     0.96796   0.69234   0.22400   0.01267  Uiso   1.00
C676   C     0.50753   0.70003   0.19294   0.01267  Uiso   1.00
C677   C     0.54404   0.72638   0.18438   0.01267  Uiso   1.00
C678   C     0.58535   0.73465   0.15240   0.01267  Uiso   1.00
C679   C     0.51049   0.68059   0.16633   0.01267  Uiso   1.00
C680   C     0.51075   0.64105   0.17980   0.01267  Uiso   1.00
C681   C     0.51142   0.62292   0.15587   0.01267  Uiso   1.00
C682   C     0.51215   0.64405   0.11770   0.01267  Uiso   1.00
C683   C     0.51228   0.68388   0.10315   0.01267  Uiso   1.00
C684   C     0.51193   0.70193   0.12754   0.01267  Uiso   1.00
C685   C     0.51170   0.58000   0.17080   0.01267  Uiso   1.00
C686   C     0.51115   0.70635   0.06250   0.01267  Uiso   1.00
C687   C     0.89845   0.66395   0.26600   0.01267  Uiso   1.00
C688   C     0.91634   0.69196   0.27600   0.01267  Uiso   1.00
C689   C     0.89297   0.70047   0.30706   0.01267  Uiso   1.00
C690   C     0.91076   0.72842   0.31562   0.01267  Uiso   1.00
C691   C     0.88705   0.73775   0.34760   0.01267  Uiso   1.00
C692   C     0.84692   0.67681   0.33367   0.01267  Uiso   1.00
C693   C     0.82085   0.69055   0.32020   0.01267  Uiso   1.00
C694   C     0.77879   0.66729   0.34413   0.01267  Uiso   1.00
C695   C     0.76175   0.62985   0.38230   0.01267  Uiso   1.00
C696   C     0.78703   0.61543   0.39685   0.01267  Uiso   1.00
C697   C     0.82947   0.63947   0.37246   0.01267  Uiso   1.00
C698   C     0.75080   0.68250   0.32920   0.01267  Uiso   1.00
C699   C     0.76885   0.57365   0.43750   0.01267  Uiso   1.00
C700   C     0.83555   0.57005   0.26600   0.01267  Uiso   1.00
C701   C     0.80766   0.53204   0.27600   0.01267  Uiso   1.00
C702   C     0.79997   0.99247   0.30706   0.01267  Uiso   1.00
C703   C     0.77362   0.95596   0.31562   0.01267  Uiso   1.00
C704   C     0.76535   0.91465   0.34760   0.01267  Uiso   1.00
C705   C     0.81942   0.98952   0.33367   0.01267  Uiso   1.00
C706   C     0.85895   0.98925   0.32020   0.01267  Uiso   1.00
C707   C     0.87709   0.98859   0.34413   0.01267  Uiso   1.00
C708   C     0.85595   0.98785   0.38230   0.01267  Uiso   1.00
C709   C     0.81613   0.98773   0.39685   0.01267  Uiso   1.00
C710   C     0.79807   0.98807   0.37246   0.01267  Uiso   1.00
C711   C     0.92000   0.98830   0.32920   0.01267  Uiso   1.00
C712   C     0.79365   0.98885   0.43750   0.01267  Uiso   1.00
C713   C     0.66395   0.89845   0.26600   0.01267  Uiso   1.00
C714   C     0.69196   0.91634   0.27600   0.01267  Uiso   1.00
C715   C     0.70047   0.89297   0.30706   0.01267  Uiso   1.00
C716   C     0.72842   0.91076   0.31562   0.01267  Uiso   1.00
C717   C     0.73775   0.88705   0.34760   0.01267  Uiso   1.00
C718   C     0.67682   0.84692   0.33367   0.01267  Uiso   1.00
C719   C     0.69055   0.82085   0.32020   0.01267  Uiso   1.00
C720   C     0.66729   0.77879   0.34413   0.01267  Uiso   1.00
C721   C     0.62985   0.76175   0.38230   0.01267  Uiso   1.00
C722   C     0.61543   0.78703   0.39685   0.01267  Uiso   1.00
C723   C     0.63947   0.82947   0.37246   0.01267  Uiso   1.00
C724   C     0.68250   0.75080   0.32920   0.01267  Uiso   1.00
C725   C     0.57365   0.76885   0.43750   0.01267  Uiso   1.00
C726   C     0.57005   0.83555   0.26600   0.01267  Uiso   1.00
C727   C     0.53204   0.80766   0.27600   0.01267  Uiso   1.00
C728   C     0.99247   0.79997   0.30706   0.01267  Uiso   1.00
C729   C     0.95596   0.77362   0.31562   0.01267  Uiso   1.00
C730   C     0.91465   0.76535   0.34760   0.01267  Uiso   1.00
C731   C     0.98952   0.81942   0.33367   0.01267  Uiso   1.00
C732   C     0.98925   0.85895   0.32020   0.01267  Uiso   1.00
C733   C     0.98859   0.87708   0.34413   0.01267  Uiso   1.00
C734   C     0.98785   0.85595   0.38230   0.01267  Uiso   1.00
C735   C     0.98773   0.81613   0.39685   0.01267  Uiso   1.00
C736   C     0.98807   0.79807   0.37246   0.01267  Uiso   1.00
C737   C     0.98830   0.92000   0.32920   0.01267  Uiso   1.00
C738   C     0.98885   0.79365   0.43750   0.01267  Uiso   1.00
C739   C     0.60155   0.83605   0.23400   0.01267  Uiso   1.00
C740   C     0.58366   0.80804   0.22400   0.01267  Uiso   1.00
C741   C     0.60703   0.79953   0.19294   0.01267  Uiso   1.00
C742   C     0.58924   0.77158   0.18438   0.01267  Uiso   1.00
C743   C     0.61295   0.76225   0.15240   0.01267  Uiso   1.00
C744   C     0.65309   0.82319   0.16633   0.01267  Uiso   1.00
C745   C     0.67915   0.80945   0.17980   0.01267  Uiso   1.00
C746   C     0.72122   0.83272   0.15587   0.01267  Uiso   1.00
C747   C     0.73825   0.87015   0.11770   0.01267  Uiso   1.00
C748   C     0.71298   0.88458   0.10315   0.01267  Uiso   1.00
C749   C     0.67053   0.86053   0.12754   0.01267  Uiso   1.00
C750   C     0.74920   0.81750   0.17080   0.01267  Uiso   1.00
C751   C     0.73115   0.92635   0.06250   0.01267  Uiso   1.00
C752   C     0.66445   0.92995   0.23400   0.01267  Uiso   1.00
C753   C     0.69234   0.96796   0.22400   0.01267  Uiso   1.00
C754   C     0.70003   0.50753   0.19294   0.01267  Uiso   1.00
C755   C     0.72638   0.54404   0.18438   0.01267  Uiso   1.00
C756   C     0.73465   0.58535   0.15240   0.01267  Uiso   1.00
C757   C     0.68059   0.51049   0.16633   0.01267  Uiso   1.00
C758   C     0.64105   0.51075   0.17980   0.01267  Uiso   1.00
C759   C     0.62292   0.51141   0.15587   0.01267  Uiso   1.00
C760   C     0.64405   0.51215   0.11770   0.01267  Uiso   1.00
C761   C     0.68388   0.51227   0.10315   0.01267  Uiso   1.00
C762   C     0.70193   0.51193   0.12754   0.01267  Uiso   1.00
C763   C     0.58000   0.51170   0.17080   0.01267  Uiso   1.00
C764   C     0.70635   0.51115   0.06250   0.01267  Uiso   1.00
N765   N     0.74918   0.54738   0.20344   0.01267  Uiso   1.00
N766   N     0.54738   0.74918   0.20344   0.01267  Uiso   1.00
N767   N     0.95262   0.75082   0.29656   0.01267  Uiso   1.00
N768   N     0.75082   0.95262   0.29656   0.01267  Uiso   1.00
N769   N     0.79120   0.54120   0.25000   0.01267  Uiso   1.00
N770   N     0.95880   0.70880   0.25000   0.01267  Uiso   1.00
N771   N     0.70880   0.95880   0.25000   0.01267  Uiso   1.00
N772   N     0.54120   0.79120   0.25000   0.01267  Uiso   1.00
Cl773  Cl    0.54150   0.85295   0.00000   0.01267  Uiso   1.00
Cl774  Cl    0.95850   0.64705   0.00000   0.01267  Uiso   1.00
Cl775  Cl    0.64705   0.95850   0.00000   0.01267  Uiso   1.00
Cl776  Cl    0.85295   0.54150   0.00000   0.01267  Uiso   1.00
Cl777  Cl    0.80782   0.99842   0.19377   0.01267  Uiso   1.00
O778   O     0.78492   0.73250   0.20629   0.01267  Uiso   1.00
O779   O     0.83965   0.78705   0.14700   0.01267  Uiso   1.00
O780   O     0.95033   0.76733   0.04715   0.01267  Uiso   1.00
O781   O     0.93381   0.70780   0.04809   0.01267  Uiso   1.00
O782   O     0.50879   0.56122   0.20629   0.01267  Uiso   1.00
O783   O     0.51335   0.56595   0.14700   0.01267  Uiso   1.00
O784   O     0.50253   0.68553   0.04715   0.01267  Uiso   1.00
O785   O     0.51810   0.74411   0.04809   0.01267  Uiso   1.00
O786   O     0.76751   0.71509   0.29371   0.01267  Uiso   1.00
O787   O     0.71295   0.66035   0.35300   0.01267  Uiso   1.00
O788   O     0.73268   0.54967   0.45285   0.01267  Uiso   1.00
O789   O     0.79220   0.56619   0.45191   0.01267  Uiso   1.00
O790   O     0.93879   0.99121   0.29371   0.01267  Uiso   1.00
O791   O     0.93405   0.98665   0.35300   0.01267  Uiso   1.00
O792   O     0.81448   0.99748   0.45285   0.01267  Uiso   1.00
O793   O     0.75589   0.98190   0.45191   0.01267  Uiso   1.00
O794   O     0.71509   0.76751   0.29371   0.01267  Uiso   1.00
O795   O     0.66035   0.71295   0.35300   0.01267  Uiso   1.00
O796   O     0.54968   0.73268   0.45285   0.01267  Uiso   1.00
O797   O     0.56619   0.79220   0.45191   0.01267  Uiso   1.00
O798   O     0.99121   0.93879   0.29371   0.01267  Uiso   1.00
O799   O     0.98665   0.93405   0.35300   0.01267  Uiso   1.00
O800   O     0.99748   0.81448   0.45285   0.01267  Uiso   1.00
O801   O     0.98190   0.75589   0.45191   0.01267  Uiso   1.00
O802   O     0.73250   0.78492   0.20629   0.01267  Uiso   1.00
O803   O     0.78705   0.83965   0.14700   0.01267  Uiso   1.00
O804   O     0.76733   0.95033   0.04715   0.01267  Uiso   1.00
O805   O     0.70780   0.93381   0.04809   0.01267  Uiso   1.00
O806   O     0.56122   0.50880   0.20629   0.01267  Uiso   1.00
O807   O     0.56595   0.51335   0.14700   0.01267  Uiso   1.00
O808   O     0.68553   0.50253   0.04715   0.01267  Uiso   1.00
O809   O     0.74411   0.51810   0.04809   0.01267  Uiso   1.00
Mn810  Mn    0.25000  -0.00000   0.75000   0.01267  Uiso   1.00
Mn811  Mn    0.00000   0.25000   0.75000   0.01267  Uiso   1.00
Mn812  Mn    0.25000   0.25000   0.75000   0.01267  Uiso   1.00
Mn813  Mn    0.00000   0.00000   0.75000   0.01267  Uiso   1.00
Mn814  Mn    0.34170   0.34170   0.64617   0.01267  Uiso   1.00
Mn815  Mn    0.01213   0.01213   0.64617   0.01267  Uiso   1.00
Mn816  Mn    0.15830   0.15830   0.85383   0.01267  Uiso   1.00
Mn817  Mn    0.48787   0.48787   0.85383   0.01267  Uiso   1.00
Mn818  Mn    0.01458   0.29276   0.50000   0.01267  Uiso   1.00
Mn819  Mn    0.48542   0.20725   0.50000   0.01267  Uiso   1.00
Mn820  Mn    0.20725   0.48542   0.50000   0.01267  Uiso   1.00
Mn821  Mn    0.29276   0.01458   0.50000   0.01267  Uiso   1.00
H822   H     0.35165   0.12985   0.72070   0.01267  Uiso   1.00
H823   H     0.27320   0.14190   0.63500   0.01267  Uiso   1.00
H824   H     0.28410   0.16780   0.70550   0.01267  Uiso   1.00
H825   H     0.38605   0.26695   0.60140   0.01267  Uiso   1.00
H826   H     0.36965   0.15345   0.61780   0.01267  Uiso   1.00
H827   H     0.42765   0.14945   0.72070   0.01267  Uiso   1.00
H828   H     0.09180   0.22310   0.63500   0.01267  Uiso   1.00
H829   H     0.01040   0.12670   0.70550   0.01267  Uiso   1.00
H830   H     0.01255   0.13165   0.60140   0.01267  Uiso   1.00
H831   H     0.01255   0.22875   0.61780   0.01267  Uiso   1.00
H832   H     0.37015   0.14835   0.77930   0.01267  Uiso   1.00
H833   H     0.35810   0.22680   0.86500   0.01267  Uiso   1.00
H834   H     0.33220   0.21590   0.79450   0.01267  Uiso   1.00
H835   H     0.23305   0.11395   0.89860   0.01267  Uiso   1.00
H836   H     0.34655   0.13035   0.88220   0.01267  Uiso   1.00
H837   H     0.35055   0.07235   0.77930   0.01267  Uiso   1.00
H838   H     0.27690   0.40820   0.86500   0.01267  Uiso   1.00
H839   H     0.37330   0.48960   0.79450   0.01267  Uiso   1.00
H840   H     0.36835   0.48745   0.89860   0.01267  Uiso   1.00
H841   H     0.27125   0.48745   0.88220   0.01267  Uiso   1.00
H842   H     0.14835   0.37015   0.77930   0.01267  Uiso   1.00
H843   H     0.22680   0.35810   0.86500   0.01267  Uiso   1.00
H844   H     0.21590   0.33220   0.79450   0.01267  Uiso   1.00
H845   H     0.11395   0.23305   0.89860   0.01267  Uiso   1.00
H846   H     0.13035   0.34655   0.88220   0.01267  Uiso   1.00
H847   H     0.07235   0.35055   0.77930   0.01267  Uiso   1.00
H848   H     0.40820   0.27690   0.86500   0.01267  Uiso   1.00
H849   H     0.48960   0.37330   0.79450   0.01267  Uiso   1.00
H850   H     0.48745   0.36835   0.89860   0.01267  Uiso   1.00
H851   H     0.48745   0.27125   0.88220   0.01267  Uiso   1.00
H852   H     0.12985   0.35165   0.72070   0.01267  Uiso   1.00
H853   H     0.14190   0.27320   0.63500   0.01267  Uiso   1.00
H854   H     0.16780   0.28410   0.70550   0.01267  Uiso   1.00
H855   H     0.26695   0.38605   0.60140   0.01267  Uiso   1.00
H856   H     0.15345   0.36965   0.61780   0.01267  Uiso   1.00
H857   H     0.14945   0.42765   0.72070   0.01267  Uiso   1.00
H858   H     0.22310   0.09180   0.63500   0.01267  Uiso   1.00
H859   H     0.12670   0.01040   0.70550   0.01267  Uiso   1.00
H860   H     0.13165   0.01255   0.60140   0.01267  Uiso   1.00
H861   H     0.22875   0.01255   0.61780   0.01267  Uiso   1.00
C862   C     0.33605   0.10155   0.73400   0.01267  Uiso   1.00
C863   C     0.30804   0.08366   0.72400   0.01267  Uiso   1.00
C864   C     0.29953   0.10703   0.69294   0.01267  Uiso   1.00
C865   C     0.27158   0.08924   0.68438   0.01267  Uiso   1.00
C866   C     0.26225   0.11295   0.65240   0.01267  Uiso   1.00
C867   C     0.32319   0.15308   0.66633   0.01267  Uiso   1.00
C868   C     0.30945   0.17915   0.67980   0.01267  Uiso   1.00
C869   C     0.33272   0.22122   0.65587   0.01267  Uiso   1.00
C870   C     0.37015   0.23825   0.61770   0.01267  Uiso   1.00
C871   C     0.38458   0.21298   0.60315   0.01267  Uiso   1.00
C872   C     0.36053   0.17053   0.62754   0.01267  Uiso   1.00
C873   C     0.31750   0.24920   0.67080   0.01267  Uiso   1.00
C874   C     0.42635   0.23115   0.56250   0.01267  Uiso   1.00
C875   C     0.42995   0.16445   0.73400   0.01267  Uiso   1.00
C876   C     0.46796   0.19234   0.72400   0.01267  Uiso   1.00
C877   C     0.00753   0.20003   0.69294   0.01267  Uiso   1.00
C878   C     0.04404   0.22638   0.68438   0.01267  Uiso   1.00
C879   C     0.08535   0.23465   0.65240   0.01267  Uiso   1.00
C880   C     0.01048   0.18059   0.66633   0.01267  Uiso   1.00
C881   C     0.01075   0.14105   0.67980   0.01267  Uiso   1.00
C882   C     0.01141   0.12292   0.65587   0.01267  Uiso   1.00
C883   C     0.01215   0.14405   0.61770   0.01267  Uiso   1.00
C884   C     0.01227   0.18388   0.60315   0.01267  Uiso   1.00
C885   C     0.01193   0.20193   0.62754   0.01267  Uiso   1.00
C886   C     0.01170   0.08000   0.67080   0.01267  Uiso   1.00
C887   C     0.01115   0.20635   0.56250   0.01267  Uiso   1.00
C888   C     0.39845   0.16395   0.76600   0.01267  Uiso   1.00
C889   C     0.41634   0.19196   0.77600   0.01267  Uiso   1.00
C890   C     0.39297   0.20047   0.80706   0.01267  Uiso   1.00
C891   C     0.41076   0.22842   0.81562   0.01267  Uiso   1.00
C892   C     0.38705   0.23775   0.84760   0.01267  Uiso   1.00
C893   C     0.34692   0.17681   0.83367   0.01267  Uiso   1.00
C894   C     0.32085   0.19055   0.82020   0.01267  Uiso   1.00
C895   C     0.27879   0.16729   0.84413   0.01267  Uiso   1.00
C896   C     0.26175   0.12985   0.88230   0.01267  Uiso   1.00
C897   C     0.28703   0.11543   0.89685   0.01267  Uiso   1.00
C898   C     0.32947   0.13947   0.87246   0.01267  Uiso   1.00
C899   C     0.25080   0.18250   0.82920   0.01267  Uiso   1.00
C900   C     0.26885   0.07365   0.93750   0.01267  Uiso   1.00
C901   C     0.33555   0.07005   0.76600   0.01267  Uiso   1.00
C902   C     0.30766   0.03204   0.77600   0.01267  Uiso   1.00
C903   C     0.29997   0.49247   0.80706   0.01267  Uiso   1.00
C904   C     0.27362   0.45596   0.81562   0.01267  Uiso   1.00
C905   C     0.26535   0.41465   0.84760   0.01267  Uiso   1.00
C906   C     0.31942   0.48952   0.83367   0.01267  Uiso   1.00
C907   C     0.35895   0.48925   0.82020   0.01267  Uiso   1.00
C908   C     0.37709   0.48859   0.84413   0.01267  Uiso   1.00
C909   C     0.35595   0.48785   0.88230   0.01267  Uiso   1.00
C910   C     0.31612   0.48773   0.89685   0.01267  Uiso   1.00
C911   C     0.29807   0.48807   0.87246   0.01267  Uiso   1.00
C912   C     0.42000   0.48830   0.82920   0.01267  Uiso   1.00
C913   C     0.29365   0.48885   0.93750   0.01267  Uiso   1.00
C914   C     0.16395   0.39845   0.76600   0.01267  Uiso   1.00
C915   C     0.19196   0.41634   0.77600   0.01267  Uiso   1.00
C916   C     0.20047   0.39297   0.80706   0.01267  Uiso   1.00
C917   C     0.22842   0.41076   0.81562   0.01267  Uiso   1.00
C918   C     0.23775   0.38705   0.84760   0.01267  Uiso   1.00
C919   C     0.17682   0.34692   0.83367   0.01267  Uiso   1.00
C920   C     0.19055   0.32085   0.82020   0.01267  Uiso   1.00
C921   C     0.16729   0.27879   0.84413   0.01267  Uiso   1.00
C922   C     0.12985   0.26175   0.88230   0.01267  Uiso   1.00
C923   C     0.11543   0.28703   0.89685   0.01267  Uiso   1.00
C924   C     0.13947   0.32947   0.87246   0.01267  Uiso   1.00
C925   C     0.18250   0.25080   0.82920   0.01267  Uiso   1.00
C926   C     0.07365   0.26885   0.93750   0.01267  Uiso   1.00
C927   C     0.07005   0.33555   0.76600   0.01267  Uiso   1.00
C928   C     0.03204   0.30766   0.77600   0.01267  Uiso   1.00
C929   C     0.49247   0.29997   0.80706   0.01267  Uiso   1.00
C930   C     0.45596   0.27362   0.81562   0.01267  Uiso   1.00
C931   C     0.41465   0.26535   0.84760   0.01267  Uiso   1.00
C932   C     0.48952   0.31942   0.83367   0.01267  Uiso   1.00
C933   C     0.48925   0.35895   0.82020   0.01267  Uiso   1.00
C934   C     0.48859   0.37708   0.84413   0.01267  Uiso   1.00
C935   C     0.48785   0.35595   0.88230   0.01267  Uiso   1.00
C936   C     0.48773   0.31613   0.89685   0.01267  Uiso   1.00
C937   C     0.48807   0.29807   0.87246   0.01267  Uiso   1.00
C938   C     0.48830   0.42000   0.82920   0.01267  Uiso   1.00
C939   C     0.48885   0.29365   0.93750   0.01267  Uiso   1.00
C940   C     0.10155   0.33605   0.73400   0.01267  Uiso   1.00
C941   C     0.08366   0.30804   0.72400   0.01267  Uiso   1.00
C942   C     0.10703   0.29953   0.69294   0.01267  Uiso   1.00
C943   C     0.08924   0.27158   0.68438   0.01267  Uiso   1.00
C944   C     0.11295   0.26225   0.65240   0.01267  Uiso   1.00
C945   C     0.15309   0.32319   0.66633   0.01267  Uiso   1.00
C946   C     0.17915   0.30945   0.67980   0.01267  Uiso   1.00
C947   C     0.22122   0.33271   0.65587   0.01267  Uiso   1.00
C948   C     0.23825   0.37015   0.61770   0.01267  Uiso   1.00
C949   C     0.21298   0.38458   0.60315   0.01267  Uiso   1.00
C950   C     0.17053   0.36053   0.62754   0.01267  Uiso   1.00
C951   C     0.24920   0.31750   0.67080   0.01267  Uiso   1.00
C952   C     0.23115   0.42635   0.56250   0.01267  Uiso   1.00
C953   C     0.16445   0.42995   0.73400   0.01267  Uiso   1.00
C954   C     0.19234   0.46796   0.72400   0.01267  Uiso   1.00
C955   C     0.20003   0.00753   0.69294   0.01267  Uiso   1.00
C956   C     0.22638   0.04404   0.68438   0.01267  Uiso   1.00
C957   C     0.23465   0.08535   0.65240   0.01267  Uiso   1.00
C958   C     0.18059   0.01049   0.66633   0.01267  Uiso   1.00
C959   C     0.14105   0.01075   0.67980   0.01267  Uiso   1.00
C960   C     0.12292   0.01141   0.65587   0.01267  Uiso   1.00
C961   C     0.14405   0.01215   0.61770   0.01267  Uiso   1.00
C962   C     0.18388   0.01227   0.60315   0.01267  Uiso   1.00
C963   C     0.20193   0.01193   0.62754   0.01267  Uiso   1.00
C964   C     0.08000   0.01170   0.67080   0.01267  Uiso   1.00
C965   C     0.20635   0.01115   0.56250   0.01267  Uiso   1.00
N966   N     0.24918   0.04738   0.70344   0.01267  Uiso   1.00
N967   N     0.04738   0.24918   0.70344   0.01267  Uiso   1.00
N968   N     0.45262   0.25082   0.79656   0.01267  Uiso   1.00
N969   N     0.25082   0.45262   0.79656   0.01267  Uiso   1.00
N970   N     0.29120   0.04120   0.75000   0.01267  Uiso   1.00
N971   N     0.45880   0.20880   0.75000   0.01267  Uiso   1.00
N972   N     0.20880   0.45880   0.75000   0.01267  Uiso   1.00
N973   N     0.04120   0.29120   0.75000   0.01267  Uiso   1.00
Cl974  Cl    0.04150   0.35295   0.50000   0.01267  Uiso   1.00
Cl975  Cl    0.45850   0.14705   0.50000   0.01267  Uiso   1.00
Cl976  Cl    0.14705   0.45850   0.50000   0.01267  Uiso   1.00
Cl977  Cl    0.35295   0.04150   0.50000   0.01267  Uiso   1.00
O978   O     0.28492   0.23250   0.70629   0.01267  Uiso   1.00
O979   O     0.33965   0.28705   0.64700   0.01267  Uiso   1.00
O980   O     0.45033   0.26733   0.54715   0.01267  Uiso   1.00
O981   O     0.43381   0.20780   0.54809   0.01267  Uiso   1.00
O982   O     0.00879   0.06122   0.70629   0.01267  Uiso   1.00
O983   O     0.01335   0.06595   0.64700   0.01267  Uiso   1.00
O984   O     0.00252   0.18553   0.54715   0.01267  Uiso   1.00
O985   O     0.01810   0.24411   0.54809   0.01267  Uiso   1.00
O986   O     0.26751   0.21509   0.79371   0.01267  Uiso   1.00
O987   O     0.21295   0.16035   0.85300   0.01267  Uiso   1.00
O988   O     0.23268   0.04967   0.95285   0.01267  Uiso   1.00
O989   O     0.29220   0.06619   0.95191   0.01267  Uiso   1.00
O990   O     0.43879   0.49121   0.79371   0.01267  Uiso   1.00
O991   O     0.43405   0.48665   0.85300   0.01267  Uiso   1.00
O992   O     0.31448   0.49748   0.95285   0.01267  Uiso   1.00
O993   O     0.25589   0.48190   0.95191   0.01267  Uiso   1.00
O994   O     0.21509   0.26751   0.79371   0.01267  Uiso   1.00
O995   O     0.16035   0.21295   0.85300   0.01267  Uiso   1.00
O996   O     0.04968   0.23267   0.95285   0.01267  Uiso   1.00
O997   O     0.06619   0.29220   0.95191   0.01267  Uiso   1.00
O998   O     0.49121   0.43879   0.79371   0.01267  Uiso   1.00
O999   O     0.48665   0.43405   0.85300   0.01267  Uiso   1.00
O1000  O     0.49748   0.31448   0.95285   0.01267  Uiso   1.00
O1001  O     0.48190   0.25589   0.95191   0.01267  Uiso   1.00
O1002  O     0.23250   0.28492   0.70629   0.01267  Uiso   1.00
O1003  O     0.28705   0.33965   0.64700   0.01267  Uiso   1.00
O1004  O     0.26733   0.45033   0.54715   0.01267  Uiso   1.00
O1005  O     0.20780   0.43381   0.54809   0.01267  Uiso   1.00
O1006  O     0.06122   0.00880   0.70629   0.01267  Uiso   1.00
O1007  O     0.06595   0.01335   0.64700   0.01267  Uiso   1.00
O1008  O     0.18553   0.00252   0.54715   0.01267  Uiso   1.00
O1009  O     0.24411   0.01810   0.54809   0.01267  Uiso   1.00
Mn1010 Mn    0.75000  -0.00000   0.75000   0.01267  Uiso   1.00
Mn1011 Mn    0.50000   0.25000   0.75000   0.01267  Uiso   1.00
Mn1012 Mn    0.75000   0.25000   0.75000   0.01267  Uiso   1.00
Mn1013 Mn    0.50000  -0.00000   0.75000   0.01267  Uiso   1.00
Mn1014 Mn    0.84170   0.34170   0.64617   0.01267  Uiso   1.00
Mn1015 Mn    0.51213   0.01213   0.64617   0.01267  Uiso   1.00
Mn1016 Mn    0.65830   0.15830   0.85383   0.01267  Uiso   1.00
Mn1017 Mn    0.98787   0.48787   0.85383   0.01267  Uiso   1.00
Mn1018 Mn    0.51459   0.29276   0.50000   0.01267  Uiso   1.00
Mn1019 Mn    0.98542   0.20725   0.50000   0.01267  Uiso   1.00
Mn1020 Mn    0.70725   0.48542   0.50000   0.01267  Uiso   1.00
Mn1021 Mn    0.79276   0.01458   0.50000   0.01267  Uiso   1.00
H1022  H     0.85165   0.12985   0.72070   0.01267  Uiso   1.00
H1023  H     0.77320   0.14190   0.63500   0.01267  Uiso   1.00
H1024  H     0.78410   0.16780   0.70550   0.01267  Uiso   1.00
H1025  H     0.88605   0.26695   0.60140   0.01267  Uiso   1.00
H1026  H     0.86965   0.15345   0.61780   0.01267  Uiso   1.00
H1027  H     0.92765   0.14945   0.72070   0.01267  Uiso   1.00
H1028  H     0.59180   0.22310   0.63500   0.01267  Uiso   1.00
H1029  H     0.51040   0.12670   0.70550   0.01267  Uiso   1.00
H1030  H     0.51255   0.13165   0.60140   0.01267  Uiso   1.00
H1031  H     0.51255   0.22875   0.61780   0.01267  Uiso   1.00
H1032  H     0.87015   0.14835   0.77930   0.01267  Uiso   1.00
H1033  H     0.85810   0.22680   0.86500   0.01267  Uiso   1.00
H1034  H     0.83220   0.21590   0.79450   0.01267  Uiso   1.00
H1035  H     0.73305   0.11395   0.89860   0.01267  Uiso   1.00
H1036  H     0.84655   0.13035   0.88220   0.01267  Uiso   1.00
H1037  H     0.85055   0.07235   0.77930   0.01267  Uiso   1.00
H1038  H     0.77690   0.40820   0.86500   0.01267  Uiso   1.00
H1039  H     0.87330   0.48960   0.79450   0.01267  Uiso   1.00
H1040  H     0.86835   0.48745   0.89860   0.01267  Uiso   1.00
H1041  H     0.77125   0.48745   0.88220   0.01267  Uiso   1.00
H1042  H     0.64835   0.37015   0.77930   0.01267  Uiso   1.00
H1043  H     0.72680   0.35810   0.86500   0.01267  Uiso   1.00
H1044  H     0.71590   0.33220   0.79450   0.01267  Uiso   1.00
H1045  H     0.61395   0.23305   0.89860   0.01267  Uiso   1.00
H1046  H     0.63035   0.34655   0.88220   0.01267  Uiso   1.00
H1047  H     0.57235   0.35055   0.77930   0.01267  Uiso   1.00
H1048  H     0.90820   0.27690   0.86500   0.01267  Uiso   1.00
H1049  H     0.98960   0.37330   0.79450   0.01267  Uiso   1.00
H1050  H     0.98745   0.36835   0.89860   0.01267  Uiso   1.00
H1051  H     0.98745   0.27125   0.88220   0.01267  Uiso   1.00
H1052  H     0.62985   0.35165   0.72070   0.01267  Uiso   1.00
H1053  H     0.64190   0.27320   0.63500   0.01267  Uiso   1.00
H1054  H     0.66780   0.28410   0.70550   0.01267  Uiso   1.00
H1055  H     0.76695   0.38605   0.60140   0.01267  Uiso   1.00
H1056  H     0.65345   0.36965   0.61780   0.01267  Uiso   1.00
H1057  H     0.64945   0.42765   0.72070   0.01267  Uiso   1.00
H1058  H     0.72310   0.09180   0.63500   0.01267  Uiso   1.00
H1059  H     0.62670   0.01040   0.70550   0.01267  Uiso   1.00
H1060  H     0.63165   0.01255   0.60140   0.01267  Uiso   1.00
H1061  H     0.72875   0.01255   0.61780   0.01267  Uiso   1.00
C1062  C     0.83605   0.10155   0.73400   0.01267  Uiso   1.00
C1063  C     0.80804   0.08366   0.72400   0.01267  Uiso   1.00
C1064  C     0.79953   0.10703   0.69294   0.01267  Uiso   1.00
C1065  C     0.77158   0.08924   0.68438   0.01267  Uiso   1.00
C1066  C     0.76225   0.11295   0.65240   0.01267  Uiso   1.00
C1067  C     0.82319   0.15308   0.66633   0.01267  Uiso   1.00
C1068  C     0.80945   0.17915   0.67980   0.01267  Uiso   1.00
C1069  C     0.83272   0.22122   0.65587   0.01267  Uiso   1.00
C1070  C     0.87015   0.23825   0.61770   0.01267  Uiso   1.00
C1071  C     0.88458   0.21298   0.60315   0.01267  Uiso   1.00
C1072  C     0.86053   0.17053   0.62754   0.01267  Uiso   1.00
C1073  C     0.81750   0.24920   0.67080   0.01267  Uiso   1.00
C1074  C     0.92635   0.23115   0.56250   0.01267  Uiso   1.00
C1075  C     0.92995   0.16445   0.73400   0.01267  Uiso   1.00
C1076  C     0.96796   0.19234   0.72400   0.01267  Uiso   1.00
C1077  C     0.50753   0.20003   0.69294   0.01267  Uiso   1.00
C1078  C     0.54404   0.22638   0.68438   0.01267  Uiso   1.00
C1079  C     0.58535   0.23465   0.65240   0.01267  Uiso   1.00
C1080  C     0.51049   0.18058   0.66633   0.01267  Uiso   1.00
C1081  C     0.51075   0.14105   0.67980   0.01267  Uiso   1.00
C1082  C     0.51142   0.12292   0.65587   0.01267  Uiso   1.00
C1083  C     0.51215   0.14405   0.61770   0.01267  Uiso   1.00
C1084  C     0.51228   0.18388   0.60315   0.01267  Uiso   1.00
C1085  C     0.51193   0.20193   0.62754   0.01267  Uiso   1.00
C1086  C     0.51170   0.08000   0.67080   0.01267  Uiso   1.00
C1087  C     0.51115   0.20635   0.56250   0.01267  Uiso   1.00
C1088  C     0.89845   0.16395   0.76600   0.01267  Uiso   1.00
C1089  C     0.91634   0.19196   0.77600   0.01267  Uiso   1.00
C1090  C     0.89297   0.20047   0.80706   0.01267  Uiso   1.00
C1091  C     0.91076   0.22842   0.81562   0.01267  Uiso   1.00
C1092  C     0.88705   0.23775   0.84760   0.01267  Uiso   1.00
C1093  C     0.84692   0.17681   0.83367   0.01267  Uiso   1.00
C1094  C     0.82085   0.19055   0.82020   0.01267  Uiso   1.00
C1095  C     0.77879   0.16729   0.84413   0.01267  Uiso   1.00
C1096  C     0.76175   0.12985   0.88230   0.01267  Uiso   1.00
C1097  C     0.78703   0.11543   0.89685   0.01267  Uiso   1.00
C1098  C     0.82947   0.13947   0.87246   0.01267  Uiso   1.00
C1099  C     0.75080   0.18250   0.82920   0.01267  Uiso   1.00
C1100  C     0.76885   0.07365   0.93750   0.01267  Uiso   1.00
C1101  C     0.83555   0.07005   0.76600   0.01267  Uiso   1.00
C1102  C     0.80766   0.03204   0.77600   0.01267  Uiso   1.00
C1103  C     0.79997   0.49247   0.80706   0.01267  Uiso   1.00
C1104  C     0.77362   0.45596   0.81562   0.01267  Uiso   1.00
C1105  C     0.76535   0.41465   0.84760   0.01267  Uiso   1.00
C1106  C     0.81942   0.48952   0.83367   0.01267  Uiso   1.00
C1107  C     0.85895   0.48925   0.82020   0.01267  Uiso   1.00
C1108  C     0.87709   0.48859   0.84413   0.01267  Uiso   1.00
C1109  C     0.85595   0.48785   0.88230   0.01267  Uiso   1.00
C1110  C     0.81613   0.48773   0.89685   0.01267  Uiso   1.00
C1111  C     0.79807   0.48807   0.87246   0.01267  Uiso   1.00
C1112  C     0.92000   0.48830   0.82920   0.01267  Uiso   1.00
C1113  C     0.79365   0.48885   0.93750   0.01267  Uiso   1.00
C1114  C     0.66395   0.39845   0.76600   0.01267  Uiso   1.00
C1115  C     0.69196   0.41634   0.77600   0.01267  Uiso   1.00
C1116  C     0.70047   0.39297   0.80706   0.01267  Uiso   1.00
C1117  C     0.72842   0.41076   0.81562   0.01267  Uiso   1.00
C1118  C     0.73775   0.38705   0.84760   0.01267  Uiso   1.00
C1119  C     0.67682   0.34692   0.83367   0.01267  Uiso   1.00
C1120  C     0.69055   0.32085   0.82020   0.01267  Uiso   1.00
C1121  C     0.66729   0.27879   0.84413   0.01267  Uiso   1.00
C1122  C     0.62985   0.26175   0.88230   0.01267  Uiso   1.00
C1123  C     0.61543   0.28703   0.89685   0.01267  Uiso   1.00
C1124  C     0.63947   0.32947   0.87246   0.01267  Uiso   1.00
C1125  C     0.68250   0.25080   0.82920   0.01267  Uiso   1.00
C1126  C     0.57365   0.26885   0.93750   0.01267  Uiso   1.00
C1127  C     0.57005   0.33555   0.76600   0.01267  Uiso   1.00
C1128  C     0.53204   0.30766   0.77600   0.01267  Uiso   1.00
C1129  C     0.99247   0.29997   0.80706   0.01267  Uiso   1.00
C1130  C     0.95596   0.27362   0.81562   0.01267  Uiso   1.00
C1131  C     0.91465   0.26535   0.84760   0.01267  Uiso   1.00
C1132  C     0.98952   0.31942   0.83367   0.01267  Uiso   1.00
C1133  C     0.98925   0.35895   0.82020   0.01267  Uiso   1.00
C1134  C     0.98859   0.37708   0.84413   0.01267  Uiso   1.00
C1135  C     0.98785   0.35595   0.88230   0.01267  Uiso   1.00
C1136  C     0.98773   0.31613   0.89685   0.01267  Uiso   1.00
C1137  C     0.98807   0.29807   0.87246   0.01267  Uiso   1.00
C1138  C     0.98830   0.42000   0.82920   0.01267  Uiso   1.00
C1139  C     0.98885   0.29365   0.93750   0.01267  Uiso   1.00
C1140  C     0.60155   0.33605   0.73400   0.01267  Uiso   1.00
C1141  C     0.58366   0.30804   0.72400   0.01267  Uiso   1.00
C1142  C     0.60703   0.29953   0.69294   0.01267  Uiso   1.00
C1143  C     0.58924   0.27158   0.68438   0.01267  Uiso   1.00
C1144  C     0.61295   0.26225   0.65240   0.01267  Uiso   1.00
C1145  C     0.65309   0.32319   0.66633   0.01267  Uiso   1.00
C1146  C     0.67915   0.30945   0.67980   0.01267  Uiso   1.00
C1147  C     0.72122   0.33271   0.65587   0.01267  Uiso   1.00
C1148  C     0.73825   0.37015   0.61770   0.01267  Uiso   1.00
C1149  C     0.71298   0.38458   0.60315   0.01267  Uiso   1.00
C1150  C     0.67053   0.36053   0.62754   0.01267  Uiso   1.00
C1151  C     0.74920   0.31750   0.67080   0.01267  Uiso   1.00
C1152  C     0.73115   0.42635   0.56250   0.01267  Uiso   1.00
C1153  C     0.66445   0.42995   0.73400   0.01267  Uiso   1.00
C1154  C     0.69234   0.46796   0.72400   0.01267  Uiso   1.00
C1155  C     0.70003   0.00753   0.69294   0.01267  Uiso   1.00
C1156  C     0.72638   0.04404   0.68438   0.01267  Uiso   1.00
C1157  C     0.73465   0.08535   0.65240   0.01267  Uiso   1.00
C1158  C     0.68059   0.01049   0.66633   0.01267  Uiso   1.00
C1159  C     0.64105   0.01075   0.67980   0.01267  Uiso   1.00
C1160  C     0.62292   0.01141   0.65587   0.01267  Uiso   1.00
C1161  C     0.64405   0.01215   0.61770   0.01267  Uiso   1.00
C1162  C     0.68388   0.01227   0.60315   0.01267  Uiso   1.00
C1163  C     0.70193   0.01193   0.62754   0.01267  Uiso   1.00
C1164  C     0.58000   0.01170   0.67080   0.01267  Uiso   1.00
C1165  C     0.70635   0.01115   0.56250   0.01267  Uiso   1.00
N1166  N     0.74918   0.04738   0.70344   0.01267  Uiso   1.00
N1167  N     0.54738   0.24918   0.70344   0.01267  Uiso   1.00
N1168  N     0.95262   0.25082   0.79656   0.01267  Uiso   1.00
N1169  N     0.75082   0.45262   0.79656   0.01267  Uiso   1.00
N1170  N     0.79120   0.04120   0.75000   0.01267  Uiso   1.00
N1171  N     0.95880   0.20880   0.75000   0.01267  Uiso   1.00
N1172  N     0.70880   0.45880   0.75000   0.01267  Uiso   1.00
N1173  N     0.54120   0.29120   0.75000   0.01267  Uiso   1.00
Cl1174 Cl    0.54150   0.35295   0.50000   0.01267  Uiso   1.00
Cl1175 Cl    0.95850   0.14705   0.50000   0.01267  Uiso   1.00
Cl1176 Cl    0.64705   0.45850   0.50000   0.01267  Uiso   1.00
Cl1177 Cl    0.85295   0.04150   0.50000   0.01267  Uiso   1.00
Cl1178 Cl    0.50158   0.19219   0.80623   0.01267  Uiso   1.00
Cl1179 Cl    0.99842   0.30782   0.69377   0.01267  Uiso   1.00
Cl1180 Cl    0.80782   0.49842   0.69377   0.01267  Uiso   1.00
O1181  O     0.78492   0.23250   0.70629   0.01267  Uiso   1.00
O1182  O     0.83965   0.28705   0.64700   0.01267  Uiso   1.00
O1183  O     0.95033   0.26733   0.54715   0.01267  Uiso   1.00
O1184  O     0.93381   0.20780   0.54809   0.01267  Uiso   1.00
O1185  O     0.50879   0.06121   0.70629   0.01267  Uiso   1.00
O1186  O     0.51335   0.06595   0.64700   0.01267  Uiso   1.00
O1187  O     0.50253   0.18553   0.54715   0.01267  Uiso   1.00
O1188  O     0.51810   0.24411   0.54809   0.01267  Uiso   1.00
O1189  O     0.76751   0.21509   0.79371   0.01267  Uiso   1.00
O1190  O     0.71295   0.16035   0.85300   0.01267  Uiso   1.00
O1191  O     0.73268   0.04967   0.95285   0.01267  Uiso   1.00
O1192  O     0.79220   0.06619   0.95191   0.01267  Uiso   1.00
O1193  O     0.93879   0.49121   0.79371   0.01267  Uiso   1.00
O1194  O     0.93405   0.48665   0.85300   0.01267  Uiso   1.00
O1195  O     0.81448   0.49748   0.95285   0.01267  Uiso   1.00
O1196  O     0.75589   0.48190   0.95191   0.01267  Uiso   1.00
O1197  O     0.71509   0.26751   0.79371   0.01267  Uiso   1.00
O1198  O     0.66035   0.21295   0.85300   0.01267  Uiso   1.00
O1199  O     0.54968   0.23267   0.95285   0.01267  Uiso   1.00
O1200  O     0.56619   0.29220   0.95191   0.01267  Uiso   1.00
O1201  O     0.99121   0.43879   0.79371   0.01267  Uiso   1.00
O1202  O     0.98665   0.43405   0.85300   0.01267  Uiso   1.00
O1203  O     0.99748   0.31447   0.95285   0.01267  Uiso   1.00
O1204  O     0.98190   0.25589   0.95191   0.01267  Uiso   1.00
O1205  O     0.73250   0.28492   0.70629   0.01267  Uiso   1.00
O1206  O     0.78705   0.33965   0.64700   0.01267  Uiso   1.00
O1207  O     0.76733   0.45033   0.54715   0.01267  Uiso   1.00
O1208  O     0.70780   0.43381   0.54809   0.01267  Uiso   1.00
O1209  O     0.56122   0.00880   0.70629   0.01267  Uiso   1.00
O1210  O     0.56595   0.01335   0.64700   0.01267  Uiso   1.00
O1211  O     0.68553   0.00252   0.54715   0.01267  Uiso   1.00
O1212  O     0.74411   0.01810   0.54809   0.01267  Uiso   1.00
Mn1213 Mn    0.25000   0.50000   0.75000   0.01267  Uiso   1.00
Mn1214 Mn    0.00000   0.75000   0.75000   0.01267  Uiso   1.00
Mn1215 Mn    0.25000   0.75000   0.75000   0.01267  Uiso   1.00
Mn1216 Mn    0.00000   0.50000   0.75000   0.01267  Uiso   1.00
Mn1217 Mn    0.34170   0.84170   0.64617   0.01267  Uiso   1.00
Mn1218 Mn    0.01213   0.51213   0.64617   0.01267  Uiso   1.00
Mn1219 Mn    0.15830   0.65830   0.85383   0.01267  Uiso   1.00
Mn1220 Mn    0.48787   0.98787   0.85383   0.01267  Uiso   1.00
Mn1221 Mn    0.01458   0.79276   0.50000   0.01267  Uiso   1.00
Mn1222 Mn    0.48542   0.70725   0.50000   0.01267  Uiso   1.00
Mn1223 Mn    0.20725   0.98542   0.50000   0.01267  Uiso   1.00
Mn1224 Mn    0.29276   0.51458   0.50000   0.01267  Uiso   1.00
H1225  H     0.35165   0.62985   0.72070   0.01267  Uiso   1.00
H1226  H     0.27320   0.64190   0.63500   0.01267  Uiso   1.00
H1227  H     0.28410   0.66780   0.70550   0.01267  Uiso   1.00
H1228  H     0.38605   0.76695   0.60140   0.01267  Uiso   1.00
H1229  H     0.36965   0.65345   0.61780   0.01267  Uiso   1.00
H1230  H     0.42765   0.64945   0.72070   0.01267  Uiso   1.00
H1231  H     0.09180   0.72310   0.63500   0.01267  Uiso   1.00
H1232  H     0.01040   0.62670   0.70550   0.01267  Uiso   1.00
H1233  H     0.01255   0.63165   0.60140   0.01267  Uiso   1.00
H1234  H     0.01255   0.72875   0.61780   0.01267  Uiso   1.00
H1235  H     0.37015   0.64835   0.77930   0.01267  Uiso   1.00
H1236  H     0.35810   0.72680   0.86500   0.01267  Uiso   1.00
H1237  H     0.33220   0.71590   0.79450   0.01267  Uiso   1.00
H1238  H     0.23305   0.61395   0.89860   0.01267  Uiso   1.00
H1239  H     0.34655   0.63035   0.88220   0.01267  Uiso   1.00
H1240  H     0.35055   0.57235   0.77930   0.01267  Uiso   1.00
H1241  H     0.27690   0.90820   0.86500   0.01267  Uiso   1.00
H1242  H     0.37330   0.98960   0.79450   0.01267  Uiso   1.00
H1243  H     0.36835   0.98745   0.89860   0.01267  Uiso   1.00
H1244  H     0.27125   0.98745   0.88220   0.01267  Uiso   1.00
H1245  H     0.14835   0.87015   0.77930   0.01267  Uiso   1.00
H1246  H     0.22680   0.85810   0.86500   0.01267  Uiso   1.00
H1247  H     0.21590   0.83220   0.79450   0.01267  Uiso   1.00
H1248  H     0.11395   0.73305   0.89860   0.01267  Uiso   1.00
H1249  H     0.13035   0.84655   0.88220   0.01267  Uiso   1.00
H1250  H     0.07235   0.85055   0.77930   0.01267  Uiso   1.00
H1251  H     0.40820   0.77690   0.86500   0.01267  Uiso   1.00
H1252  H     0.48960   0.87330   0.79450   0.01267  Uiso   1.00
H1253  H     0.48745   0.86835   0.89860   0.01267  Uiso   1.00
H1254  H     0.48745   0.77125   0.88220   0.01267  Uiso   1.00
H1255  H     0.12985   0.85165   0.72070   0.01267  Uiso   1.00
H1256  H     0.14190   0.77320   0.63500   0.01267  Uiso   1.00
H1257  H     0.16780   0.78410   0.70550   0.01267  Uiso   1.00
H1258  H     0.26695   0.88605   0.60140   0.01267  Uiso   1.00
H1259  H     0.15345   0.86965   0.61780   0.01267  Uiso   1.00
H1260  H     0.14945   0.92765   0.72070   0.01267  Uiso   1.00
H1261  H     0.22310   0.59180   0.63500   0.01267  Uiso   1.00
H1262  H     0.12670   0.51040   0.70550   0.01267  Uiso   1.00
H1263  H     0.13165   0.51255   0.60140   0.01267  Uiso   1.00
H1264  H     0.22875   0.51255   0.61780   0.01267  Uiso   1.00
C1265  C     0.33605   0.60155   0.73400   0.01267  Uiso   1.00
C1266  C     0.30804   0.58366   0.72400   0.01267  Uiso   1.00
C1267  C     0.29953   0.60703   0.69294   0.01267  Uiso   1.00
C1268  C     0.27158   0.58924   0.68438   0.01267  Uiso   1.00
C1269  C     0.26225   0.61295   0.65240   0.01267  Uiso   1.00
C1270  C     0.32319   0.65309   0.66633   0.01267  Uiso   1.00
C1271  C     0.30945   0.67915   0.67980   0.01267  Uiso   1.00
C1272  C     0.33272   0.72122   0.65587   0.01267  Uiso   1.00
C1273  C     0.37015   0.73825   0.61770   0.01267  Uiso   1.00
C1274  C     0.38458   0.71298   0.60315   0.01267  Uiso   1.00
C1275  C     0.36053   0.67053   0.62754   0.01267  Uiso   1.00
C1276  C     0.31750   0.74920   0.67080   0.01267  Uiso   1.00
C1277  C     0.42635   0.73115   0.56250   0.01267  Uiso   1.00
C1278  C     0.42995   0.66445   0.73400   0.01267  Uiso   1.00
C1279  C     0.46796   0.69234   0.72400   0.01267  Uiso   1.00
C1280  C     0.00753   0.70003   0.69294   0.01267  Uiso   1.00
C1281  C     0.04404   0.72638   0.68438   0.01267  Uiso   1.00
C1282  C     0.08535   0.73465   0.65240   0.01267  Uiso   1.00
C1283  C     0.01048   0.68059   0.66633   0.01267  Uiso   1.00
C1284  C     0.01075   0.64105   0.67980   0.01267  Uiso   1.00
C1285  C     0.01141   0.62292   0.65587   0.01267  Uiso   1.00
C1286  C     0.01215   0.64405   0.61770   0.01267  Uiso   1.00
C1287  C     0.01227   0.68388   0.60315   0.01267  Uiso   1.00
C1288  C     0.01193   0.70193   0.62754   0.01267  Uiso   1.00
C1289  C     0.01170   0.58000   0.67080   0.01267  Uiso   1.00
C1290  C     0.01115   0.70635   0.56250   0.01267  Uiso   1.00
C1291  C     0.39845   0.66395   0.76600   0.01267  Uiso   1.00
C1292  C     0.41634   0.69196   0.77600   0.01267  Uiso   1.00
C1293  C     0.39297   0.70047   0.80706   0.01267  Uiso   1.00
C1294  C     0.41076   0.72842   0.81562   0.01267  Uiso   1.00
C1295  C     0.38705   0.73775   0.84760   0.01267  Uiso   1.00
C1296  C     0.34692   0.67681   0.83367   0.01267  Uiso   1.00
C1297  C     0.32085   0.69055   0.82020   0.01267  Uiso   1.00
C1298  C     0.27879   0.66729   0.84413   0.01267  Uiso   1.00
C1299  C     0.26175   0.62985   0.88230   0.01267  Uiso   1.00
C1300  C     0.28703   0.61543   0.89685   0.01267  Uiso   1.00
C1301  C     0.32947   0.63947   0.87246   0.01267  Uiso   1.00
C1302  C     0.25080   0.68250   0.82920   0.01267  Uiso   1.00
C1303  C     0.26885   0.57365   0.93750   0.01267  Uiso   1.00
C1304  C     0.33555   0.57005   0.76600   0.01267  Uiso   1.00
C1305  C     0.30766   0.53204   0.77600   0.01267  Uiso   1.00
C1306  C     0.29997   0.99247   0.80706   0.01267  Uiso   1.00
C1307  C     0.27362   0.95596   0.81562   0.01267  Uiso   1.00
C1308  C     0.26535   0.91465   0.84760   0.01267  Uiso   1.00
C1309  C     0.31942   0.98952   0.83367   0.01267  Uiso   1.00
C1310  C     0.35895   0.98925   0.82020   0.01267  Uiso   1.00
C1311  C     0.37709   0.98859   0.84413   0.01267  Uiso   1.00
C1312  C     0.35595   0.98785   0.88230   0.01267  Uiso   1.00
C1313  C     0.31612   0.98773   0.89685   0.01267  Uiso   1.00
C1314  C     0.29807   0.98807   0.87246   0.01267  Uiso   1.00
C1315  C     0.42000   0.98830   0.82920   0.01267  Uiso   1.00
C1316  C     0.29365   0.98885   0.93750   0.01267  Uiso   1.00
C1317  C     0.16395   0.89845   0.76600   0.01267  Uiso   1.00
C1318  C     0.19196   0.91634   0.77600   0.01267  Uiso   1.00
C1319  C     0.20047   0.89297   0.80706   0.01267  Uiso   1.00
C1320  C     0.22842   0.91076   0.81562   0.01267  Uiso   1.00
C1321  C     0.23775   0.88705   0.84760   0.01267  Uiso   1.00
C1322  C     0.17682   0.84692   0.83367   0.01267  Uiso   1.00
C1323  C     0.19055   0.82085   0.82020   0.01267  Uiso   1.00
C1324  C     0.16729   0.77879   0.84413   0.01267  Uiso   1.00
C1325  C     0.12985   0.76175   0.88230   0.01267  Uiso   1.00
C1326  C     0.11543   0.78703   0.89685   0.01267  Uiso   1.00
C1327  C     0.13947   0.82947   0.87246   0.01267  Uiso   1.00
C1328  C     0.18250   0.75080   0.82920   0.01267  Uiso   1.00
C1329  C     0.07365   0.76885   0.93750   0.01267  Uiso   1.00
C1330  C     0.07005   0.83555   0.76600   0.01267  Uiso   1.00
C1331  C     0.03204   0.80766   0.77600   0.01267  Uiso   1.00
C1332  C     0.49247   0.79997   0.80706   0.01267  Uiso   1.00
C1333  C     0.45596   0.77362   0.81562   0.01267  Uiso   1.00
C1334  C     0.41465   0.76535   0.84760   0.01267  Uiso   1.00
C1335  C     0.48952   0.81942   0.83367   0.01267  Uiso   1.00
C1336  C     0.48925   0.85895   0.82020   0.01267  Uiso   1.00
C1337  C     0.48859   0.87708   0.84413   0.01267  Uiso   1.00
C1338  C     0.48785   0.85595   0.88230   0.01267  Uiso   1.00
C1339  C     0.48773   0.81613   0.89685   0.01267  Uiso   1.00
C1340  C     0.48807   0.79807   0.87246   0.01267  Uiso   1.00
C1341  C     0.48830   0.92000   0.82920   0.01267  Uiso   1.00
C1342  C     0.48885   0.79365   0.93750   0.01267  Uiso   1.00
C1343  C     0.10155   0.83605   0.73400   0.01267  Uiso   1.00
C1344  C     0.08366   0.80804   0.72400   0.01267  Uiso   1.00
C1345  C     0.10703   0.79953   0.69294   0.01267  Uiso   1.00
C1346  C     0.08924   0.77158   0.68438   0.01267  Uiso   1.00
C1347  C     0.11295   0.76225   0.65240   0.01267  Uiso   1.00
C1348  C     0.15309   0.82319   0.66633   0.01267  Uiso   1.00
C1349  C     0.17915   0.80945   0.67980   0.01267  Uiso   1.00
C1350  C     0.22122   0.83272   0.65587   0.01267  Uiso   1.00
C1351  C     0.23825   0.87015   0.61770   0.01267  Uiso   1.00
C1352  C     0.21298   0.88458   0.60315   0.01267  Uiso   1.00
C1353  C     0.17053   0.86053   0.62754   0.01267  Uiso   1.00
C1354  C     0.24920   0.81750   0.67080   0.01267  Uiso   1.00
C1355  C     0.23115   0.92635   0.56250   0.01267  Uiso   1.00
C1356  C     0.16445   0.92995   0.73400   0.01267  Uiso   1.00
C1357  C     0.19234   0.96796   0.72400   0.01267  Uiso   1.00
C1358  C     0.20003   0.50753   0.69294   0.01267  Uiso   1.00
C1359  C     0.22638   0.54404   0.68438   0.01267  Uiso   1.00
C1360  C     0.23465   0.58535   0.65240   0.01267  Uiso   1.00
C1361  C     0.18059   0.51049   0.66633   0.01267  Uiso   1.00
C1362  C     0.14105   0.51075   0.67980   0.01267  Uiso   1.00
C1363  C     0.12292   0.51141   0.65587   0.01267  Uiso   1.00
C1364  C     0.14405   0.51215   0.61770   0.01267  Uiso   1.00
C1365  C     0.18388   0.51227   0.60315   0.01267  Uiso   1.00
C1366  C     0.20193   0.51193   0.62754   0.01267  Uiso   1.00
C1367  C     0.08000   0.51170   0.67080   0.01267  Uiso   1.00
C1368  C     0.20635   0.51115   0.56250   0.01267  Uiso   1.00
N1369  N     0.24918   0.54738   0.70344   0.01267  Uiso   1.00
N1370  N     0.04738   0.74918   0.70344   0.01267  Uiso   1.00
N1371  N     0.45262   0.75082   0.79656   0.01267  Uiso   1.00
N1372  N     0.25082   0.95262   0.79656   0.01267  Uiso   1.00
N1373  N     0.29120   0.54120   0.75000   0.01267  Uiso   1.00
N1374  N     0.45880   0.70880   0.75000   0.01267  Uiso   1.00
N1375  N     0.20880   0.95880   0.75000   0.01267  Uiso   1.00
N1376  N     0.04120   0.79120   0.75000   0.01267  Uiso   1.00
Cl1377 Cl    0.04150   0.85295   0.50000   0.01267  Uiso   1.00
Cl1378 Cl    0.45850   0.64705   0.50000   0.01267  Uiso   1.00
Cl1379 Cl    0.14705   0.95850   0.50000   0.01267  Uiso   1.00
Cl1380 Cl    0.35295   0.54150   0.50000   0.01267  Uiso   1.00
Cl1381 Cl    0.19219   0.50158   0.80623   0.01267  Uiso   1.00
Cl1382 Cl    0.30782   0.99842   0.69377   0.01267  Uiso   1.00
O1383  O     0.28492   0.73250   0.70629   0.01267  Uiso   1.00
O1384  O     0.33965   0.78705   0.64700   0.01267  Uiso   1.00
O1385  O     0.45033   0.76733   0.54715   0.01267  Uiso   1.00
O1386  O     0.43381   0.70780   0.54809   0.01267  Uiso   1.00
O1387  O     0.00879   0.56122   0.70629   0.01267  Uiso   1.00
O1388  O     0.01335   0.56595   0.64700   0.01267  Uiso   1.00
O1389  O     0.00252   0.68553   0.54715   0.01267  Uiso   1.00
O1390  O     0.01810   0.74411   0.54809   0.01267  Uiso   1.00
O1391  O     0.26751   0.71509   0.79371   0.01267  Uiso   1.00
O1392  O     0.21295   0.66035   0.85300   0.01267  Uiso   1.00
O1393  O     0.23268   0.54967   0.95285   0.01267  Uiso   1.00
O1394  O     0.29220   0.56619   0.95191   0.01267  Uiso   1.00
O1395  O     0.43879   0.99121   0.79371   0.01267  Uiso   1.00
O1396  O     0.43405   0.98665   0.85300   0.01267  Uiso   1.00
O1397  O     0.31448   0.99748   0.95285   0.01267  Uiso   1.00
O1398  O     0.25589   0.98190   0.95191   0.01267  Uiso   1.00
O1399  O     0.21509   0.76751   0.79371   0.01267  Uiso   1.00
O1400  O     0.16035   0.71295   0.85300   0.01267  Uiso   1.00
O1401  O     0.04968   0.73267   0.95285   0.01267  Uiso   1.00
O1402  O     0.06619   0.79220   0.95191   0.01267  Uiso   1.00
O1403  O     0.49121   0.93879   0.79371   0.01267  Uiso   1.00
O1404  O     0.48665   0.93405   0.85300   0.01267  Uiso   1.00
O1405  O     0.49748   0.81448   0.95285   0.01267  Uiso   1.00
O1406  O     0.48190   0.75589   0.95191   0.01267  Uiso   1.00
O1407  O     0.23250   0.78492   0.70629   0.01267  Uiso   1.00
O1408  O     0.28705   0.83965   0.64700   0.01267  Uiso   1.00
O1409  O     0.26733   0.95033   0.54715   0.01267  Uiso   1.00
O1410  O     0.20780   0.93381   0.54809   0.01267  Uiso   1.00
O1411  O     0.06122   0.50880   0.70629   0.01267  Uiso   1.00
O1412  O     0.06595   0.51335   0.64700   0.01267  Uiso   1.00
O1413  O     0.18553   0.50253   0.54715   0.01267  Uiso   1.00
O1414  O     0.24411   0.51810   0.54809   0.01267  Uiso   1.00
Mn1415 Mn    0.75000   0.50000   0.75000   0.01267  Uiso   1.00
Mn1416 Mn    0.50000   0.75000   0.75000   0.01267  Uiso   1.00
Mn1417 Mn    0.75000   0.75000   0.75000   0.01267  Uiso   1.00
Mn1418 Mn    0.50000   0.50000   0.75000   0.01267  Uiso   1.00
Mn1419 Mn    0.84170   0.84170   0.64617   0.01267  Uiso   1.00
Mn1420 Mn    0.51213   0.51213   0.64617   0.01267  Uiso   1.00
Mn1421 Mn    0.65830   0.65830   0.85383   0.01267  Uiso   1.00
Mn1422 Mn    0.98787   0.98787   0.85383   0.01267  Uiso   1.00
Mn1423 Mn    0.51459   0.79276   0.50000   0.01267  Uiso   1.00
Mn1424 Mn    0.98542   0.70725   0.50000   0.01267  Uiso   1.00
Mn1425 Mn    0.70725   0.98542   0.50000   0.01267  Uiso   1.00
Mn1426 Mn    0.79276   0.51458   0.50000   0.01267  Uiso   1.00
H1427  H     0.85165   0.62985   0.72070   0.01267  Uiso   1.00
H1428  H     0.77320   0.64190   0.63500   0.01267  Uiso   1.00
H1429  H     0.78410   0.66780   0.70550   0.01267  Uiso   1.00
H1430  H     0.88605   0.76695   0.60140   0.01267  Uiso   1.00
H1431  H     0.86965   0.65345   0.61780   0.01267  Uiso   1.00
H1432  H     0.92765   0.64945   0.72070   0.01267  Uiso   1.00
H1433  H     0.59180   0.72310   0.63500   0.01267  Uiso   1.00
H1434  H     0.51040   0.62670   0.70550   0.01267  Uiso   1.00
H1435  H     0.51255   0.63165   0.60140   0.01267  Uiso   1.00
H1436  H     0.51255   0.72875   0.61780   0.01267  Uiso   1.00
H1437  H     0.87015   0.64835   0.77930   0.01267  Uiso   1.00
H1438  H     0.85810   0.72680   0.86500   0.01267  Uiso   1.00
H1439  H     0.83220   0.71590   0.79450   0.01267  Uiso   1.00
H1440  H     0.73305   0.61395   0.89860   0.01267  Uiso   1.00
H1441  H     0.84655   0.63035   0.88220   0.01267  Uiso   1.00
H1442  H     0.85055   0.57235   0.77930   0.01267  Uiso   1.00
H1443  H     0.77690   0.90820   0.86500   0.01267  Uiso   1.00
H1444  H     0.87330   0.98960   0.79450   0.01267  Uiso   1.00
H1445  H     0.86835   0.98745   0.89860   0.01267  Uiso   1.00
H1446  H     0.77125   0.98745   0.88220   0.01267  Uiso   1.00
H1447  H     0.64835   0.87015   0.77930   0.01267  Uiso   1.00
H1448  H     0.72680   0.85810   0.86500   0.01267  Uiso   1.00
H1449  H     0.71590   0.83220   0.79450   0.01267  Uiso   1.00
H1450  H     0.61395   0.73305   0.89860   0.01267  Uiso   1.00
H1451  H     0.63035   0.84655   0.88220   0.01267  Uiso   1.00
H1452  H     0.57235   0.85055   0.77930   0.01267  Uiso   1.00
H1453  H     0.90820   0.77690   0.86500   0.01267  Uiso   1.00
H1454  H     0.98960   0.87330   0.79450   0.01267  Uiso   1.00
H1455  H     0.98745   0.86835   0.89860   0.01267  Uiso   1.00
H1456  H     0.98745   0.77125   0.88220   0.01267  Uiso   1.00
H1457  H     0.62985   0.85165   0.72070   0.01267  Uiso   1.00
H1458  H     0.64190   0.77320   0.63500   0.01267  Uiso   1.00
H1459  H     0.66780   0.78410   0.70550   0.01267  Uiso   1.00
H1460  H     0.76695   0.88605   0.60140   0.01267  Uiso   1.00
H1461  H     0.65345   0.86965   0.61780   0.01267  Uiso   1.00
H1462  H     0.64945   0.92765   0.72070   0.01267  Uiso   1.00
H1463  H     0.72310   0.59180   0.63500   0.01267  Uiso   1.00
H1464  H     0.62670   0.51040   0.70550   0.01267  Uiso   1.00
H1465  H     0.63165   0.51255   0.60140   0.01267  Uiso   1.00
H1466  H     0.72875   0.51255   0.61780   0.01267  Uiso   1.00
C1467  C     0.83605   0.60155   0.73400   0.01267  Uiso   1.00
C1468  C     0.80804   0.58366   0.72400   0.01267  Uiso   1.00
C1469  C     0.79953   0.60703   0.69294   0.01267  Uiso   1.00
C1470  C     0.77158   0.58924   0.68438   0.01267  Uiso   1.00
C1471  C     0.76225   0.61295   0.65240   0.01267  Uiso   1.00
C1472  C     0.82319   0.65308   0.66633   0.01267  Uiso   1.00
C1473  C     0.80945   0.67915   0.67980   0.01267  Uiso   1.00
C1474  C     0.83272   0.72122   0.65587   0.01267  Uiso   1.00
C1475  C     0.87015   0.73825   0.61770   0.01267  Uiso   1.00
C1476  C     0.88458   0.71298   0.60315   0.01267  Uiso   1.00
C1477  C     0.86053   0.67053   0.62754   0.01267  Uiso   1.00
C1478  C     0.81750   0.74920   0.67080   0.01267  Uiso   1.00
C1479  C     0.92635   0.73115   0.56250   0.01267  Uiso   1.00
C1480  C     0.92995   0.66445   0.73400   0.01267  Uiso   1.00
C1481  C     0.96796   0.69234   0.72400   0.01267  Uiso   1.00
C1482  C     0.50753   0.70003   0.69294   0.01267  Uiso   1.00
C1483  C     0.54404   0.72638   0.68438   0.01267  Uiso   1.00
C1484  C     0.58535   0.73465   0.65240   0.01267  Uiso   1.00
C1485  C     0.51049   0.68059   0.66633   0.01267  Uiso   1.00
C1486  C     0.51075   0.64105   0.67980   0.01267  Uiso   1.00
C1487  C     0.51142   0.62292   0.65587   0.01267  Uiso   1.00
C1488  C     0.51215   0.64405   0.61770   0.01267  Uiso   1.00
C1489  C     0.51228   0.68388   0.60315   0.01267  Uiso   1.00
C1490  C     0.51193   0.70193   0.62754   0.01267  Uiso   1.00
C1491  C     0.51170   0.58000   0.67080   0.01267  Uiso   1.00
C1492  C     0.51115   0.70635   0.56250   0.01267  Uiso   1.00
C1493  C     0.89845   0.66395   0.76600   0.01267  Uiso   1.00
C1494  C     0.91634   0.69196   0.77600   0.01267  Uiso   1.00
C1495  C     0.89297   0.70047   0.80706   0.01267  Uiso   1.00
C1496  C     0.91076   0.72842   0.81562   0.01267  Uiso   1.00
C1497  C     0.88705   0.73775   0.84760   0.01267  Uiso   1.00
C1498  C     0.84692   0.67681   0.83367   0.01267  Uiso   1.00
C1499  C     0.82085   0.69055   0.82020   0.01267  Uiso   1.00
C1500  C     0.77879   0.66729   0.84413   0.01267  Uiso   1.00
C1501  C     0.76175   0.62985   0.88230   0.01267  Uiso   1.00
C1502  C     0.78703   0.61543   0.89685   0.01267  Uiso   1.00
C1503  C     0.82947   0.63947   0.87246   0.01267  Uiso   1.00
C1504  C     0.75080   0.68250   0.82920   0.01267  Uiso   1.00
C1505  C     0.76885   0.57365   0.93750   0.01267  Uiso   1.00
C1506  C     0.83555   0.57005   0.76600   0.01267  Uiso   1.00
C1507  C     0.80766   0.53204   0.77600   0.01267  Uiso   1.00
C1508  C     0.79997   0.99247   0.80706   0.01267  Uiso   1.00
C1509  C     0.77362   0.95596   0.81562   0.01267  Uiso   1.00
C1510  C     0.76535   0.91465   0.84760   0.01267  Uiso   1.00
C1511  C     0.81942   0.98952   0.83367   0.01267  Uiso   1.00
C1512  C     0.85895   0.98925   0.82020   0.01267  Uiso   1.00
C1513  C     0.87709   0.98859   0.84413   0.01267  Uiso   1.00
C1514  C     0.85595   0.98785   0.88230   0.01267  Uiso   1.00
C1515  C     0.81613   0.98773   0.89685   0.01267  Uiso   1.00
C1516  C     0.79807   0.98807   0.87246   0.01267  Uiso   1.00
C1517  C     0.92000   0.98830   0.82920   0.01267  Uiso   1.00
C1518  C     0.79365   0.98885   0.93750   0.01267  Uiso   1.00
C1519  C     0.66395   0.89845   0.76600   0.01267  Uiso   1.00
C1520  C     0.69196   0.91634   0.77600   0.01267  Uiso   1.00
C1521  C     0.70047   0.89297   0.80706   0.01267  Uiso   1.00
C1522  C     0.72842   0.91076   0.81562   0.01267  Uiso   1.00
C1523  C     0.73775   0.88705   0.84760   0.01267  Uiso   1.00
C1524  C     0.67682   0.84692   0.83367   0.01267  Uiso   1.00
C1525  C     0.69055   0.82085   0.82020   0.01267  Uiso   1.00
C1526  C     0.66729   0.77879   0.84413   0.01267  Uiso   1.00
C1527  C     0.62985   0.76175   0.88230   0.01267  Uiso   1.00
C1528  C     0.61543   0.78703   0.89685   0.01267  Uiso   1.00
C1529  C     0.63947   0.82947   0.87246   0.01267  Uiso   1.00
C1530  C     0.68250   0.75080   0.82920   0.01267  Uiso   1.00
C1531  C     0.57365   0.76885   0.93750   0.01267  Uiso   1.00
C1532  C     0.57005   0.83555   0.76600   0.01267  Uiso   1.00
C1533  C     0.53204   0.80766   0.77600   0.01267  Uiso   1.00
C1534  C     0.99247   0.79997   0.80706   0.01267  Uiso   1.00
C1535  C     0.95596   0.77362   0.81562   0.01267  Uiso   1.00
C1536  C     0.91465   0.76535   0.84760   0.01267  Uiso   1.00
C1537  C     0.98952   0.81942   0.83367   0.01267  Uiso   1.00
C1538  C     0.98925   0.85895   0.82020   0.01267  Uiso   1.00
C1539  C     0.98859   0.87708   0.84413   0.01267  Uiso   1.00
C1540  C     0.98785   0.85595   0.88230   0.01267  Uiso   1.00
C1541  C     0.98773   0.81613   0.89685   0.01267  Uiso   1.00
C1542  C     0.98807   0.79807   0.87246   0.01267  Uiso   1.00
C1543  C     0.98830   0.92000   0.82920   0.01267  Uiso   1.00
C1544  C     0.98885   0.79365   0.93750   0.01267  Uiso   1.00
C1545  C     0.60155   0.83605   0.73400   0.01267  Uiso   1.00
C1546  C     0.58366   0.80804   0.72400   0.01267  Uiso   1.00
C1547  C     0.60703   0.79953   0.69294   0.01267  Uiso   1.00
C1548  C     0.58924   0.77158   0.68438   0.01267  Uiso   1.00
C1549  C     0.61295   0.76225   0.65240   0.01267  Uiso   1.00
C1550  C     0.65309   0.82319   0.66633   0.01267  Uiso   1.00
C1551  C     0.67915   0.80945   0.67980   0.01267  Uiso   1.00
C1552  C     0.72122   0.83272   0.65587   0.01267  Uiso   1.00
C1553  C     0.73825   0.87015   0.61770   0.01267  Uiso   1.00
C1554  C     0.71298   0.88458   0.60315   0.01267  Uiso   1.00
C1555  C     0.67053   0.86053   0.62754   0.01267  Uiso   1.00
C1556  C     0.74920   0.81750   0.67080   0.01267  Uiso   1.00
C1557  C     0.73115   0.92635   0.56250   0.01267  Uiso   1.00
C1558  C     0.66445   0.92995   0.73400   0.01267  Uiso   1.00
C1559  C     0.69234   0.96796   0.72400   0.01267  Uiso   1.00
C1560  C     0.70003   0.50753   0.69294   0.01267  Uiso   1.00
C1561  C     0.72638   0.54404   0.68438   0.01267  Uiso   1.00
C1562  C     0.73465   0.58535   0.65240   0.01267  Uiso   1.00
C1563  C     0.68059   0.51049   0.66633   0.01267  Uiso   1.00
C1564  C     0.64105   0.51075   0.67980   0.01267  Uiso   1.00
C1565  C     0.62292   0.51141   0.65587   0.01267  Uiso   1.00
C1566  C     0.64405   0.51215   0.61770   0.01267  Uiso   1.00
C1567  C     0.68388   0.51227   0.60315   0.01267  Uiso   1.00
C1568  C     0.70193   0.51193   0.62754   0.01267  Uiso   1.00
C1569  C     0.58000   0.51170   0.67080   0.01267  Uiso   1.00
C1570  C     0.70635   0.51115   0.56250   0.01267  Uiso   1.00
N1571  N     0.74918   0.54738   0.70344   0.01267  Uiso   1.00
N1572  N     0.54738   0.74918   0.70344   0.01267  Uiso   1.00
N1573  N     0.95262   0.75082   0.79656   0.01267  Uiso   1.00
N1574  N     0.75082   0.95262   0.79656   0.01267  Uiso   1.00
N1575  N     0.79120   0.54120   0.75000   0.01267  Uiso   1.00
N1576  N     0.95880   0.70880   0.75000   0.01267  Uiso   1.00
N1577  N     0.70880   0.95880   0.75000   0.01267  Uiso   1.00
N1578  N     0.54120   0.79120   0.75000   0.01267  Uiso   1.00
Cl1579 Cl    0.54150   0.85295   0.50000   0.01267  Uiso   1.00
Cl1580 Cl    0.95850   0.64705   0.50000   0.01267  Uiso   1.00
Cl1581 Cl    0.64705   0.95850   0.50000   0.01267  Uiso   1.00
Cl1582 Cl    0.85295   0.54150   0.50000   0.01267  Uiso   1.00
Cl1583 Cl    0.50158   0.69219   0.80623   0.01267  Uiso   1.00
Cl1584 Cl    0.99842   0.80782   0.69377   0.01267  Uiso   1.00
Cl1585 Cl    0.80782   0.99842   0.69377   0.01267  Uiso   1.00
O1586  O     0.78492   0.73250   0.70629   0.01267  Uiso   1.00
O1587  O     0.83965   0.78705   0.64700   0.01267  Uiso   1.00
O1588  O     0.95033   0.76733   0.54715   0.01267  Uiso   1.00
O1589  O     0.93381   0.70780   0.54809   0.01267  Uiso   1.00
O1590  O     0.50879   0.56122   0.70629   0.01267  Uiso   1.00
O1591  O     0.51335   0.56595   0.64700   0.01267  Uiso   1.00
O1592  O     0.50253   0.68553   0.54715   0.01267  Uiso   1.00
O1593  O     0.51810   0.74411   0.54809   0.01267  Uiso   1.00
O1594  O     0.76751   0.71509   0.79371   0.01267  Uiso   1.00
O1595  O     0.71295   0.66035   0.85300   0.01267  Uiso   1.00
O1596  O     0.73268   0.54967   0.95285   0.01267  Uiso   1.00
O1597  O     0.79220   0.56619   0.95191   0.01267  Uiso   1.00
O1598  O     0.93879   0.99121   0.79371   0.01267  Uiso   1.00
O1599  O     0.93405   0.98665   0.85300   0.01267  Uiso   1.00
O1600  O     0.81448   0.99748   0.95285   0.01267  Uiso   1.00
O1601  O     0.75589   0.98190   0.95191   0.01267  Uiso   1.00
O1602  O     0.71509   0.76751   0.79371   0.01267  Uiso   1.00
O1603  O     0.66035   0.71295   0.85300   0.01267  Uiso   1.00
O1604  O     0.54968   0.73268   0.95285   0.01267  Uiso   1.00
O1605  O     0.56619   0.79220   0.95191   0.01267  Uiso   1.00
O1606  O     0.99121   0.93879   0.79371   0.01267  Uiso   1.00
O1607  O     0.98665   0.93405   0.85300   0.01267  Uiso   1.00
O1608  O     0.99748   0.81448   0.95285   0.01267  Uiso   1.00
O1609  O     0.98190   0.75589   0.95191   0.01267  Uiso   1.00
O1610  O     0.73250   0.78492   0.70629   0.01267  Uiso   1.00
O1611  O     0.78705   0.83965   0.64700   0.01267  Uiso   1.00
O1612  O     0.76733   0.95033   0.54715   0.01267  Uiso   1.00
O1613  O     0.70780   0.93381   0.54809   0.01267  Uiso   1.00
O1614  O     0.56122   0.50880   0.70629   0.01267  Uiso   1.00
O1615  O     0.56595   0.51335   0.64700   0.01267  Uiso   1.00
O1616  O     0.68553   0.50253   0.54715   0.01267  Uiso   1.00
O1617  O     0.74411   0.51810   0.54809   0.01267  Uiso   1.00
loop_
_geom_bond_atom_site_label_1
_geom_bond_atom_site_label_2
_geom_bond_distance
_geom_bond_site_symmetry_2
_ccdc_geom_bond_type
Mn1    N157    2.009   .     S
Mn1    N161    2.014   .     S
Mn1    Cl169   2.451   .     S
Mn1    N566    2.009   1_545 S
Mn1    N569    2.014   1_545 S
Mn2    N158    2.009   .     S
Mn2    N164    2.014   .     S
Mn2    Cl170   2.451   .     S
Mn2    N363    2.009   1_455 S
Mn2    N366    2.014   1_455 S
Mn3    O173    2.138   .     S
Mn3    O181    2.138   .     S
Mn3    O189    2.138   .     S
Mn3    O197    2.138   .     S
Mn4    O177    2.138   .     S
Mn4    O201    2.138   .     S
Mn4    O790    2.138   1_445 S
Mn4    O798    2.138   1_445 S
Mn5    O174    2.059   .     S
Mn5    O198    2.059   .     S
Mn6    O178    2.059   .     S
Mn6    O202    2.059   .     S
Mn7    O182    2.059   .     S
Mn7    O190    2.059   .     S
Mn8    O186    2.059   .     S
Mn8    O194    2.059   .     S
Mn9    Cl165   2.341   .     S
Mn9    O180    2.126   .     S
Mn9    O377    2.114   1_455 S
Mn9    O997    2.126   1_554 S
Mn9    O1203   2.114   1_454 S
Mn10   Cl166   2.342   .     S
Mn10   O176    2.126   .     S
Mn10   O381    2.114   .     S
Mn10   O1199   2.114   1_554 S
Mn10   O1001   2.126   1_554 S
Mn11   Cl167   2.342   .     S
Mn11   O200    2.126   .     S
Mn11   O607    2.114   .     S
Mn11   O1393   2.114   1_554 S
Mn11   O993    2.126   1_554 S
Mn12   Cl168   2.341   .     S
Mn12   O204    2.126   .     S
Mn12   O989    2.126   1_554 S
Mn12   O1397   2.114   1_544 S
Mn12   O603    2.114   1_545 S
H13    C53     0.930   .     S
H14    C57     0.930   .     S
H15    C59     0.929   .     S
H16    C61     0.932   .     S
H17    C63     0.930   .     S
H18    C66     0.930   .     S
H19    C70     0.930   .     S
H20    C72     0.929   .     S
H21    C74     0.932   .     S
H22    C76     0.930   .     S
H23    C79     0.930   .     S
H24    C83     0.930   .     S
H25    C85     0.929   .     S
H26    C87     0.932   .     S
H27    C89     0.930   .     S
H28    C92     0.930   .     S
H29    C96     0.930   .     S
H30    C98     0.929   .     S
H31    C100    0.932   .     S
H32    C102    0.930   .     S
H33    C105    0.930   .     S
H34    C109    0.930   .     S
H35    C111    0.929   .     S
H36    C113    0.932   .     S
H37    C115    0.930   .     S
H38    C118    0.930   .     S
H39    C122    0.930   .     S
H40    C124    0.929   .     S
H41    C126    0.932   .     S
H42    C128    0.930   .     S
H43    C131    0.930   .     S
H44    C135    0.930   .     S
H45    C137    0.929   .     S
H46    C139    0.932   .     S
H47    C141    0.930   .     S
H48    C144    0.930   .     S
H49    C148    0.930   .     S
H50    C150    0.929   .     S
H51    C152    0.932   .     S
H52    C154    0.930   .     S
C53    C54     1.431   .     S
C53    C92     1.338   .     D
C54    C55     1.392   .     S
C54    N161    1.365   .     D
C55    C56     1.385   .     D
C55    C58     1.486   .     S
C56    C57     1.444   .     S
C56    N157    1.374   .     S
C57    C148    1.349   .     D
C58    C59     1.388   .     A
C58    C63     1.382   .     A
C59    C60     1.367   .     A
C60    C61     1.374   .     A
C60    C64     1.506   .     S
C61    C62     1.391   .     A
C62    C63     1.382   .     A
C62    C65     1.503   .     S
C64    O173    1.232   .     A
C64    O174    1.236   .     A
C65    O175    1.245   .     A
C65    O176    1.248   .     A
C66    C67     1.431   .     S
C66    C79     1.338   .     D
C67    C272    1.392   .     S
C67    N162    1.365   .     D
C68    C69     1.385   .     D
C68    C71     1.486   .     S
C68    C271    1.392   1_455 S
C69    C70     1.444   .     S
C69    N158    1.374   .     S
C70    C135    1.349   .     D
C71    C72     1.388   .     A
C71    C76     1.382   .     A
C72    C73     1.366   .     A
C73    C74     1.374   .     A
C73    C77     1.506   .     S
C74    C75     1.392   .     A
C75    C76     1.382   .     A
C75    C78     1.503   .     S
C77    O177    1.232   .     A
C77    O178    1.236   .     A
C78    O179    1.244   .     A
C78    O180    1.248   .     A
C79    C80     1.431   .     S
C80    C81     1.392   .     D
C80    N162    1.365   .     S
C81    C82     1.385   .     S
C81    C84     1.486   .     S
C82    C83     1.444   .     S
C82    N159    1.374   .     D
C83    C122    1.349   .     D
C84    C85     1.388   .     A
C84    C89     1.382   .     A
C85    C86     1.366   .     A
C86    C87     1.375   .     A
C86    C90     1.506   .     S
C87    C88     1.392   .     A
C88    C89     1.382   .     A
C88    C91     1.503   .     S
C90    O181    1.232   .     A
C90    O182    1.236   .     A
C91    O183    1.244   .     A
C91    O184    1.248   .     A
C92    C93     1.431   .     S
C93    N161    1.365   .     S
C93    C500    1.392   1_545 S
C94    C499    1.392   .     D
C94    C95     1.385   .     S
C94    C97     1.486   .     S
C95    C96     1.444   .     S
C95    N160    1.374   .     D
C96    C109    1.349   .     D
C97    C98     1.388   .     A
C97    C102    1.382   .     A
C98    C99     1.367   .     A
C99    C100    1.374   .     A
C99    C103    1.506   .     S
C100   C101    1.392   .     A
C101   C102    1.382   .     A
C101   C104    1.503   .     S
C103   O185    1.232   .     A
C103   O186    1.236   .     A
C104   O187    1.245   .     A
C104   O188    1.248   .     A
C105   C106    1.431   .     S
C105   C144    1.338   .     D
C106   C107    1.392   .     S
C106   N163    1.365   .     D
C107   C108    1.385   .     D
C107   C110    1.486   .     S
C108   C109    1.444   .     S
C108   N160    1.374   .     S
C110   C111    1.388   .     A
C110   C115    1.382   .     A
C111   C112    1.366   .     A
C112   C113    1.375   .     A
C112   C116    1.506   .     S
C113   C114    1.392   .     A
C114   C115    1.382   .     A
C114   C117    1.503   .     S
C116   O189    1.232   .     A
C116   O190    1.236   .     A
C117   O191    1.245   .     A
C117   O192    1.248   .     A
C118   C119    1.431   .     S
C118   C131    1.338   .     D
C119   N164    1.365   .     D
C119   C324    1.392   1_455 S
C120   C323    1.392   .     S
C120   C121    1.385   .     D
C120   C123    1.486   .     S
C121   C122    1.444   .     S
C121   N159    1.374   .     S
C123   C124    1.388   .     A
C123   C128    1.382   .     A
C124   C125    1.366   .     A
C125   C126    1.374   .     A
C125   C129    1.506   .     S
C126   C127    1.391   .     A
C127   C128    1.382   .     A
C127   C130    1.503   .     S
C129   O193    1.232   .     A
C129   O194    1.236   .     A
C130   O195    1.245   .     A
C130   O196    1.248   .     A
C131   C132    1.431   .     S
C132   C133    1.392   .     D
C132   N164    1.365   .     S
C133   C134    1.385   .     S
C133   C136    1.486   .     S
C134   C135    1.444   .     S
C134   N158    1.374   .     D
C136   C137    1.388   .     A
C136   C141    1.382   .     A
C137   C138    1.366   .     A
C138   C139    1.375   .     A
C138   C142    1.506   .     S
C139   C140    1.391   .     A
C140   C141    1.382   .     A
C140   C143    1.503   .     S
C142   O197    1.232   .     A
C142   O198    1.236   .     A
C143   O199    1.245   .     A
C143   O200    1.248   .     A
C144   C145    1.431   .     S
C145   C552    1.392   .     D
C145   N163    1.365   .     S
C146   C147    1.385   .     S
C146   C149    1.486   .     S
C146   C551    1.392   1_545 S
C147   C148    1.444   .     S
C147   N157    1.374   .     D
C149   C150    1.388   .     A
C149   C154    1.382   .     A
C150   C151    1.366   .     A
C151   C152    1.374   .     A
C151   C155    1.506   .     S
C152   C153    1.392   .     A
C153   C154    1.382   .     A
C153   C156    1.503   .     S
C155   O201    1.232   .     A
C155   O202    1.236   .     A
C156   O203    1.244   .     A
C156   O204    1.248   .     A
N159   Mn206   2.009   .     S
N160   Mn407   2.009   .     S
N162   Mn206   2.014   .     S
N163   Mn407   2.014   .     S
Cl171  Mn206   2.451   .     S
Cl172  Mn407   2.451   .     S
O175   Mn213   2.114   .     S
O179   Mn214   2.114   1_455 S
O183   Mn1223  2.114   1_545 S
O184   Mn821   2.126   .     S
O185   Mn612   2.138   .     S
O187   Mn1224  2.114   .     S
O188   Mn820   2.126   .     S
O191   Mn1019  2.114   1_455 S
O192   Mn818   2.126   .     S
O193   Mn612   2.138   .     S
O195   Mn1018  2.114   .     S
O196   Mn819   2.126   .     S
O199   Mn418   2.114   .     S
O203   Mn417   2.114   1_545 S
Mn205  N361    2.009   .     S
Mn205  N365    2.014   .     S
Mn205  N768    2.009   1_545 S
Mn205  N771    2.014   1_545 S
Mn205  Cl777   2.451   1_545 S
Mn206  N362    2.009   .     S
Mn206  N368    2.014   .     S
Mn207  O375    2.138   .     S
Mn207  O383    2.138   .     S
Mn207  O391    2.138   .     S
Mn207  O399    2.138   .     S
Mn208  O379    2.138   .     S
Mn208  O403    2.138   .     S
Mn208  O589    2.138   1_545 S
Mn208  O597    2.138   1_545 S
Mn209  O376    2.059   .     S
Mn209  O400    2.059   .     S
Mn210  O380    2.059   .     S
Mn210  O404    2.059   .     S
Mn211  O384    2.059   .     S
Mn211  O392    2.059   .     S
Mn212  O388    2.059   .     S
Mn212  O396    2.059   .     S
Mn213  Cl369   2.341   .     S
Mn213  O382    2.126   .     S
Mn213  O1200   2.126   1_554 S
Mn213  O1000   2.114   1_554 S
Mn214  Cl370   2.342   .     S
Mn214  O378    2.126   .     S
Mn214  O179    2.114   1_655 S
Mn214  O996    2.114   1_654 S
Mn214  O1204   2.126   1_554 S
Mn215  Cl371   2.342   .     S
Mn215  O402    2.126   .     S
Mn215  O808    2.114   .     S
Mn215  O1596   2.114   1_554 S
Mn215  O1196   2.126   1_554 S
Mn216  Cl372   2.341   .     S
Mn216  O406    2.126   .     S
Mn216  O1192   2.126   1_554 S
Mn216  O1600   2.114   1_544 S
Mn216  O804    2.114   1_545 S
H217   C257    0.930   .     S
H218   C261    0.930   .     S
H219   C263    0.929   .     S
H220   C265    0.932   .     S
H221   C267    0.930   .     S
H222   C270    0.930   .     S
H223   C274    0.930   .     S
H224   C276    0.929   .     S
H225   C278    0.932   .     S
H226   C280    0.930   .     S
H227   C283    0.930   .     S
H228   C287    0.930   .     S
H229   C289    0.929   .     S
H230   C291    0.932   .     S
H231   C293    0.930   .     S
H232   C296    0.930   .     S
H233   C300    0.930   .     S
H234   C302    0.929   .     S
H235   C304    0.932   .     S
H236   C306    0.930   .     S
H237   C309    0.930   .     S
H238   C313    0.930   .     S
H239   C315    0.929   .     S
H240   C317    0.932   .     S
H241   C319    0.930   .     S
H242   C322    0.930   .     S
H243   C326    0.930   .     S
H244   C328    0.929   .     S
H245   C330    0.932   .     S
H246   C332    0.930   .     S
H247   C335    0.930   .     S
H248   C339    0.930   .     S
H249   C341    0.929   .     S
H250   C343    0.932   .     S
H251   C345    0.930   .     S
H252   C348    0.930   .     S
H253   C352    0.930   .     S
H254   C354    0.929   .     S
H255   C356    0.932   .     S
H256   C358    0.930   .     S
C257   C258    1.431   .     S
C257   C296    1.338   .     D
C258   C259    1.392   .     S
C258   N365    1.365   .     D
C259   C260    1.385   .     D
C259   C262    1.486   .     S
C260   C261    1.444   .     S
C260   N361    1.374   .     S
C261   C352    1.349   .     D
C262   C263    1.388   .     A
C262   C267    1.382   .     A
C263   C264    1.367   .     A
C264   C265    1.374   .     A
C264   C268    1.506   .     S
C265   C266    1.391   .     A
C266   C267    1.382   .     A
C266   C269    1.503   .     S
C268   O375    1.232   .     A
C268   O376    1.236   .     A
C269   O377    1.245   .     A
C269   O378    1.248   .     A
C270   C271    1.431   .     S
C270   C283    1.338   .     D
C271   N366    1.365   .     D
C271   C68     1.392   1_655 S
C272   C273    1.385   .     D
C272   C275    1.486   .     S
C273   C274    1.444   .     S
C273   N362    1.374   .     S
C274   C339    1.349   .     D
C275   C276    1.388   .     A
C275   C280    1.383   .     A
C276   C277    1.366   .     A
C277   C278    1.375   .     A
C277   C281    1.506   .     S
C278   C279    1.392   .     A
C279   C280    1.382   .     A
C279   C282    1.503   .     S
C281   O379    1.232   .     A
C281   O380    1.236   .     A
C282   O381    1.244   .     A
C282   O382    1.248   .     A
C283   C284    1.431   .     S
C284   C285    1.392   .     D
C284   N366    1.365   .     S
C285   C286    1.385   .     S
C285   C288    1.486   .     S
C286   C287    1.444   .     S
C286   N363    1.374   .     D
C287   C326    1.349   .     D
C288   C289    1.388   .     A
C288   C293    1.382   .     A
C289   C290    1.366   .     A
C290   C291    1.375   .     A
C290   C294    1.506   .     S
C291   C292    1.392   .     A
C292   C293    1.382   .     A
C292   C295    1.503   .     S
C294   O383    1.232   .     A
C294   O384    1.236   .     A
C295   O385    1.244   .     A
C295   O386    1.248   .     A
C296   C297    1.431   .     S
C297   N365    1.365   .     S
C297   C702    1.392   1_545 S
C298   C701    1.392   .     D
C298   C299    1.385   .     S
C298   C301    1.486   .     S
C299   C300    1.444   .     S
C299   N364    1.374   .     D
C300   C313    1.349   .     D
C301   C302    1.388   .     A
C301   C306    1.382   .     A
C302   C303    1.367   .     A
C303   C304    1.374   .     A
C303   C307    1.506   .     S
C304   C305    1.391   .     A
C305   C306    1.382   .     A
C305   C308    1.503   .     S
C307   O387    1.232   .     A
C307   O388    1.236   .     A
C308   O389    1.245   .     A
C308   O390    1.248   .     A
C309   C310    1.431   .     S
C309   C348    1.338   .     D
C310   C311    1.392   .     S
C310   N367    1.365   .     D
C311   C312    1.385   .     D
C311   C314    1.486   .     S
C312   C313    1.444   .     S
C312   N364    1.374   .     S
C314   C315    1.388   .     A
C314   C319    1.382   .     A
C315   C316    1.366   .     A
C316   C317    1.375   .     A
C316   C320    1.506   .     S
C317   C318    1.392   .     A
C318   C319    1.382   .     A
C318   C321    1.503   .     S
C320   O391    1.232   .     A
C320   O392    1.236   .     A
C321   O393    1.245   .     A
C321   O394    1.248   .     A
C322   C323    1.431   .     S
C322   C335    1.338   .     D
C323   N368    1.365   .     D
C324   C325    1.385   .     D
C324   C327    1.486   .     S
C324   C119    1.392   1_655 S
C325   C326    1.444   .     S
C325   N363    1.374   .     S
C327   C328    1.388   .     A
C327   C332    1.382   .     A
C328   C329    1.366   .     A
C329   C330    1.374   .     A
C329   C333    1.506   .     S
C330   C331    1.391   .     A
C331   C332    1.382   .     A
C331   C334    1.503   .     S
C333   O395    1.232   .     A
C333   O396    1.236   .     A
C334   O397    1.244   .     A
C334   O398    1.248   .     A
C335   C336    1.431   .     S
C336   C337    1.392   .     D
C336   N368    1.365   .     S
C337   C338    1.385   .     S
C337   C340    1.486   .     S
C338   C339    1.444   .     S
C338   N362    1.374   .     D
C340   C341    1.388   .     A
C340   C345    1.382   .     A
C341   C342    1.366   .     A
C342   C343    1.375   .     A
C342   C346    1.506   .     S
C343   C344    1.391   .     A
C344   C345    1.382   .     A
C344   C347    1.503   .     S
C346   O399    1.232   .     A
C346   O400    1.236   .     A
C347   O401    1.245   .     A
C347   O402    1.248   .     A
C348   C349    1.431   .     S
C349   C754    1.392   .     D
C349   N367    1.365   .     S
C350   C351    1.385   .     S
C350   C353    1.486   .     S
C350   C753    1.392   1_545 S
C351   C352    1.444   .     S
C351   N361    1.374   .     D
C353   C354    1.388   .     A
C353   C358    1.382   .     A
C354   C355    1.366   .     A
C355   C356    1.374   .     A
C355   C359    1.506   .     S
C356   C357    1.392   .     A
C357   C358    1.382   .     A
C357   C360    1.503   .     S
C359   O403    1.232   .     A
C359   O404    1.236   .     A
C360   O405    1.244   .     A
C360   O406    1.248   .     A
N363   Mn2     2.009   1_655 S
N364   Mn609   2.009   .     S
N366   Mn2     2.014   1_655 S
N367   Mn609   2.014   .     S
Cl374  Mn609   2.451   .     S
O377   Mn9     2.114   1_655 S
O385   Mn1425  2.114   1_545 S
O386   Mn1021  2.126   .     S
O387   Mn410   2.138   1_655 S
O389   Mn1426  2.114   .     S
O390   Mn1020  2.126   .     S
O393   Mn819   2.114   .     S
O394   Mn1018  2.126   .     S
O395   Mn410   2.138   1_655 S
O397   Mn818   2.114   1_655 S
O398   Mn1019  2.126   .     S
O401   Mn620   2.114   .     S
O405   Mn619   2.114   1_545 S
Mn407  N563    2.009   .     S
Mn407  N567    2.014   .     S
Mn408  N564    2.009   .     S
Mn408  N570    2.014   .     S
Mn408  Cl575   2.451   .     S
Mn408  N767    2.009   1_455 S
Mn408  N770    2.014   1_455 S
Mn409  O577    2.138   .     S
Mn409  O585    2.138   .     S
Mn409  O593    2.138   .     S
Mn409  O601    2.138   .     S
Mn410  O581    2.138   .     S
Mn410  O605    2.138   .     S
Mn410  O387    2.138   1_455 S
Mn410  O395    2.138   1_455 S
Mn411  O578    2.059   .     S
Mn411  O602    2.059   .     S
Mn412  O582    2.059   .     S
Mn412  O606    2.059   .     S
Mn413  O586    2.059   .     S
Mn413  O594    2.059   .     S
Mn414  O590    2.059   .     S
Mn414  O598    2.059   .     S
Mn415  Cl571   2.341   .     S
Mn415  O584    2.126   .     S
Mn415  O780    2.114   1_455 S
Mn415  O1402   2.126   1_554 S
Mn415  O1608   2.114   1_454 S
Mn416  Cl572   2.342   .     S
Mn416  O580    2.126   .     S
Mn416  O784    2.114   .     S
Mn416  O1604   2.114   1_554 S
Mn416  O1406   2.126   1_554 S
Mn417  Cl573   2.342   .     S
Mn417  O604    2.126   .     S
Mn417  O203    2.114   1_565 S
Mn417  O988    2.114   1_564 S
Mn417  O1398   2.126   1_554 S
Mn418  Cl574   2.341   .     S
Mn418  O608    2.126   .     S
Mn418  O1394   2.126   1_554 S
Mn418  O992    2.114   1_554 S
H419   C459    0.930   .     S
H420   C463    0.930   .     S
H421   C465    0.929   .     S
H422   C467    0.932   .     S
H423   C469    0.930   .     S
H424   C472    0.930   .     S
H425   C476    0.930   .     S
H426   C478    0.929   .     S
H427   C480    0.932   .     S
H428   C482    0.930   .     S
H429   C485    0.930   .     S
H430   C489    0.930   .     S
H431   C491    0.929   .     S
H432   C493    0.932   .     S
H433   C495    0.930   .     S
H434   C498    0.930   .     S
H435   C502    0.930   .     S
H436   C504    0.929   .     S
H437   C506    0.932   .     S
H438   C508    0.930   .     S
H439   C511    0.930   .     S
H440   C515    0.930   .     S
H441   C517    0.929   .     S
H442   C519    0.932   .     S
H443   C521    0.930   .     S
H444   C524    0.930   .     S
H445   C528    0.930   .     S
H446   C530    0.929   .     S
H447   C532    0.932   .     S
H448   C534    0.930   .     S
H449   C537    0.930   .     S
H450   C541    0.930   .     S
H451   C543    0.929   .     S
H452   C545    0.932   .     S
H453   C547    0.930   .     S
H454   C550    0.930   .     S
H455   C554    0.930   .     S
H456   C556    0.929   .     S
H457   C558    0.932   .     S
H458   C560    0.930   .     S
C459   C460    1.431   .     S
C459   C498    1.338   .     D
C460   C461    1.392   .     S
C460   N567    1.365   .     D
C461   C462    1.385   .     D
C461   C464    1.486   .     S
C462   C463    1.444   .     S
C462   N563    1.374   .     S
C463   C554    1.349   .     D
C464   C465    1.388   .     A
C464   C469    1.382   .     A
C465   C466    1.367   .     A
C466   C467    1.374   .     A
C466   C470    1.506   .     S
C467   C468    1.391   .     A
C468   C469    1.382   .     A
C468   C471    1.503   .     S
C470   O577    1.232   .     A
C470   O578    1.236   .     A
C471   O579    1.245   .     A
C471   O580    1.248   .     A
C472   C473    1.431   .     S
C472   C485    1.338   .     D
C473   C676    1.392   .     S
C473   N568    1.365   .     D
C474   C475    1.385   .     D
C474   C477    1.486   .     S
C474   C675    1.392   1_455 S
C475   C476    1.444   .     S
C475   N564    1.374   .     S
C476   C541    1.349   .     D
C477   C478    1.388   .     A
C477   C482    1.382   .     A
C478   C479    1.366   .     A
C479   C480    1.374   .     A
C479   C483    1.506   .     S
C480   C481    1.392   .     A
C481   C482    1.382   .     A
C481   C484    1.503   .     S
C483   O581    1.232   .     A
C483   O582    1.236   .     A
C484   O583    1.244   .     A
C484   O584    1.248   .     A
C485   C486    1.431   .     S
C486   C487    1.392   .     D
C486   N568    1.365   .     S
C487   C488    1.385   .     S
C487   C490    1.486   .     S
C488   C489    1.444   .     S
C488   N565    1.374   .     D
C489   C528    1.349   .     D
C490   C491    1.388   .     A
C490   C495    1.382   .     A
C491   C492    1.366   .     A
C492   C493    1.375   .     A
C492   C496    1.506   .     S
C493   C494    1.392   .     A
C494   C495    1.382   .     A
C494   C497    1.503   .     S
C496   O585    1.232   .     A
C496   O586    1.236   .     A
C497   O587    1.244   .     A
C497   O588    1.248   .     A
C498   C499    1.431   .     S
C499   N567    1.365   .     S
C500   C501    1.385   .     S
C500   C503    1.486   .     S
C500   C93     1.392   1_565 S
C501   C502    1.444   .     S
C501   N566    1.374   .     D
C502   C515    1.349   .     D
C503   C504    1.388   .     A
C503   C508    1.382   .     A
C504   C505    1.367   .     A
C505   C506    1.374   .     A
C505   C509    1.506   .     S
C506   C507    1.392   .     A
C507   C508    1.382   .     A
C507   C510    1.503   .     S
C509   O589    1.232   .     A
C509   O590    1.236   .     A
C510   O591    1.245   .     A
C510   O592    1.248   .     A
C511   C512    1.431   .     S
C511   C550    1.338   .     D
C512   C513    1.392   .     S
C512   N569    1.365   .     D
C513   C514    1.385   .     D
C513   C516    1.486   .     S
C514   C515    1.444   .     S
C514   N566    1.374   .     S
C516   C517    1.388   .     A
C516   C521    1.382   .     A
C517   C518    1.366   .     A
C518   C519    1.375   .     A
C518   C522    1.506   .     S
C519   C520    1.392   .     A
C520   C521    1.382   .     A
C520   C523    1.503   .     S
C522   O593    1.232   .     A
C522   O594    1.236   .     A
C523   O595    1.245   .     A
C523   O596    1.248   .     A
C524   C525    1.431   .     S
C524   C537    1.338   .     D
C525   N570    1.365   .     D
C525   C728    1.392   1_455 S
C526   C727    1.392   .     S
C526   C527    1.385   .     D
C526   C529    1.486   .     S
C527   C528    1.444   .     S
C527   N565    1.374   .     S
C529   C530    1.388   .     A
C529   C534    1.382   .     A
C530   C531    1.366   .     A
C531   C532    1.374   .     A
C531   C535    1.506   .     S
C532   C533    1.391   .     A
C533   C534    1.382   .     A
C533   C536    1.503   .     S
C535   O597    1.232   .     A
C535   O598    1.236   .     A
C536   O599    1.245   .     A
C536   O600    1.248   .     A
C537   C538    1.431   .     S
C538   C539    1.392   .     D
C538   N570    1.365   .     S
C539   C540    1.385   .     S
C539   C542    1.486   .     S
C540   C541    1.444   .     S
C540   N564    1.374   .     D
C542   C543    1.388   .     A
C542   C547    1.382   .     A
C543   C544    1.367   .     A
C544   C545    1.374   .     A
C544   C548    1.506   .     S
C545   C546    1.391   .     A
C546   C547    1.382   .     A
C546   C549    1.503   .     S
C548   O601    1.232   .     A
C548   O602    1.236   .     A
C549   O603    1.245   .     A
C549   O604    1.248   .     A
C550   C551    1.431   .     S
C551   N569    1.365   .     S
C551   C146    1.392   1_565 S
C552   C553    1.385   .     S
C552   C555    1.486   .     S
C553   C554    1.444   .     S
C553   N563    1.374   .     D
C555   C556    1.388   .     A
C555   C560    1.382   .     A
C556   C557    1.366   .     A
C557   C558    1.374   .     A
C557   C561    1.506   .     S
C558   C559    1.392   .     A
C559   C560    1.382   .     A
C559   C562    1.503   .     S
C561   O605    1.232   .     A
C561   O606    1.236   .     A
C562   O607    1.244   .     A
C562   O608    1.248   .     A
N565   Mn610   2.009   .     S
N566   Mn1     2.009   1_565 S
N568   Mn610   2.014   .     S
N569   Mn1     2.014   1_565 S
Cl576  Mn610   2.451   .     S
O579   Mn617   2.114   .     S
O583   Mn618   2.114   1_455 D
O587   Mn820   2.114   .     S
O588   Mn1224  2.126   .     S
O589   Mn208   2.138   1_565 S
O591   Mn821   2.114   1_565 D
O592   Mn1223  2.126   .     S
O595   Mn1424  2.114   1_455 D
O596   Mn1221  2.126   .     S
O597   Mn208   2.138   1_565 S
O599   Mn1423  2.114   .     S
O600   Mn1222  2.126   .     S
O603   Mn12    2.114   1_565 S
Mn609  N765    2.009   .     S
Mn609  N769    2.014   .     S
Mn610  N766    2.009   .     S
Mn610  N772    2.014   .     S
Mn611  O778    2.138   .     S
Mn611  O786    2.138   .     S
Mn611  O794    2.138   .     S
Mn611  O802    2.138   .     S
Mn612  O782    2.138   .     S
Mn612  O806    2.138   .     S
Mn613  O779    2.059   .     S
Mn613  O803    2.059   .     S
Mn614  O783    2.059   .     S
Mn614  O807    2.059   .     S
Mn615  O787    2.059   .     S
Mn615  O795    2.059   .     S
Mn616  O791    2.059   .     S
Mn616  O799    2.059   .     S
Mn617  Cl773   2.341   .     S
Mn617  O785    2.126   .     S
Mn617  O1605   2.126   1_554 S
Mn617  O1405   2.114   1_554 D
Mn618  Cl774   2.342   .     S
Mn618  O781    2.126   .     S
Mn618  O583    2.114   1_655 D
Mn618  O1401   2.114   1_654 A
Mn618  O1609   2.126   1_554 A
Mn619  Cl775   2.342   .     S
Mn619  O805    2.126   .     S
Mn619  O405    2.114   1_565 S
Mn619  O1191   2.114   1_564 A
Mn619  O1601   2.126   1_554 S
Mn620  Cl776   2.341   .     S
Mn620  O809    2.126   .     S
Mn620  O1597   2.126   1_554 A
Mn620  O1195   2.114   1_554 S
H621   C661    0.930   .     S
H622   C665    0.930   .     S
H623   C667    0.929   .     S
H624   C669    0.932   .     S
H625   C671    0.930   .     S
H626   C674    0.930   .     S
H627   C678    0.930   .     S
H628   C680    0.929   .     S
H629   C682    0.932   .     S
H630   C684    0.930   .     S
H631   C687    0.930   .     S
H632   C691    0.930   .     S
H633   C693    0.929   .     S
H634   C695    0.932   .     S
H635   C697    0.930   .     S
H636   C700    0.930   .     S
H637   C704    0.930   .     S
H638   C706    0.929   .     S
H639   C708    0.932   .     S
H640   C710    0.930   .     S
H641   C713    0.930   .     S
H642   C717    0.930   .     S
H643   C719    0.929   .     S
H644   C721    0.932   .     S
H645   C723    0.930   .     S
H646   C726    0.930   .     S
H647   C730    0.930   .     S
H648   C732    0.929   .     S
H649   C734    0.932   .     S
H650   C736    0.930   .     S
H651   C739    0.930   .     S
H652   C743    0.930   .     S
H653   C745    0.929   .     S
H654   C747    0.932   .     S
H655   C749    0.930   .     S
H656   C752    0.930   .     S
H657   C756    0.930   .     S
H658   C758    0.929   .     S
H659   C760    0.932   .     S
H660   C762    0.930   .     S
C661   C662    1.431   .     S
C661   C700    1.338   .     D
C662   C663    1.392   .     S
C662   N769    1.365   .     D
C663   C664    1.385   .     D
C663   C666    1.486   .     S
C664   C665    1.444   .     S
C664   N765    1.374   .     S
C665   C756    1.349   .     D
C666   C667    1.388   .     A
C666   C671    1.382   .     A
C667   C668    1.367   .     A
C668   C669    1.374   .     A
C668   C672    1.506   .     S
C669   C670    1.391   .     A
C670   C671    1.382   .     A
C670   C673    1.503   .     S
C672   O778    1.232   .     A
C672   O779    1.236   .     A
C673   O780    1.245   .     A
C673   O781    1.248   .     A
C674   C675    1.431   .     S
C674   C687    1.338   .     D
C675   N770    1.365   .     D
C675   C474    1.392   1_655 S
C676   C677    1.385   .     D
C676   C679    1.486   .     S
C677   C678    1.444   .     S
C677   N766    1.374   .     S
C678   C743    1.349   .     D
C679   C680    1.388   .     A
C679   C684    1.382   .     A
C680   C681    1.366   .     A
C681   C682    1.375   .     A
C681   C685    1.506   .     S
C682   C683    1.392   .     A
C683   C684    1.382   .     A
C683   C686    1.503   .     S
C685   O782    1.232   .     A
C685   O783    1.236   .     A
C686   O784    1.244   .     A
C686   O785    1.248   .     A
C687   C688    1.431   .     S
C688   C689    1.392   .     D
C688   N770    1.365   .     S
C689   C690    1.385   .     S
C689   C692    1.486   .     S
C690   C691    1.444   .     S
C690   N767    1.374   .     D
C691   C730    1.349   .     D
C692   C693    1.388   .     A
C692   C697    1.382   .     A
C693   C694    1.366   .     A
C694   C695    1.375   .     A
C694   C698    1.506   .     S
C695   C696    1.392   .     A
C696   C697    1.382   .     A
C696   C699    1.503   .     S
C698   O786    1.232   .     A
C698   O787    1.236   .     A
C699   O788    1.244   .     A
C699   O789    1.248   .     A
C700   C701    1.431   .     S
C701   N769    1.365   .     S
C702   C703    1.385   .     S
C702   C705    1.486   .     S
C702   C297    1.392   1_565 S
C703   C704    1.444   .     S
C703   N768    1.374   .     D
C704   C717    1.349   .     D
C705   C706    1.388   .     A
C705   C710    1.382   .     A
C706   C707    1.367   .     A
C707   C708    1.374   .     A
C707   C711    1.506   .     S
C708   C709    1.391   .     A
C709   C710    1.382   .     A
C709   C712    1.503   .     S
C711   O790    1.232   .     A
C711   O791    1.236   .     A
C712   O792    1.245   .     A
C712   O793    1.248   .     A
C713   C714    1.431   .     S
C713   C752    1.338   .     D
C714   C715    1.392   .     S
C714   N771    1.365   .     D
C715   C716    1.385   .     D
C715   C718    1.486   .     S
C716   C717    1.444   .     S
C716   N768    1.374   .     S
C718   C719    1.388   .     A
C718   C723    1.382   .     A
C719   C720    1.366   .     A
C720   C721    1.375   .     A
C720   C724    1.506   .     S
C721   C722    1.392   .     A
C722   C723    1.382   .     A
C722   C725    1.503   .     S
C724   O794    1.232   .     A
C724   O795    1.236   .     A
C725   O796    1.244   .     A
C725   O797    1.248   .     A
C726   C727    1.431   .     S
C726   C739    1.338   .     D
C727   N772    1.365   .     D
C728   C729    1.385   .     D
C728   C731    1.486   .     S
C728   C525    1.392   1_655 S
C729   C730    1.444   .     S
C729   N767    1.374   .     S
C731   C732    1.388   .     A
C731   C736    1.382   .     A
C732   C733    1.366   .     A
C733   C734    1.374   .     A
C733   C737    1.506   .     S
C734   C735    1.391   .     A
C735   C736    1.382   .     A
C735   C738    1.503   .     S
C737   O798    1.232   .     A
C737   O799    1.236   .     A
C738   O800    1.245   .     A
C738   O801    1.248   .     A
C739   C740    1.431   .     S
C740   C741    1.392   .     D
C740   N772    1.365   .     S
C741   C742    1.385   .     S
C741   C744    1.486   .     S
C742   C743    1.444   .     S
C742   N766    1.374   .     D
C744   C745    1.388   .     A
C744   C749    1.382   .     A
C745   C746    1.367   .     A
C746   C747    1.374   .     A
C746   C750    1.506   .     S
C747   C748    1.391   .     A
C748   C749    1.382   .     A
C748   C751    1.503   .     S
C750   O802    1.232   .     A
C750   O803    1.236   .     A
C751   O804    1.245   .     A
C751   O805    1.248   .     A
C752   C753    1.431   .     S
C753   N771    1.365   .     S
C753   C350    1.392   1_565 S
C754   C755    1.385   .     S
C754   C757    1.486   .     S
C755   C756    1.444   .     S
C755   N765    1.374   .     D
C757   C758    1.388   .     A
C757   C762    1.382   .     A
C758   C759    1.366   .     A
C759   C760    1.374   .     A
C759   C763    1.506   .     S
C760   C761    1.392   .     A
C761   C762    1.382   .     A
C761   C764    1.503   .     S
C763   O806    1.232   .     A
C763   O807    1.236   .     A
C764   O808    1.244   .     A
C764   O809    1.248   .     A
N767   Mn408   2.009   1_655 S
N768   Mn205   2.009   1_565 S
N770   Mn408   2.014   1_655 S
N771   Mn205   2.014   1_565 S
Cl777  Mn205   2.451   1_565 S
O780   Mn415   2.114   1_655 S
O788   Mn1020  2.114   .     S
O789   Mn1426  2.126   .     S
O790   Mn4     2.138   1_665 S
O792   Mn1021  2.114   1_565 S
O793   Mn1425  2.126   .     S
O796   Mn1222  2.114   .     S
O797   Mn1423  2.126   .     S
O798   Mn4     2.138   1_665 S
O800   Mn1221  2.114   1_655 A
O801   Mn1424  2.126   .     S
O804   Mn216   2.114   1_565 S
Mn810  N966    2.009   .     S
Mn810  N970    2.014   .     S
Mn810  N1372   2.009   1_545 A
Mn810  N1375   2.014   1_545 A
Mn810  Cl1382  2.451   1_545 S
Mn811  N967    2.009   .     S
Mn811  N973    2.014   .     S
Mn811  N1168   2.009   1_455 A
Mn811  N1171   2.014   1_455 A
Mn811  Cl1179  2.451   1_455 S
Mn812  O978    2.138   .     S
Mn812  O986    2.138   .     S
Mn812  O994    2.138   .     S
Mn812  O1002   2.138   .     S
Mn813  O982    2.138   .     S
Mn813  O1006   2.138   .     S
Mn813  O1598   2.138   1_445 A
Mn813  O1606   2.138   1_445 A
Mn814  O979    2.059   .     S
Mn814  O1003   2.059   .     S
Mn815  O983    2.059   .     S
Mn815  O1007   2.059   .     S
Mn816  O987    2.059   .     S
Mn816  O995    2.059   .     S
Mn817  O991    2.059   .     S
Mn817  O999    2.059   .     S
Mn818  Cl974   2.341   .     S
Mn818  O985    2.126   .     S
Mn818  O397    2.114   1_455 S
Mn818  O1183   2.114   1_455 A
Mn819  Cl975   2.342   .     S
Mn819  O981    2.126   .     S
Mn819  O1187   2.114   .     S
Mn820  Cl976   2.342   .     S
Mn820  O1005   2.126   .     S
Mn820  O1413   2.114   .     S
Mn821  Cl977   2.341   .     S
Mn821  O1009   2.126   .     S
Mn821  O591    2.114   1_545 D
Mn821  O1409   2.114   1_545 D
H822   C862    0.930   .     S
H823   C866    0.930   .     S
H824   C868    0.929   .     S
H825   C870    0.932   .     S
H826   C872    0.930   .     S
H827   C875    0.930   .     S
H828   C879    0.930   .     S
H829   C881    0.929   .     S
H830   C883    0.932   .     S
H831   C885    0.930   .     S
H832   C888    0.930   .     S
H833   C892    0.930   .     S
H834   C894    0.929   .     S
H835   C896    0.932   .     S
H836   C898    0.930   .     S
H837   C901    0.930   .     S
H838   C905    0.930   .     S
H839   C907    0.929   .     S
H840   C909    0.932   .     S
H841   C911    0.930   .     S
H842   C914    0.930   .     S
H843   C918    0.930   .     S
H844   C920    0.929   .     S
H845   C922    0.932   .     S
H846   C924    0.930   .     S
H847   C927    0.930   .     S
H848   C931    0.930   .     S
H849   C933    0.929   .     S
H850   C935    0.932   .     S
H851   C937    0.930   .     S
H852   C940    0.930   .     S
H853   C944    0.930   .     S
H854   C946    0.929   .     S
H855   C948    0.932   .     S
H856   C950    0.930   .     S
H857   C953    0.930   .     S
H858   C957    0.930   .     S
H859   C959    0.929   .     S
H860   C961    0.932   .     S
H861   C963    0.930   .     S
C862   C863    1.431   .     S
C862   C901    1.338   .     D
C863   C864    1.392   .     S
C863   N970    1.365   .     D
C864   C865    1.385   .     D
C864   C867    1.486   .     S
C865   C866    1.444   .     S
C865   N966    1.374   .     S
C866   C957    1.349   .     D
C867   C868    1.388   .     A
C867   C872    1.382   .     A
C868   C869    1.367   .     A
C869   C870    1.374   .     A
C869   C873    1.506   .     S
C870   C871    1.391   .     A
C871   C872    1.382   .     A
C871   C874    1.503   .     S
C873   O978    1.232   .     A
C873   O979    1.236   .     A
C874   O980    1.245   .     A
C874   O981    1.248   .     A
C875   C876    1.431   .     S
C875   C888    1.338   .     D
C876   C1077   1.392   .     S
C876   N971    1.365   .     D
C877   C878    1.385   .     D
C877   C880    1.486   .     S
C877   C1076   1.392   1_455 S
C878   C879    1.444   .     S
C878   N967    1.374   .     S
C879   C944    1.349   .     D
C880   C881    1.388   .     A
C880   C885    1.382   .     A
C881   C882    1.366   .     A
C882   C883    1.374   .     A
C882   C886    1.506   .     S
C883   C884    1.392   .     A
C884   C885    1.382   .     A
C884   C887    1.503   .     S
C886   O982    1.232   .     A
C886   O983    1.236   .     A
C887   O984    1.244   .     A
C887   O985    1.248   .     A
C888   C889    1.431   .     S
C889   C890    1.392   .     D
C889   N971    1.365   .     S
C890   C891    1.385   .     S
C890   C893    1.486   .     S
C891   C892    1.444   .     S
C891   N968    1.374   .     D
C892   C931    1.349   .     D
C893   C894    1.388   .     A
C893   C898    1.382   .     A
C894   C895    1.366   .     A
C895   C896    1.375   .     A
C895   C899    1.506   .     S
C896   C897    1.392   .     A
C897   C898    1.382   .     A
C897   C900    1.503   .     S
C899   O986    1.232   .     A
C899   O987    1.236   .     A
C900   O988    1.244   .     A
C900   O989    1.248   .     A
C901   C902    1.431   .     S
C902   N970    1.365   .     S
C902   C1306   1.392   1_545 S
C903   C1305   1.392   .     D
C903   C904    1.385   .     S
C903   C906    1.486   .     S
C904   C905    1.444   .     S
C904   N969    1.374   .     D
C905   C918    1.349   .     D
C906   C907    1.388   .     A
C906   C911    1.382   .     A
C907   C908    1.367   .     A
C908   C909    1.374   .     A
C908   C912    1.506   .     S
C909   C910    1.392   .     A
C910   C911    1.382   .     A
C910   C913    1.503   .     S
C912   O990    1.232   .     A
C912   O991    1.236   .     A
C913   O992    1.245   .     A
C913   O993    1.248   .     A
C914   C915    1.431   .     S
C914   C953    1.338   .     D
C915   C916    1.392   .     S
C915   N972    1.365   .     D
C916   C917    1.385   .     D
C916   C919    1.486   .     S
C917   C918    1.444   .     S
C917   N969    1.374   .     S
C919   C920    1.388   .     A
C919   C924    1.382   .     A
C920   C921    1.366   .     A
C921   C922    1.375   .     A
C921   C925    1.506   .     S
C922   C923    1.392   .     A
C923   C924    1.382   .     A
C923   C926    1.503   .     S
C925   O994    1.232   .     A
C925   O995    1.236   .     A
C926   O996    1.245   .     A
C926   O997    1.248   .     A
C927   C928    1.431   .     S
C927   C940    1.338   .     D
C928   N973    1.365   .     D
C928   C1129   1.392   1_455 S
C929   C1128   1.392   .     S
C929   C930    1.385   .     D
C929   C932    1.486   .     S
C930   C931    1.444   .     S
C930   N968    1.374   .     S
C932   C933    1.388   .     A
C932   C937    1.382   .     A
C933   C934    1.366   .     A
C934   C935    1.374   .     A
C934   C938    1.506   .     S
C935   C936    1.391   .     A
C936   C937    1.382   .     A
C936   C939    1.503   .     S
C938   O998    1.232   .     A
C938   O999    1.236   .     A
C939   O1000   1.245   .     A
C939   O1001   1.248   .     A
C940   C941    1.431   .     S
C941   C942    1.392   .     D
C941   N973    1.365   .     S
C942   C943    1.385   .     S
C942   C945    1.486   .     S
C943   C944    1.444   .     S
C943   N967    1.374   .     D
C945   C946    1.388   .     A
C945   C950    1.382   .     A
C946   C947    1.366   .     A
C947   C948    1.375   .     A
C947   C951    1.506   .     S
C948   C949    1.391   .     A
C949   C950    1.382   .     A
C949   C952    1.503   .     S
C951   O1002   1.232   .     A
C951   O1003   1.236   .     A
C952   O1004   1.245   .     A
C952   O1005   1.248   .     A
C953   C954    1.431   .     S
C954   C1358   1.392   .     D
C954   N972    1.365   .     S
C955   C956    1.385   .     S
C955   C958    1.486   .     S
C955   C1357   1.392   1_545 S
C956   C957    1.444   .     S
C956   N966    1.374   .     D
C958   C959    1.388   .     A
C958   C963    1.382   .     A
C959   C960    1.366   .     A
C960   C961    1.374   .     A
C960   C964    1.506   .     S
C961   C962    1.392   .     A
C962   C963    1.382   .     A
C962   C965    1.503   .     S
C964   O1006   1.232   .     A
C964   O1007   1.236   .     A
C965   O1008   1.244   .     A
C965   O1009   1.248   .     A
N968   Mn1011  2.009   .     S
N969   Mn1213  2.009   .     S
N971   Mn1011  2.014   .     S
N972   Mn1213  2.014   .     S
O980   Mn1018  2.114   .     S
O984   Mn1019  2.114   1_455 D
O988   Mn417   2.114   1_546 S
O989   Mn12    2.126   1_556 S
O990   Mn1418  2.138   .     S
O992   Mn418   2.114   1_556 S
O993   Mn11    2.126   1_556 S
O996   Mn214   2.114   1_456 S
O997   Mn9     2.126   1_556 S
O998   Mn1418  2.138   .     S
O1000  Mn213   2.114   1_556 S
O1001  Mn10    2.126   1_556 S
O1004  Mn1224  2.114   .     S
O1008  Mn1223  2.114   1_545 S
Mn1010 N1166   2.009   .     S
Mn1010 N1170   2.014   .     S
Mn1010 N1574   2.009   1_545 A
Mn1010 N1577   2.014   1_545 A
Mn1010 Cl1585  2.451   1_545 A
Mn1011 N1167   2.009   .     S
Mn1011 N1173   2.014   .     S
Mn1011 Cl1178  2.451   .     S
Mn1012 O1181   2.138   .     S
Mn1012 O1189   2.138   .     S
Mn1012 O1197   2.138   .     S
Mn1012 O1205   2.138   .     S
Mn1013 O1185   2.138   .     S
Mn1013 O1209   2.138   .     S
Mn1013 O1395   2.138   1_545 A
Mn1013 O1403   2.138   1_545 S
Mn1014 O1182   2.059   .     S
Mn1014 O1206   2.059   .     S
Mn1015 O1186   2.059   .     S
Mn1015 O1210   2.059   .     S
Mn1016 O1190   2.059   .     S
Mn1016 O1198   2.059   .     S
Mn1017 O1194   2.059   .     S
Mn1017 O1202   2.059   .     S
Mn1018 Cl1174  2.341   .     S
Mn1018 O1188   2.126   .     S
Mn1019 Cl1175  2.342   .     S
Mn1019 O1184   2.126   .     S
Mn1019 O191    2.114   1_655 S
Mn1019 O984    2.114   1_655 D
Mn1020 Cl1176  2.342   .     S
Mn1020 O1208   2.126   .     S
Mn1020 O1616   2.114   .     S
Mn1021 Cl1177  2.341   .     S
Mn1021 O1212   2.126   .     S
Mn1021 O792    2.114   1_545 S
Mn1021 O1612   2.114   1_545 S
H1022  C1062   0.930   .     S
H1023  C1066   0.930   .     S
H1024  C1068   0.929   .     S
H1025  C1070   0.932   .     S
H1026  C1072   0.930   .     S
H1027  C1075   0.930   .     S
H1028  C1079   0.930   .     S
H1029  C1081   0.929   .     S
H1030  C1083   0.932   .     S
H1031  C1085   0.930   .     S
H1032  C1088   0.930   .     S
H1033  C1092   0.930   .     S
H1034  C1094   0.929   .     S
H1035  C1096   0.932   .     S
H1036  C1098   0.930   .     S
H1037  C1101   0.930   .     S
H1038  C1105   0.930   .     S
H1039  C1107   0.929   .     S
H1040  C1109   0.932   .     S
H1041  C1111   0.930   .     S
H1042  C1114   0.930   .     S
H1043  C1118   0.930   .     S
H1044  C1120   0.929   .     S
H1045  C1122   0.932   .     S
H1046  C1124   0.930   .     S
H1047  C1127   0.930   .     S
H1048  C1131   0.930   .     S
H1049  C1133   0.929   .     S
H1050  C1135   0.932   .     S
H1051  C1137   0.930   .     S
H1052  C1140   0.930   .     S
H1053  C1144   0.930   .     S
H1054  C1146   0.929   .     S
H1055  C1148   0.932   .     S
H1056  C1150   0.930   .     S
H1057  C1153   0.930   .     S
H1058  C1157   0.930   .     S
H1059  C1159   0.929   .     S
H1060  C1161   0.932   .     S
H1061  C1163   0.930   .     S
C1062  C1063   1.431   .     S
C1062  C1101   1.338   .     D
C1063  C1064   1.392   .     S
C1063  N1170   1.365   .     D
C1064  C1065   1.385   .     D
C1064  C1067   1.486   .     S
C1065  C1066   1.444   .     S
C1065  N1166   1.374   .     S
C1066  C1157   1.349   .     D
C1067  C1068   1.388   .     A
C1067  C1072   1.382   .     A
C1068  C1069   1.367   .     A
C1069  C1070   1.374   .     A
C1069  C1073   1.506   .     S
C1070  C1071   1.391   .     A
C1071  C1072   1.382   .     A
C1071  C1074   1.503   .     S
C1073  O1181   1.232   .     A
C1073  O1182   1.236   .     A
C1074  O1183   1.245   .     A
C1074  O1184   1.248   .     A
C1075  C1076   1.431   .     S
C1075  C1088   1.338   .     D
C1076  N1171   1.365   .     D
C1076  C877    1.392   1_655 S
C1077  C1078   1.385   .     D
C1077  C1080   1.486   .     S
C1078  C1079   1.444   .     S
C1078  N1167   1.374   .     S
C1079  C1144   1.349   .     D
C1080  C1081   1.388   .     A
C1080  C1085   1.383   .     A
C1081  C1082   1.366   .     A
C1082  C1083   1.375   .     A
C1082  C1086   1.506   .     S
C1083  C1084   1.392   .     A
C1084  C1085   1.382   .     A
C1084  C1087   1.503   .     S
C1086  O1185   1.232   .     A
C1086  O1186   1.236   .     A
C1087  O1187   1.244   .     A
C1087  O1188   1.248   .     A
C1088  C1089   1.431   .     S
C1089  C1090   1.392   .     D
C1089  N1171   1.365   .     S
C1090  C1091   1.385   .     S
C1090  C1093   1.486   .     S
C1091  C1092   1.444   .     S
C1091  N1168   1.374   .     D
C1092  C1131   1.349   .     D
C1093  C1094   1.388   .     A
C1093  C1098   1.382   .     A
C1094  C1095   1.366   .     A
C1095  C1096   1.375   .     A
C1095  C1099   1.506   .     S
C1096  C1097   1.392   .     A
C1097  C1098   1.382   .     A
C1097  C1100   1.503   .     S
C1099  O1189   1.232   .     A
C1099  O1190   1.236   .     A
C1100  O1191   1.244   .     A
C1100  O1192   1.248   .     A
C1101  C1102   1.431   .     S
C1102  N1170   1.365   .     S
C1102  C1508   1.392   1_545 D
C1103  C1507   1.392   .     D
C1103  C1104   1.385   .     S
C1103  C1106   1.486   .     S
C1104  C1105   1.444   .     S
C1104  N1169   1.374   .     D
C1105  C1118   1.349   .     D
C1106  C1107   1.388   .     A
C1106  C1111   1.382   .     A
C1107  C1108   1.367   .     A
C1108  C1109   1.374   .     A
C1108  C1112   1.506   .     S
C1109  C1110   1.391   .     A
C1110  C1111   1.382   .     A
C1110  C1113   1.503   .     S
C1112  O1193   1.232   .     A
C1112  O1194   1.236   .     A
C1113  O1195   1.245   .     A
C1113  O1196   1.248   .     A
C1114  C1115   1.431   .     S
C1114  C1153   1.338   .     D
C1115  C1116   1.392   .     S
C1115  N1172   1.365   .     D
C1116  C1117   1.385   .     D
C1116  C1119   1.486   .     S
C1117  C1118   1.444   .     S
C1117  N1169   1.374   .     S
C1119  C1120   1.388   .     A
C1119  C1124   1.382   .     A
C1120  C1121   1.366   .     A
C1121  C1122   1.375   .     A
C1121  C1125   1.506   .     S
C1122  C1123   1.392   .     A
C1123  C1124   1.382   .     A
C1123  C1126   1.503   .     S
C1125  O1197   1.232   .     A
C1125  O1198   1.236   .     A
C1126  O1199   1.245   .     A
C1126  O1200   1.248   .     A
C1127  C1128   1.431   .     S
C1127  C1140   1.338   .     D
C1128  N1173   1.365   .     D
C1129  C1130   1.385   .     D
C1129  C1132   1.486   .     S
C1129  C928    1.392   1_655 S
C1130  C1131   1.444   .     S
C1130  N1168   1.374   .     S
C1132  C1133   1.388   .     A
C1132  C1137   1.382   .     A
C1133  C1134   1.366   .     A
C1134  C1135   1.374   .     A
C1134  C1138   1.506   .     S
C1135  C1136   1.391   .     A
C1136  C1137   1.382   .     A
C1136  C1139   1.503   .     S
C1138  O1201   1.232   .     A
C1138  O1202   1.236   .     A
C1139  O1203   1.244   .     A
C1139  O1204   1.248   .     A
C1140  C1141   1.431   .     S
C1141  C1142   1.392   .     D
C1141  N1173   1.365   .     S
C1142  C1143   1.385   .     S
C1142  C1145   1.486   .     S
C1143  C1144   1.444   .     S
C1143  N1167   1.374   .     D
C1145  C1146   1.388   .     A
C1145  C1150   1.382   .     A
C1146  C1147   1.366   .     A
C1147  C1148   1.375   .     A
C1147  C1151   1.506   .     S
C1148  C1149   1.391   .     A
C1149  C1150   1.382   .     A
C1149  C1152   1.503   .     S
C1151  O1205   1.232   .     A
C1151  O1206   1.236   .     A
C1152  O1207   1.245   .     A
C1152  O1208   1.248   .     A
C1153  C1154   1.431   .     S
C1154  C1560   1.392   .     D
C1154  N1172   1.365   .     S
C1155  C1156   1.385   .     S
C1155  C1158   1.486   .     S
C1155  C1559   1.392   1_545 A
C1156  C1157   1.444   .     S
C1156  N1166   1.374   .     D
C1158  C1159   1.388   .     A
C1158  C1163   1.382   .     A
C1159  C1160   1.366   .     A
C1160  C1161   1.374   .     A
C1160  C1164   1.506   .     S
C1161  C1162   1.392   .     A
C1162  C1163   1.382   .     A
C1162  C1165   1.503   .     S
C1164  O1209   1.232   .     A
C1164  O1210   1.236   .     A
C1165  O1211   1.244   .     A
C1165  O1212   1.248   .     A
N1168  Mn811   2.009   1_655 A
N1169  Mn1415  2.009   .     S
N1171  Mn811   2.014   1_655 A
N1172  Mn1415  2.014   .     S
Cl1179 Mn811   2.451   1_655 S
Cl1180 Mn1415  2.451   .     S
O1183  Mn818   2.114   1_655 A
O1191  Mn619   2.114   1_546 A
O1192  Mn216   2.126   1_556 S
O1193  Mn1216  2.138   1_655 S
O1195  Mn620   2.114   1_556 S
O1196  Mn215   2.126   1_556 S
O1199  Mn10    2.114   1_556 S
O1200  Mn213   2.126   1_556 S
O1201  Mn1216  2.138   1_655 S
O1203  Mn9     2.114   1_656 S
O1204  Mn214   2.126   1_556 S
O1207  Mn1426  2.114   .     S
O1211  Mn1425  2.114   1_545 D
Mn1213 N1369   2.009   .     S
Mn1213 N1373   2.014   .     S
Mn1213 Cl1381  2.451   .     S
Mn1214 N1370   2.009   .     S
Mn1214 N1376   2.014   .     S
Mn1214 N1573   2.009   1_455 D
Mn1214 N1576   2.014   1_455 S
Mn1214 Cl1584  2.451   1_455 S
Mn1215 O1383   2.138   .     S
Mn1215 O1391   2.138   .     S
Mn1215 O1399   2.138   .     S
Mn1215 O1407   2.138   .     S
Mn1216 O1387   2.138   .     S
Mn1216 O1411   2.138   .     S
Mn1216 O1193   2.138   1_455 S
Mn1216 O1201   2.138   1_455 S
Mn1217 O1384   2.059   .     S
Mn1217 O1408   2.059   .     S
Mn1218 O1388   2.059   .     S
Mn1218 O1412   2.059   .     S
Mn1219 O1392   2.059   .     S
Mn1219 O1400   2.059   .     S
Mn1220 O1396   2.059   .     S
Mn1220 O1404   2.059   .     S
Mn1221 Cl1377  2.341   .     S
Mn1221 O1390   2.126   .     S
Mn1221 O800    2.114   1_455 A
Mn1221 O1588   2.114   1_455 A
Mn1222 Cl1378  2.342   .     S
Mn1222 O1386   2.126   .     S
Mn1222 O1592   2.114   .     S
Mn1223 Cl1379  2.342   .     S
Mn1223 O1410   2.126   .     S
Mn1223 O183    2.114   1_565 S
Mn1223 O1008   2.114   1_565 S
Mn1224 Cl1380  2.341   .     S
Mn1224 O1414   2.126   .     S
H1225  C1265   0.930   .     S
H1226  C1269   0.930   .     S
H1227  C1271   0.929   .     S
H1228  C1273   0.932   .     S
H1229  C1275   0.930   .     S
H1230  C1278   0.930   .     S
H1231  C1282   0.930   .     S
H1232  C1284   0.929   .     S
H1233  C1286   0.932   .     S
H1234  C1288   0.930   .     S
H1235  C1291   0.930   .     S
H1236  C1295   0.930   .     S
H1237  C1297   0.929   .     S
H1238  C1299   0.932   .     S
H1239  C1301   0.930   .     S
H1240  C1304   0.930   .     S
H1241  C1308   0.930   .     S
H1242  C1310   0.929   .     S
H1243  C1312   0.932   .     S
H1244  C1314   0.930   .     S
H1245  C1317   0.930   .     S
H1246  C1321   0.930   .     S
H1247  C1323   0.929   .     S
H1248  C1325   0.932   .     S
H1249  C1327   0.930   .     S
H1250  C1330   0.930   .     S
H1251  C1334   0.930   .     S
H1252  C1336   0.929   .     S
H1253  C1338   0.932   .     S
H1254  C1340   0.930   .     S
H1255  C1343   0.930   .     S
H1256  C1347   0.930   .     S
H1257  C1349   0.929   .     S
H1258  C1351   0.932   .     S
H1259  C1353   0.930   .     S
H1260  C1356   0.930   .     S
H1261  C1360   0.930   .     S
H1262  C1362   0.929   .     S
H1263  C1364   0.932   .     S
H1264  C1366   0.930   .     S
C1265  C1266   1.431   .     S
C1265  C1304   1.338   .     D
C1266  C1267   1.392   .     S
C1266  N1373   1.365   .     D
C1267  C1268   1.385   .     D
C1267  C1270   1.486   .     S
C1268  C1269   1.444   .     S
C1268  N1369   1.374   .     S
C1269  C1360   1.349   .     D
C1270  C1271   1.388   .     A
C1270  C1275   1.382   .     A
C1271  C1272   1.367   .     A
C1272  C1273   1.374   .     A
C1272  C1276   1.506   .     S
C1273  C1274   1.391   .     A
C1274  C1275   1.382   .     A
C1274  C1277   1.503   .     S
C1276  O1383   1.232   .     A
C1276  O1384   1.236   .     A
C1277  O1385   1.245   .     A
C1277  O1386   1.248   .     A
C1278  C1279   1.431   .     S
C1278  C1291   1.338   .     D
C1279  C1482   1.392   .     S
C1279  N1374   1.365   .     D
C1280  C1281   1.385   .     D
C1280  C1283   1.486   .     S
C1280  C1481   1.392   1_455 A
C1281  C1282   1.444   .     S
C1281  N1370   1.374   .     S
C1282  C1347   1.349   .     D
C1283  C1284   1.388   .     A
C1283  C1288   1.382   .     A
C1284  C1285   1.366   .     A
C1285  C1286   1.374   .     A
C1285  C1289   1.506   .     S
C1286  C1287   1.392   .     A
C1287  C1288   1.382   .     A
C1287  C1290   1.503   .     S
C1289  O1387   1.232   .     A
C1289  O1388   1.236   .     A
C1290  O1389   1.244   .     A
C1290  O1390   1.248   .     A
C1291  C1292   1.431   .     S
C1292  C1293   1.392   .     D
C1292  N1374   1.365   .     S
C1293  C1294   1.385   .     S
C1293  C1296   1.486   .     S
C1294  C1295   1.444   .     S
C1294  N1371   1.374   .     D
C1295  C1334   1.349   .     D
C1296  C1297   1.388   .     A
C1296  C1301   1.382   .     A
C1297  C1298   1.366   .     A
C1298  C1299   1.375   .     A
C1298  C1302   1.506   .     S
C1299  C1300   1.392   .     A
C1300  C1301   1.382   .     A
C1300  C1303   1.503   .     S
C1302  O1391   1.232   .     A
C1302  O1392   1.236   .     A
C1303  O1393   1.244   .     A
C1303  O1394   1.248   .     A
C1304  C1305   1.431   .     S
C1305  N1373   1.365   .     S
C1306  C1307   1.385   .     S
C1306  C1309   1.486   .     S
C1306  C902    1.392   1_565 S
C1307  C1308   1.444   .     S
C1307  N1372   1.374   .     D
C1308  C1321   1.349   .     D
C1309  C1310   1.388   .     A
C1309  C1314   1.382   .     A
C1310  C1311   1.367   .     A
C1311  C1312   1.374   .     A
C1311  C1315   1.506   .     S
C1312  C1313   1.392   .     A
C1313  C1314   1.382   .     A
C1313  C1316   1.503   .     S
C1315  O1395   1.232   .     A
C1315  O1396   1.236   .     A
C1316  O1397   1.245   .     A
C1316  O1398   1.248   .     A
C1317  C1318   1.431   .     S
C1317  C1356   1.338   .     D
C1318  C1319   1.392   .     S
C1318  N1375   1.365   .     D
C1319  C1320   1.385   .     D
C1319  C1322   1.486   .     S
C1320  C1321   1.444   .     S
C1320  N1372   1.374   .     S
C1322  C1323   1.388   .     A
C1322  C1327   1.382   .     A
C1323  C1324   1.366   .     A
C1324  C1325   1.375   .     A
C1324  C1328   1.506   .     S
C1325  C1326   1.392   .     A
C1326  C1327   1.382   .     A
C1326  C1329   1.503   .     S
C1328  O1399   1.232   .     A
C1328  O1400   1.236   .     A
C1329  O1401   1.245   .     A
C1329  O1402   1.248   .     A
C1330  C1331   1.431   .     S
C1330  C1343   1.338   .     D
C1331  N1376   1.365   .     D
C1331  C1534   1.392   1_455 S
C1332  C1533   1.392   .     S
C1332  C1333   1.385   .     D
C1332  C1335   1.486   .     S
C1333  C1334   1.444   .     S
C1333  N1371   1.374   .     S
C1335  C1336   1.388   .     A
C1335  C1340   1.382   .     A
C1336  C1337   1.366   .     A
C1337  C1338   1.374   .     A
C1337  C1341   1.506   .     S
C1338  C1339   1.391   .     A
C1339  C1340   1.382   .     A
C1339  C1342   1.503   .     S
C1341  O1403   1.232   .     A
C1341  O1404   1.236   .     A
C1342  O1405   1.245   .     A
C1342  O1406   1.248   .     A
C1343  C1344   1.431   .     S
C1344  C1345   1.392   .     D
C1344  N1376   1.365   .     S
C1345  C1346   1.385   .     S
C1345  C1348   1.486   .     S
C1346  C1347   1.444   .     S
C1346  N1370   1.374   .     D
C1348  C1349   1.388   .     A
C1348  C1353   1.382   .     A
C1349  C1350   1.367   .     A
C1350  C1351   1.374   .     A
C1350  C1354   1.506   .     S
C1351  C1352   1.391   .     A
C1352  C1353   1.382   .     A
C1352  C1355   1.503   .     S
C1354  O1407   1.232   .     A
C1354  O1408   1.236   .     A
C1355  O1409   1.245   .     A
C1355  O1410   1.248   .     A
C1356  C1357   1.431   .     S
C1357  N1375   1.365   .     S
C1357  C955    1.392   1_565 S
C1358  C1359   1.385   .     S
C1358  C1361   1.486   .     S
C1359  C1360   1.444   .     S
C1359  N1369   1.374   .     D
C1361  C1362   1.388   .     A
C1361  C1366   1.382   .     A
C1362  C1363   1.366   .     A
C1363  C1364   1.374   .     A
C1363  C1367   1.506   .     S
C1364  C1365   1.392   .     A
C1365  C1366   1.382   .     A
C1365  C1368   1.503   .     S
C1367  O1411   1.232   .     A
C1367  O1412   1.236   .     A
C1368  O1413   1.244   .     A
C1368  O1414   1.248   .     A
N1371  Mn1416  2.009   .     S
N1372  Mn810   2.009   1_565 A
N1374  Mn1416  2.014   .     S
N1375  Mn810   2.014   1_565 A
Cl1382 Mn810   2.451   1_565 S
O1385  Mn1423  2.114   .     S
O1389  Mn1424  2.114   1_455 S
O1393  Mn11    2.114   1_556 S
O1394  Mn418   2.126   1_556 S
O1395  Mn1013  2.138   1_565 A
O1397  Mn12    2.114   1_566 S
O1398  Mn417   2.126   1_556 S
O1401  Mn618   2.114   1_456 A
O1402  Mn415   2.126   1_556 S
O1403  Mn1013  2.138   1_565 S
O1405  Mn617   2.114   1_556 D
O1406  Mn416   2.126   1_556 S
O1409  Mn821   2.114   1_565 D
Mn1415 N1571   2.009   .     S
Mn1415 N1575   2.014   .     S
Mn1416 N1572   2.009   .     S
Mn1416 N1578   2.014   .     S
Mn1416 Cl1583  2.451   .     S
Mn1417 O1586   2.138   .     S
Mn1417 O1594   2.138   .     S
Mn1417 O1602   2.138   .     S
Mn1417 O1610   2.138   .     S
Mn1418 O1590   2.138   .     S
Mn1418 O1614   2.138   .     S
Mn1419 O1587   2.059   .     S
Mn1419 O1611   2.059   .     S
Mn1420 O1591   2.059   .     S
Mn1420 O1615   2.059   .     S
Mn1421 O1595   2.059   .     S
Mn1421 O1603   2.059   .     S
Mn1422 O1599   2.059   .     S
Mn1422 O1607   2.059   .     S
Mn1423 Cl1579  2.341   .     S
Mn1423 O1593   2.126   .     S
Mn1424 Cl1580  2.342   .     S
Mn1424 O1589   2.126   .     S
Mn1424 O595    2.114   1_655 D
Mn1424 O1389   2.114   1_655 S
Mn1425 Cl1581  2.342   .     S
Mn1425 O1613   2.126   .     S
Mn1425 O385    2.114   1_565 S
Mn1425 O1211   2.114   1_565 D
Mn1426 Cl1582  2.341   .     S
Mn1426 O1617   2.126   .     S
H1427  C1467   0.930   .     S
H1428  C1471   0.930   .     S
H1429  C1473   0.929   .     S
H1430  C1475   0.932   .     S
H1431  C1477   0.930   .     S
H1432  C1480   0.930   .     S
H1433  C1484   0.930   .     S
H1434  C1486   0.929   .     S
H1435  C1488   0.932   .     S
H1436  C1490   0.930   .     S
H1437  C1493   0.930   .     S
H1438  C1497   0.930   .     S
H1439  C1499   0.929   .     S
H1440  C1501   0.932   .     S
H1441  C1503   0.930   .     S
H1442  C1506   0.930   .     S
H1443  C1510   0.930   .     S
H1444  C1512   0.929   .     S
H1445  C1514   0.932   .     S
H1446  C1516   0.930   .     S
H1447  C1519   0.930   .     S
H1448  C1523   0.930   .     S
H1449  C1525   0.929   .     S
H1450  C1527   0.932   .     S
H1451  C1529   0.930   .     S
H1452  C1532   0.930   .     S
H1453  C1536   0.930   .     S
H1454  C1538   0.929   .     S
H1455  C1540   0.932   .     S
H1456  C1542   0.930   .     S
H1457  C1545   0.930   .     S
H1458  C1549   0.930   .     S
H1459  C1551   0.929   .     S
H1460  C1553   0.932   .     S
H1461  C1555   0.930   .     S
H1462  C1558   0.930   .     S
H1463  C1562   0.930   .     S
H1464  C1564   0.929   .     S
H1465  C1566   0.932   .     S
H1466  C1568   0.930   .     S
C1467  C1468   1.431   .     S
C1467  C1506   1.338   .     D
C1468  C1469   1.392   .     S
C1468  N1575   1.365   .     D
C1469  C1470   1.385   .     D
C1469  C1472   1.486   .     S
C1470  C1471   1.444   .     S
C1470  N1571   1.374   .     S
C1471  C1562   1.349   .     D
C1472  C1473   1.388   .     A
C1472  C1477   1.382   .     A
C1473  C1474   1.367   .     A
C1474  C1475   1.374   .     A
C1474  C1478   1.506   .     S
C1475  C1476   1.391   .     A
C1476  C1477   1.382   .     A
C1476  C1479   1.503   .     S
C1478  O1586   1.232   .     A
C1478  O1587   1.236   .     A
C1479  O1588   1.245   .     A
C1479  O1589   1.248   .     A
C1480  C1481   1.431   .     S
C1480  C1493   1.338   .     D
C1481  N1576   1.365   .     D
C1481  C1280   1.392   1_655 A
C1482  C1483   1.385   .     D
C1482  C1485   1.486   .     S
C1483  C1484   1.444   .     S
C1483  N1572   1.374   .     S
C1484  C1549   1.349   .     D
C1485  C1486   1.388   .     A
C1485  C1490   1.382   .     A
C1486  C1487   1.366   .     A
C1487  C1488   1.375   .     A
C1487  C1491   1.506   .     S
C1488  C1489   1.392   .     A
C1489  C1490   1.382   .     A
C1489  C1492   1.503   .     S
C1491  O1590   1.232   .     A
C1491  O1591   1.236   .     A
C1492  O1592   1.244   .     A
C1492  O1593   1.248   .     A
C1493  C1494   1.431   .     S
C1494  C1495   1.392   .     D
C1494  N1576   1.365   .     S
C1495  C1496   1.385   .     S
C1495  C1498   1.486   .     S
C1496  C1497   1.444   .     S
C1496  N1573   1.374   .     D
C1497  C1536   1.349   .     D
C1498  C1499   1.388   .     A
C1498  C1503   1.382   .     A
C1499  C1500   1.366   .     A
C1500  C1501   1.375   .     A
C1500  C1504   1.506   .     S
C1501  C1502   1.392   .     A
C1502  C1503   1.382   .     A
C1502  C1505   1.503   .     S
C1504  O1594   1.232   .     A
C1504  O1595   1.236   .     A
C1505  O1596   1.244   .     A
C1505  O1597   1.248   .     A
C1506  C1507   1.431   .     S
C1507  N1575   1.365   .     S
C1508  C1509   1.385   .     S
C1508  C1511   1.486   .     S
C1508  C1102   1.392   1_565 D
C1509  C1510   1.444   .     S
C1509  N1574   1.374   .     D
C1510  C1523   1.349   .     D
C1511  C1512   1.388   .     A
C1511  C1516   1.382   .     A
C1512  C1513   1.367   .     A
C1513  C1514   1.374   .     A
C1513  C1517   1.506   .     S
C1514  C1515   1.391   .     A
C1515  C1516   1.382   .     A
C1515  C1518   1.503   .     S
C1517  O1598   1.232   .     A
C1517  O1599   1.236   .     A
C1518  O1600   1.245   .     A
C1518  O1601   1.248   .     A
C1519  C1520   1.431   .     S
C1519  C1558   1.338   .     D
C1520  C1521   1.392   .     S
C1520  N1577   1.365   .     D
C1521  C1522   1.385   .     D
C1521  C1524   1.486   .     S
C1522  C1523   1.444   .     S
C1522  N1574   1.374   .     S
C1524  C1525   1.388   .     A
C1524  C1529   1.382   .     A
C1525  C1526   1.366   .     A
C1526  C1527   1.375   .     A
C1526  C1530   1.506   .     S
C1527  C1528   1.392   .     A
C1528  C1529   1.382   .     A
C1528  C1531   1.503   .     S
C1530  O1602   1.232   .     A
C1530  O1603   1.236   .     A
C1531  O1604   1.244   .     A
C1531  O1605   1.248   .     A
C1532  C1533   1.431   .     S
C1532  C1545   1.338   .     D
C1533  N1578   1.365   .     D
C1534  C1535   1.385   .     D
C1534  C1537   1.486   .     S
C1534  C1331   1.392   1_655 S
C1535  C1536   1.444   .     S
C1535  N1573   1.374   .     S
C1537  C1538   1.388   .     A
C1537  C1542   1.382   .     A
C1538  C1539   1.366   .     A
C1539  C1540   1.374   .     A
C1539  C1543   1.506   .     S
C1540  C1541   1.391   .     A
C1541  C1542   1.382   .     A
C1541  C1544   1.503   .     S
C1543  O1606   1.232   .     A
C1543  O1607   1.236   .     A
C1544  O1608   1.245   .     A
C1544  O1609   1.248   .     A
C1545  C1546   1.431   .     S
C1546  C1547   1.392   .     D
C1546  N1578   1.365   .     S
C1547  C1548   1.385   .     S
C1547  C1550   1.486   .     S
C1548  C1549   1.444   .     S
C1548  N1572   1.374   .     D
C1550  C1551   1.388   .     A
C1550  C1555   1.382   .     A
C1551  C1552   1.367   .     A
C1552  C1553   1.374   .     A
C1552  C1556   1.506   .     S
C1553  C1554   1.391   .     A
C1554  C1555   1.382   .     A
C1554  C1557   1.503   .     S
C1556  O1610   1.232   .     A
C1556  O1611   1.236   .     A
C1557  O1612   1.245   .     A
C1557  O1613   1.248   .     A
C1558  C1559   1.431   .     S
C1559  N1577   1.365   .     S
C1559  C1155   1.392   1_565 A
C1560  C1561   1.385   .     S
C1560  C1563   1.486   .     S
C1561  C1562   1.444   .     S
C1561  N1571   1.374   .     D
C1563  C1564   1.388   .     A
C1563  C1568   1.382   .     A
C1564  C1565   1.366   .     A
C1565  C1566   1.374   .     A
C1565  C1569   1.506   .     S
C1566  C1567   1.392   .     A
C1567  C1568   1.382   .     A
C1567  C1570   1.503   .     S
C1569  O1614   1.232   .     A
C1569  O1615   1.236   .     A
C1570  O1616   1.244   .     A
C1570  O1617   1.248   .     A
N1573  Mn1214  2.009   1_655 D
N1574  Mn1010  2.009   1_565 A
N1576  Mn1214  2.014   1_655 S
N1577  Mn1010  2.014   1_565 A
Cl1584 Mn1214  2.451   1_655 S
Cl1585 Mn1010  2.451   1_565 A
O1588  Mn1221  2.114   1_655 A
O1596  Mn215   2.114   1_556 S
O1597  Mn620   2.126   1_556 A
O1598  Mn813   2.138   1_665 A
O1600  Mn216   2.114   1_566 S
O1601  Mn619   2.126   1_556 S
O1604  Mn416   2.114   1_556 S
O1605  Mn617   2.126   1_556 S
O1606  Mn813   2.138   1_665 A
O1608  Mn415   2.114   1_656 S
O1609  Mn618   2.126   1_556 A
O1612  Mn1021  2.114   1_565 S
