data_MIFNUM_clean
_audit_creation_date              2014-07-02
_audit_creation_method            'Materials Studio'
_symmetry_space_group_name_H-M    'P1'
_symmetry_Int_Tables_number       1
_symmetry_cell_setting            triclinic
loop_
_symmetry_equiv_pos_as_xyz
  x,y,z
_cell_length_a                    10.9980
_cell_length_b                    32.8978
_cell_length_c                    32.8978
_cell_angle_alpha                 88.3989
_cell_angle_beta                  80.3776
_cell_angle_gamma                 80.3777
loop_
_atom_site_label
_atom_site_type_symbol
_atom_site_fract_x
_atom_site_fract_y
_atom_site_fract_z
_atom_site_U_iso_or_equiv
_atom_site_adp_type
_atom_site_occupancy
Dy1    Dy    0.81075   0.97344   0.17146   0.01267  Uiso   1.00
Dy2    Dy    0.30854   0.97556   0.17536   0.01267  Uiso   1.00
Dy3    Dy    0.45565   0.52656   0.32854   0.01267  Uiso   1.00
Dy4    Dy    0.95946   0.52444   0.32464   0.01267  Uiso   1.00
Dy5    Dy    0.98221   0.82854   0.47344   0.01267  Uiso   1.00
Dy6    Dy    0.48390   0.82464   0.47556   0.01267  Uiso   1.00
Dy7    Dy    0.78419   0.67146   0.02656   0.01267  Uiso   1.00
Dy8    Dy    0.28410   0.67536   0.02444   0.01267  Uiso   1.00
Dy9    Dy    0.18925   0.02656   0.82854   0.01267  Uiso   1.00
Dy10   Dy    0.69146   0.02444   0.82464   0.01267  Uiso   1.00
Dy11   Dy    0.54435   0.47344   0.67146   0.01267  Uiso   1.00
Dy12   Dy    0.04054   0.47556   0.67536   0.01267  Uiso   1.00
Dy13   Dy    0.01779   0.17146   0.52656   0.01267  Uiso   1.00
Dy14   Dy    0.51610   0.17536   0.52444   0.01267  Uiso   1.00
Dy15   Dy    0.21581   0.32854   0.97344   0.01267  Uiso   1.00
Dy16   Dy    0.71590   0.32464   0.97556   0.01267  Uiso   1.00
Co1    Co    0.28951   0.12854   0.03618   0.01267  Uiso   1.00
Co2    Co    0.95423   0.37146   0.46382   0.01267  Uiso   1.00
Co3    Co    0.32569   0.96382   0.62854   0.01267  Uiso   1.00
Co4    Co    0.41805   0.53618   0.87146   0.01267  Uiso   1.00
Co5    Co    0.71049   0.87146   0.96382   0.01267  Uiso   1.00
Co6    Co    0.04577   0.62854   0.53618   0.01267  Uiso   1.00
Co7    Co    0.67431   0.03618   0.37146   0.01267  Uiso   1.00
Co8    Co    0.58195   0.46382   0.12854   0.01267  Uiso   1.00
H1     H     0.66300   0.12680   0.22080   0.01267  Uiso   1.00
H2     H     0.82550   0.12950   0.25790   0.01267  Uiso   1.00
H3     H     0.84450   0.08780   0.31340   0.01267  Uiso   1.00
H4     H     0.41880   0.00100   0.39580   0.01267  Uiso   1.00
H5     H     0.31050   0.96260   0.36200   0.01267  Uiso   1.00
H6     H     0.36380   0.95630   0.28950   0.01267  Uiso   1.00
H7     H     0.53780   0.84530   0.13410   0.01267  Uiso   1.00
H8     H     0.64900   0.78830   0.09430   0.01267  Uiso   1.00
H9     H     0.75080   0.80010   0.02770   0.01267  Uiso   1.00
H10    H     0.64060   0.96860   0.94120   0.01267  Uiso   1.00
H11    H     0.66120   0.02870   0.97210   0.01267  Uiso   1.00
H12    H     0.70190   0.02690   0.03890   0.01267  Uiso   1.00
H13    H     0.94270   0.01770   0.06090   0.01267  Uiso   1.00
H14    H     0.93150   0.06170   0.00570   0.01267  Uiso   1.00
H15    H     0.05510   0.11210   0.99630   0.01267  Uiso   1.00
H16    H     0.41730   0.13950   0.11350   0.01267  Uiso   1.00
H17    H     0.34710   0.14920   0.18120   0.01267  Uiso   1.00
H18    H     0.15880   0.12960   0.21060   0.01267  Uiso   1.00
H19    H     0.11280   0.85260   0.13860   0.01267  Uiso   1.00
H20    H     0.27080   0.78920   0.13480   0.01267  Uiso   1.00
H21    H     0.27980   0.76250   0.20230   0.01267  Uiso   1.00
H22    H     0.96390   0.87060   0.36720   0.01267  Uiso   1.00
H23    H     0.01170   0.93110   0.37350   0.01267  Uiso   1.00
H24    H     0.09910   0.95830   0.31270   0.01267  Uiso   1.00
H25    H     0.51060   0.37320   0.27920   0.01267  Uiso   1.00
H26    H     0.71290   0.37050   0.24210   0.01267  Uiso   1.00
H27    H     0.74570   0.41220   0.18660   0.01267  Uiso   1.00
H28    H     0.31560   0.49900   0.10420   0.01267  Uiso   1.00
H29    H     0.13510   0.53740   0.13800   0.01267  Uiso   1.00
H30    H     0.10960   0.54370   0.21050   0.01267  Uiso   1.00
H31    H     0.01720   0.65470   0.36590   0.01267  Uiso   1.00
H32    H     0.03160   0.71170   0.40570   0.01267  Uiso   1.00
H33    H     0.07860   0.69990   0.47230   0.01267  Uiso   1.00
H34    H     0.05040   0.53140   0.55880   0.01267  Uiso   1.00
H35    H     0.16200   0.47130   0.52790   0.01267  Uiso   1.00
H36    H     0.26770   0.47310   0.46110   0.01267  Uiso   1.00
H37    H     0.52130   0.48230   0.43910   0.01267  Uiso   1.00
H38    H     0.49890   0.43830   0.49430   0.01267  Uiso   1.00
H39    H     0.66350   0.38790   0.50370   0.01267  Uiso   1.00
H40    H     0.17030   0.36050   0.38650   0.01267  Uiso   1.00
H41    H     0.17750   0.35080   0.31880   0.01267  Uiso   1.00
H42    H     0.99900   0.37040   0.28940   0.01267  Uiso   1.00
H43    H     0.60400   0.64740   0.36140   0.01267  Uiso   1.00
H44    H     0.69480   0.71080   0.36520   0.01267  Uiso   1.00
H45    H     0.74460   0.73750   0.29770   0.01267  Uiso   1.00
H46    H     0.70170   0.62940   0.13280   0.01267  Uiso   1.00
H47    H     0.81630   0.56890   0.12650   0.01267  Uiso   1.00
H48    H     0.87010   0.54170   0.18730   0.01267  Uiso   1.00
H49    H     0.88380   0.77920   0.62680   0.01267  Uiso   1.00
H50    H     0.08340   0.74210   0.62950   0.01267  Uiso   1.00
H51    H     0.15790   0.68660   0.58780   0.01267  Uiso   1.00
H52    H     0.81460   0.60420   0.50100   0.01267  Uiso   1.00
H53    H     0.67250   0.63800   0.46260   0.01267  Uiso   1.00
H54    H     0.65330   0.71050   0.45630   0.01267  Uiso   1.00
H55    H     0.67190   0.86590   0.34530   0.01267  Uiso   1.00
H56    H     0.74330   0.90570   0.28830   0.01267  Uiso   1.00
H57    H     0.77850   0.97230   0.30010   0.01267  Uiso   1.00
H58    H     0.58180   0.05880   0.46860   0.01267  Uiso   1.00
H59    H     0.63330   0.02790   0.52870   0.01267  Uiso   1.00
H60    H     0.74080   0.96110   0.52690   0.01267  Uiso   1.00
H61    H     0.00360   0.93910   0.51770   0.01267  Uiso   1.00
H62    H     0.93720   0.99430   0.56170   0.01267  Uiso   1.00
H63    H     0.05140   0.00370   0.61210   0.01267  Uiso   1.00
H64    H     0.53080   0.88650   0.63950   0.01267  Uiso   1.00
H65    H     0.52830   0.81880   0.64920   0.01267  Uiso   1.00
H66    H     0.36940   0.78940   0.62960   0.01267  Uiso   1.00
H67    H     0.25140   0.86140   0.35260   0.01267  Uiso   1.00
H68    H     0.40560   0.86520   0.28920   0.01267  Uiso   1.00
H69    H     0.48210   0.79770   0.26250   0.01267  Uiso   1.00
H70    H     0.33110   0.63280   0.37060   0.01267  Uiso   1.00
H71    H     0.38520   0.62650   0.43110   0.01267  Uiso   1.00
H72    H     0.41180   0.68730   0.45830   0.01267  Uiso   1.00
H73    H     0.78980   0.72080   0.87320   0.01267  Uiso   1.00
H74    H     0.95500   0.75790   0.87050   0.01267  Uiso   1.00
H75    H     0.93230   0.81340   0.91220   0.01267  Uiso   1.00
H76    H     0.41980   0.89580   0.99900   0.01267  Uiso   1.00
H77    H     0.27310   0.86200   0.03740   0.01267  Uiso   1.00
H78    H     0.32010   0.78950   0.04370   0.01267  Uiso   1.00
H79    H     0.38310   0.63410   0.15470   0.01267  Uiso   1.00
H80    H     0.43730   0.59430   0.21170   0.01267  Uiso   1.00
H81    H     0.55090   0.52770   0.19990   0.01267  Uiso   1.00
H82    H     0.60920   0.44120   0.03140   0.01267  Uiso   1.00
H83    H     0.68990   0.47210   0.97130   0.01267  Uiso   1.00
H84    H     0.72880   0.53890   0.97310   0.01267  Uiso   1.00
H85    H     0.96040   0.56090   0.98230   0.01267  Uiso   1.00
H86    H     0.99320   0.50570   0.93830   0.01267  Uiso   1.00
H87    H     0.16720   0.49630   0.88790   0.01267  Uiso   1.00
H88    H     0.55680   0.61350   0.86050   0.01267  Uiso   1.00
H89    H     0.49630   0.68120   0.85080   0.01267  Uiso   1.00
H90    H     0.28840   0.71060   0.87040   0.01267  Uiso   1.00
H91    H     0.96540   0.63860   0.14740   0.01267  Uiso   1.00
H92    H     0.06000   0.63480   0.21080   0.01267  Uiso   1.00
H93    H     0.04230   0.70230   0.23750   0.01267  Uiso   1.00
H94    H     0.83450   0.86720   0.12940   0.01267  Uiso   1.00
H95    H     0.94280   0.87350   0.06890   0.01267  Uiso   1.00
H96    H     0.05740   0.81270   0.04170   0.01267  Uiso   1.00
H97    H     0.33700   0.87320   0.77920   0.01267  Uiso   1.00
H98    H     0.17450   0.87050   0.74210   0.01267  Uiso   1.00
H99    H     0.15550   0.91220   0.68660   0.01267  Uiso   1.00
H100   H     0.58120   0.99900   0.60420   0.01267  Uiso   1.00
H101   H     0.68950   0.03740   0.63800   0.01267  Uiso   1.00
H102   H     0.63620   0.04370   0.71050   0.01267  Uiso   1.00
H103   H     0.46220   0.15470   0.86590   0.01267  Uiso   1.00
H104   H     0.35100   0.21170   0.90570   0.01267  Uiso   1.00
H105   H     0.24920   0.19990   0.97230   0.01267  Uiso   1.00
H106   H     0.35940   0.03140   0.05880   0.01267  Uiso   1.00
H107   H     0.33880   0.97130   0.02790   0.01267  Uiso   1.00
H108   H     0.29810   0.97310   0.96110   0.01267  Uiso   1.00
H109   H     0.05730   0.98230   0.93910   0.01267  Uiso   1.00
H110   H     0.06850   0.93830   0.99430   0.01267  Uiso   1.00
H111   H     0.94490   0.88790   0.00370   0.01267  Uiso   1.00
H112   H     0.58270   0.86050   0.88650   0.01267  Uiso   1.00
H113   H     0.65290   0.85080   0.81880   0.01267  Uiso   1.00
H114   H     0.84120   0.87040   0.78940   0.01267  Uiso   1.00
H115   H     0.88720   0.14740   0.86140   0.01267  Uiso   1.00
H116   H     0.72920   0.21080   0.86520   0.01267  Uiso   1.00
H117   H     0.72020   0.23750   0.79770   0.01267  Uiso   1.00
H118   H     0.03610   0.12940   0.63280   0.01267  Uiso   1.00
H119   H     0.98830   0.06890   0.62650   0.01267  Uiso   1.00
H120   H     0.90090   0.04170   0.68730   0.01267  Uiso   1.00
H121   H     0.48940   0.62680   0.72080   0.01267  Uiso   1.00
H122   H     0.28710   0.62950   0.75790   0.01267  Uiso   1.00
H123   H     0.25430   0.58780   0.81340   0.01267  Uiso   1.00
H124   H     0.68440   0.50100   0.89580   0.01267  Uiso   1.00
H125   H     0.86490   0.46260   0.86200   0.01267  Uiso   1.00
H126   H     0.89040   0.45630   0.78950   0.01267  Uiso   1.00
H127   H     0.98280   0.34530   0.63410   0.01267  Uiso   1.00
H128   H     0.96840   0.28830   0.59430   0.01267  Uiso   1.00
H129   H     0.92140   0.30010   0.52770   0.01267  Uiso   1.00
H130   H     0.94960   0.46860   0.44120   0.01267  Uiso   1.00
H131   H     0.83800   0.52870   0.47210   0.01267  Uiso   1.00
H132   H     0.73230   0.52690   0.53890   0.01267  Uiso   1.00
H133   H     0.47870   0.51770   0.56090   0.01267  Uiso   1.00
H134   H     0.50110   0.56170   0.50570   0.01267  Uiso   1.00
H135   H     0.33650   0.61210   0.49630   0.01267  Uiso   1.00
H136   H     0.82970   0.63950   0.61350   0.01267  Uiso   1.00
H137   H     0.82250   0.64920   0.68120   0.01267  Uiso   1.00
H138   H     0.00100   0.62960   0.71060   0.01267  Uiso   1.00
H139   H     0.39600   0.35260   0.63860   0.01267  Uiso   1.00
H140   H     0.30520   0.28920   0.63480   0.01267  Uiso   1.00
H141   H     0.25540   0.26250   0.70230   0.01267  Uiso   1.00
H142   H     0.29830   0.37060   0.86720   0.01267  Uiso   1.00
H143   H     0.18370   0.43110   0.87350   0.01267  Uiso   1.00
H144   H     0.12990   0.45830   0.81270   0.01267  Uiso   1.00
H145   H     0.11620   0.22080   0.37320   0.01267  Uiso   1.00
H146   H     0.91660   0.25790   0.37050   0.01267  Uiso   1.00
H147   H     0.84210   0.31340   0.41220   0.01267  Uiso   1.00
H148   H     0.18540   0.39580   0.49900   0.01267  Uiso   1.00
H149   H     0.32750   0.36200   0.53740   0.01267  Uiso   1.00
H150   H     0.34670   0.28950   0.54370   0.01267  Uiso   1.00
H151   H     0.32810   0.13410   0.65470   0.01267  Uiso   1.00
H152   H     0.25670   0.09430   0.71170   0.01267  Uiso   1.00
H153   H     0.22150   0.02770   0.69990   0.01267  Uiso   1.00
H154   H     0.41820   0.94120   0.53140   0.01267  Uiso   1.00
H155   H     0.36670   0.97210   0.47130   0.01267  Uiso   1.00
H156   H     0.25920   0.03890   0.47310   0.01267  Uiso   1.00
H157   H     0.99640   0.06090   0.48230   0.01267  Uiso   1.00
H158   H     0.06280   0.00570   0.43830   0.01267  Uiso   1.00
H159   H     0.94860   0.99630   0.38790   0.01267  Uiso   1.00
H160   H     0.46920   0.11350   0.36050   0.01267  Uiso   1.00
H161   H     0.47170   0.18120   0.35080   0.01267  Uiso   1.00
H162   H     0.63060   0.21060   0.37040   0.01267  Uiso   1.00
H163   H     0.74860   0.13860   0.64740   0.01267  Uiso   1.00
H164   H     0.59440   0.13480   0.71080   0.01267  Uiso   1.00
H165   H     0.51790   0.20230   0.73750   0.01267  Uiso   1.00
H166   H     0.66890   0.36720   0.62940   0.01267  Uiso   1.00
H167   H     0.61480   0.37350   0.56890   0.01267  Uiso   1.00
H168   H     0.58820   0.31270   0.54170   0.01267  Uiso   1.00
H169   H     0.21020   0.27920   0.12680   0.01267  Uiso   1.00
H170   H     0.04500   0.24210   0.12950   0.01267  Uiso   1.00
H171   H     0.06770   0.18660   0.08780   0.01267  Uiso   1.00
H172   H     0.58020   0.10420   0.00100   0.01267  Uiso   1.00
H173   H     0.72690   0.13800   0.96260   0.01267  Uiso   1.00
H174   H     0.67990   0.21050   0.95630   0.01267  Uiso   1.00
H175   H     0.61690   0.36590   0.84530   0.01267  Uiso   1.00
H176   H     0.56270   0.40570   0.78830   0.01267  Uiso   1.00
H177   H     0.44910   0.47230   0.80010   0.01267  Uiso   1.00
H178   H     0.39080   0.55880   0.96860   0.01267  Uiso   1.00
H179   H     0.31010   0.52790   0.02870   0.01267  Uiso   1.00
H180   H     0.27120   0.46110   0.02690   0.01267  Uiso   1.00
H181   H     0.03960   0.43910   0.01770   0.01267  Uiso   1.00
H182   H     0.00680   0.49430   0.06170   0.01267  Uiso   1.00
H183   H     0.83280   0.50370   0.11210   0.01267  Uiso   1.00
H184   H     0.44320   0.38650   0.13950   0.01267  Uiso   1.00
H185   H     0.50370   0.31880   0.14920   0.01267  Uiso   1.00
H186   H     0.71160   0.28940   0.12960   0.01267  Uiso   1.00
H187   H     0.03460   0.36140   0.85260   0.01267  Uiso   1.00
H188   H     0.94000   0.36520   0.78920   0.01267  Uiso   1.00
H189   H     0.95770   0.29770   0.76250   0.01267  Uiso   1.00
H190   H     0.16550   0.13280   0.87060   0.01267  Uiso   1.00
H191   H     0.05720   0.12650   0.93110   0.01267  Uiso   1.00
H192   H     0.94260   0.18730   0.95830   0.01267  Uiso   1.00
C1     C     0.48860   0.07890   0.23050   0.01267  Uiso   1.00
C2     C     0.59540   0.07990   0.25470   0.01267  Uiso   1.00
C3     C     0.67440   0.10920   0.24280   0.01267  Uiso   1.00
C4     C     0.77000   0.11100   0.26540   0.01267  Uiso   1.00
C5     C     0.78150   0.08560   0.29840   0.01267  Uiso   1.00
C6     C     0.61480   0.05460   0.28820   0.01267  Uiso   1.00
C7     C     0.53080   0.02460   0.30580   0.01267  Uiso   1.00
C8     C     0.43260   0.00090   0.36710   0.01267  Uiso   1.00
C9     C     0.37050   0.97660   0.34720   0.01267  Uiso   1.00
C10    C     0.40020   0.97360   0.30380   0.01267  Uiso   1.00
C11    C     0.48530   0.99740   0.28280   0.01267  Uiso   1.00
C12    C     0.53120   0.98880   0.23740   0.01267  Uiso   1.00
C13    C     0.48830   0.92370   0.11290   0.01267  Uiso   1.00
C14    C     0.57990   0.88830   0.09030   0.01267  Uiso   1.00
C15    C     0.58010   0.84890   0.10770   0.01267  Uiso   1.00
C16    C     0.64620   0.81500   0.08400   0.01267  Uiso   1.00
C17    C     0.70880   0.82260   0.04360   0.01267  Uiso   1.00
C18    C     0.65080   0.89260   0.05160   0.01267  Uiso   1.00
C19    C     0.66250   0.93190   0.03070   0.01267  Uiso   1.00
C20    C     0.64970   0.96850   0.96870   0.01267  Uiso   1.00
C21    C     0.66550   0.00410   0.98690   0.01267  Uiso   1.00
C22    C     0.68750   0.00320   0.02700   0.01267  Uiso   1.00
C23    C     0.68800   0.96750   0.04930   0.01267  Uiso   1.00
C24    C     0.73130   0.96440   0.09180   0.01267  Uiso   1.00
C25    C     0.06650   0.01760   0.12380   0.01267  Uiso   1.00
C26    C     0.05330   0.04810   0.09070   0.01267  Uiso   1.00
C27    C     0.98460   0.04020   0.05860   0.01267  Uiso   1.00
C28    C     0.98080   0.06560   0.02520   0.01267  Uiso   1.00
C29    C     0.05040   0.09700   0.02060   0.01267  Uiso   1.00
C30    C     0.10830   0.08310   0.08550   0.01267  Uiso   1.00
C31    C     0.17170   0.10080   0.11680   0.01267  Uiso   1.00
C32    C     0.34230   0.13090   0.12470   0.01267  Uiso   1.00
C33    C     0.30110   0.13700   0.16520   0.01267  Uiso   1.00
C34    C     0.19000   0.12490   0.18270   0.01267  Uiso   1.00
C35    C     0.12660   0.10600   0.15880   0.01267  Uiso   1.00
C36    C     0.00750   0.09130   0.17810   0.01267  Uiso   1.00
C37    C     0.97470   0.90220   0.19620   0.01267  Uiso   1.00
C38    C     0.07950   0.86240   0.20040   0.01267  Uiso   1.00
C39    C     0.13590   0.84090   0.16290   0.01267  Uiso   1.00
C40    C     0.22750   0.80210   0.15890   0.01267  Uiso   1.00
C41    C     0.23470   0.78880   0.19960   0.01267  Uiso   1.00
C42    C     0.11930   0.84840   0.23500   0.01267  Uiso   1.00
C43    C     0.07780   0.87280   0.27300   0.01267  Uiso   1.00
C44    C     0.00030   0.88170   0.34270   0.01267  Uiso   1.00
C45    C     0.02710   0.91740   0.34840   0.01267  Uiso   1.00
C46    C     0.08100   0.93160   0.31260   0.01267  Uiso   1.00
C47    C     0.11320   0.91040   0.27440   0.01267  Uiso   1.00
C48    C     0.18470   0.92990   0.23950   0.01267  Uiso   1.00
C49    C     0.29800   0.42110   0.26950   0.01267  Uiso   1.00
C50    C     0.43000   0.42010   0.24530   0.01267  Uiso   1.00
C51    C     0.52640   0.39080   0.25720   0.01267  Uiso   1.00
C52    C     0.64640   0.38900   0.23460   0.01267  Uiso   1.00
C53    C     0.66550   0.41440   0.20160   0.01267  Uiso   1.00
C54    C     0.45760   0.44540   0.21180   0.01267  Uiso   1.00
C55    C     0.36120   0.47540   0.19420   0.01267  Uiso   1.00
C56    C     0.30060   0.49910   0.13290   0.01267  Uiso   1.00
C57    C     0.19430   0.52340   0.15280   0.01267  Uiso   1.00
C58    C     0.17760   0.52640   0.19620   0.01267  Uiso   1.00
C59    C     0.26550   0.50260   0.21720   0.01267  Uiso   1.00
C60    C     0.25740   0.51120   0.26260   0.01267  Uiso   1.00
C61    C     0.02490   0.57630   0.38710   0.01267  Uiso   1.00
C62    C     0.05850   0.61170   0.40970   0.01267  Uiso   1.00
C63    C     0.03670   0.65110   0.39230   0.01267  Uiso   1.00
C64    C     0.04520   0.68500   0.41600   0.01267  Uiso   1.00
C65    C     0.07500   0.67740   0.45640   0.01267  Uiso   1.00
C66    C     0.09500   0.60740   0.44840   0.01267  Uiso   1.00
C67    C     0.12510   0.56810   0.46930   0.01267  Uiso   1.00
C68    C     0.08690   0.53150   0.53130   0.01267  Uiso   1.00
C69    C     0.15650   0.49590   0.51310   0.01267  Uiso   1.00
C70    C     0.21770   0.49680   0.47300   0.01267  Uiso   1.00
C71    C     0.20480   0.53250   0.45070   0.01267  Uiso   1.00
C72    C     0.28750   0.53560   0.40820   0.01267  Uiso   1.00
C73    C     0.70790   0.48240   0.37620   0.01267  Uiso   1.00
C74    C     0.69210   0.45190   0.40930   0.01267  Uiso   1.00
C75    C     0.58340   0.45980   0.44140   0.01267  Uiso   1.00
C76    C     0.57160   0.43440   0.47480   0.01267  Uiso   1.00
C77    C     0.66800   0.40300   0.47940   0.01267  Uiso   1.00
C78    C     0.77690   0.41690   0.41450   0.01267  Uiso   1.00
C79    C     0.88930   0.39920   0.38320   0.01267  Uiso   1.00
C80    C     0.09790   0.36910   0.37530   0.01267  Uiso   1.00
C81    C     0.10330   0.36300   0.33480   0.01267  Uiso   1.00
C82    C     0.99760   0.37510   0.31730   0.01267  Uiso   1.00
C83    C     0.89140   0.39400   0.34120   0.01267  Uiso   1.00
C84    C     0.77690   0.40870   0.32190   0.01267  Uiso   1.00
C85    C     0.57310   0.59780   0.30380   0.01267  Uiso   1.00
C86    C     0.64230   0.63760   0.29960   0.01267  Uiso   1.00
C87    C     0.63970   0.65910   0.33710   0.01267  Uiso   1.00
C88    C     0.68850   0.69790   0.34110   0.01267  Uiso   1.00
C89    C     0.72310   0.71120   0.30040   0.01267  Uiso   1.00
C90    C     0.70270   0.65160   0.26500   0.01267  Uiso   1.00
C91    C     0.72360   0.62720   0.22700   0.01267  Uiso   1.00
C92    C     0.72470   0.61830   0.15730   0.01267  Uiso   1.00
C93    C     0.79290   0.58260   0.15160   0.01267  Uiso   1.00
C94    C     0.82520   0.56840   0.18740   0.01267  Uiso   1.00
C95    C     0.79800   0.58960   0.22560   0.01267  Uiso   1.00
C96    C     0.85410   0.57010   0.26050   0.01267  Uiso   1.00
C97    C     0.71910   0.76950   0.57890   0.01267  Uiso   1.00
C98    C     0.85010   0.74530   0.57990   0.01267  Uiso   1.00
C99    C     0.91720   0.75720   0.60920   0.01267  Uiso   1.00
C100   C     0.03540   0.73460   0.61100   0.01267  Uiso   1.00
C101   C     0.07990   0.70160   0.58560   0.01267  Uiso   1.00
C102   C     0.90300   0.71180   0.55460   0.01267  Uiso   1.00
C103   C     0.83660   0.69420   0.52460   0.01267  Uiso   1.00
C104   C     0.79970   0.63290   0.50090   0.01267  Uiso   1.00
C105   C     0.71770   0.65280   0.47660   0.01267  Uiso   1.00
C106   C     0.70400   0.69620   0.47360   0.01267  Uiso   1.00
C107   C     0.76810   0.71720   0.49740   0.01267  Uiso   1.00
C108   C     0.76860   0.76260   0.48880   0.01267  Uiso   1.00
C109   C     0.60120   0.88710   0.42370   0.01267  Uiso   1.00
C110   C     0.67020   0.90970   0.38830   0.01267  Uiso   1.00
C111   C     0.68780   0.89230   0.34890   0.01267  Uiso   1.00
C112   C     0.73020   0.91600   0.31500   0.01267  Uiso   1.00
C113   C     0.75240   0.95640   0.32260   0.01267  Uiso   1.00
C114   C     0.70240   0.94840   0.39260   0.01267  Uiso   1.00
C115   C     0.69320   0.96930   0.43190   0.01267  Uiso   1.00
C116   C     0.61840   0.03130   0.46850   0.01267  Uiso   1.00
C117   C     0.65240   0.01310   0.50410   0.01267  Uiso   1.00
C118   C     0.71450   0.97300   0.50320   0.01267  Uiso   1.00
C119   C     0.73730   0.95070   0.46750   0.01267  Uiso   1.00
C120   C     0.82310   0.90820   0.46440   0.01267  Uiso   1.00
C121   C     0.19030   0.87620   0.51760   0.01267  Uiso   1.00
C122   C     0.14400   0.90930   0.54810   0.01267  Uiso   1.00
C123   C     0.04320   0.94140   0.54020   0.01267  Uiso   1.00
C124   C     0.00600   0.97480   0.56560   0.01267  Uiso   1.00
C125   C     0.07100   0.97940   0.59700   0.01267  Uiso   1.00
C126   C     0.19380   0.91450   0.58310   0.01267  Uiso   1.00
C127   C     0.28850   0.88320   0.60080   0.01267  Uiso   1.00
C128   C     0.46700   0.87530   0.63090   0.01267  Uiso   1.00
C129   C     0.46630   0.83480   0.63700   0.01267  Uiso   1.00
C130   C     0.37270   0.81730   0.62490   0.01267  Uiso   1.00
C131   C     0.28540   0.84120   0.60600   0.01267  Uiso   1.00
C132   C     0.18560   0.82190   0.59130   0.01267  Uiso   1.00
C133   C     0.17090   0.80380   0.40220   0.01267  Uiso   1.00
C134   C     0.27990   0.79960   0.36240   0.01267  Uiso   1.00
C135   C     0.29880   0.83710   0.34090   0.01267  Uiso   1.00
C136   C     0.38640   0.84110   0.30210   0.01267  Uiso   1.00
C137   C     0.43430   0.80040   0.28880   0.01267  Uiso   1.00
C138   C     0.35430   0.76500   0.34840   0.01267  Uiso   1.00
C139   C     0.35080   0.72700   0.37280   0.01267  Uiso   1.00
C140   C     0.34300   0.65730   0.38170   0.01267  Uiso   1.00
C141   C     0.37550   0.65160   0.41740   0.01267  Uiso   1.00
C142   C     0.39360   0.68740   0.43160   0.01267  Uiso   1.00
C143   C     0.38760   0.72560   0.41040   0.01267  Uiso   1.00
C144   C     0.42420   0.76050   0.42990   0.01267  Uiso   1.00
C145   C     0.56750   0.73050   0.92110   0.01267  Uiso   1.00
C146   C     0.67530   0.75470   0.92010   0.01267  Uiso   1.00
C147   C     0.78360   0.74280   0.89080   0.01267  Uiso   1.00
C148   C     0.88100   0.76540   0.88900   0.01267  Uiso   1.00
C149   C     0.86710   0.79840   0.91440   0.01267  Uiso   1.00
C150   C     0.66940   0.78820   0.94540   0.01267  Uiso   1.00
C151   C     0.55540   0.80580   0.97540   0.01267  Uiso   1.00
C152   C     0.43350   0.86710   0.99910   0.01267  Uiso   1.00
C153   C     0.34710   0.84720   0.02340   0.01267  Uiso   1.00
C154   C     0.37380   0.80380   0.02640   0.01267  Uiso   1.00
C155   C     0.48270   0.78280   0.00260   0.01267  Uiso   1.00
C156   C     0.52000   0.73740   0.01120   0.01267  Uiso   1.00
C157   C     0.41200   0.61290   0.07630   0.01267  Uiso   1.00
C158   C     0.46820   0.59030   0.11170   0.01267  Uiso   1.00
C159   C     0.42900   0.60770   0.15110   0.01267  Uiso   1.00
C160   C     0.46120   0.58400   0.18500   0.01267  Uiso   1.00
C161   C     0.53140   0.54360   0.17740   0.01267  Uiso   1.00
C162   C     0.54340   0.55160   0.10740   0.01267  Uiso   1.00
C163   C     0.59440   0.53070   0.06810   0.01267  Uiso   1.00
C164   C     0.61820   0.46870   0.03150   0.01267  Uiso   1.00
C165   C     0.66960   0.48690   0.99590   0.01267  Uiso   1.00
C166   C     0.69070   0.52700   0.99680   0.01267  Uiso   1.00
C167   C     0.65550   0.54930   0.03250   0.01267  Uiso   1.00
C168   C     0.69570   0.59180   0.03560   0.01267  Uiso   1.00
C169   C     0.08410   0.62380   0.98240   0.01267  Uiso   1.00
C170   C     0.10140   0.59070   0.95190   0.01267  Uiso   1.00
C171   C     0.02480   0.55860   0.95980   0.01267  Uiso   1.00
C172   C     0.04640   0.52520   0.93440   0.01267  Uiso   1.00
C173   C     0.14740   0.52060   0.90300   0.01267  Uiso   1.00
C174   C     0.19140   0.58550   0.91690   0.01267  Uiso   1.00
C175   C     0.27250   0.61680   0.89920   0.01267  Uiso   1.00
C176   C     0.47320   0.62470   0.86910   0.01267  Uiso   1.00
C177   C     0.43810   0.66520   0.86300   0.01267  Uiso   1.00
C178   C     0.31490   0.68270   0.87510   0.01267  Uiso   1.00
C179   C     0.23260   0.65880   0.89400   0.01267  Uiso   1.00
C180   C     0.09880   0.67810   0.90870   0.01267  Uiso   1.00
C181   C     0.87690   0.69620   0.09780   0.01267  Uiso   1.00
C182   C     0.94190   0.70040   0.13760   0.01267  Uiso   1.00
C183   C     0.97680   0.66290   0.15910   0.01267  Uiso   1.00
C184   C     0.02960   0.65890   0.19790   0.01267  Uiso   1.00
C185   C     0.02350   0.69960   0.21120   0.01267  Uiso   1.00
C186   C     0.96770   0.73500   0.15160   0.01267  Uiso   1.00
C187   C     0.95060   0.77300   0.12720   0.01267  Uiso   1.00
C188   C     0.88200   0.84270   0.11830   0.01267  Uiso   1.00
C189   C     0.94450   0.84840   0.08260   0.01267  Uiso   1.00
C190   C     0.01260   0.81260   0.06840   0.01267  Uiso   1.00
C191   C     0.02360   0.77440   0.08960   0.01267  Uiso   1.00
C192   C     0.11460   0.73950   0.07010   0.01267  Uiso   1.00
C193   C     0.51140   0.92110   0.76950   0.01267  Uiso   1.00
C194   C     0.40460   0.92010   0.74530   0.01267  Uiso   1.00
C195   C     0.32560   0.89080   0.75720   0.01267  Uiso   1.00
C196   C     0.23000   0.88900   0.73460   0.01267  Uiso   1.00
C197   C     0.21850   0.91440   0.70160   0.01267  Uiso   1.00
C198   C     0.38520   0.94540   0.71180   0.01267  Uiso   1.00
C199   C     0.46920   0.97540   0.69420   0.01267  Uiso   1.00
C200   C     0.56740   0.99910   0.63290   0.01267  Uiso   1.00
C201   C     0.62950   0.02340   0.65280   0.01267  Uiso   1.00
C202   C     0.59980   0.02640   0.69620   0.01267  Uiso   1.00
C203   C     0.51470   0.00260   0.71720   0.01267  Uiso   1.00
C204   C     0.46880   0.01120   0.76260   0.01267  Uiso   1.00
C205   C     0.51170   0.07630   0.88710   0.01267  Uiso   1.00
C206   C     0.42010   0.11170   0.90970   0.01267  Uiso   1.00
C207   C     0.41990   0.15110   0.89230   0.01267  Uiso   1.00
C208   C     0.35380   0.18500   0.91600   0.01267  Uiso   1.00
C209   C     0.29120   0.17740   0.95640   0.01267  Uiso   1.00
C210   C     0.34920   0.10740   0.94840   0.01267  Uiso   1.00
C211   C     0.33750   0.06810   0.96930   0.01267  Uiso   1.00
C212   C     0.35030   0.03150   0.03130   0.01267  Uiso   1.00
C213   C     0.33450   0.99590   0.01310   0.01267  Uiso   1.00
C214   C     0.31250   0.99680   0.97300   0.01267  Uiso   1.00
C215   C     0.31200   0.03250   0.95070   0.01267  Uiso   1.00
C216   C     0.26870   0.03560   0.90820   0.01267  Uiso   1.00
C217   C     0.93350   0.98240   0.87620   0.01267  Uiso   1.00
C218   C     0.94670   0.95190   0.90930   0.01267  Uiso   1.00
C219   C     0.01540   0.95980   0.94140   0.01267  Uiso   1.00
C220   C     0.01920   0.93440   0.97480   0.01267  Uiso   1.00
C221   C     0.94960   0.90300   0.97940   0.01267  Uiso   1.00
C222   C     0.89170   0.91690   0.91450   0.01267  Uiso   1.00
C223   C     0.82830   0.89920   0.88320   0.01267  Uiso   1.00
C224   C     0.65770   0.86910   0.87530   0.01267  Uiso   1.00
C225   C     0.69890   0.86300   0.83480   0.01267  Uiso   1.00
C226   C     0.81000   0.87510   0.81730   0.01267  Uiso   1.00
C227   C     0.87340   0.89400   0.84120   0.01267  Uiso   1.00
C228   C     0.99250   0.90870   0.82190   0.01267  Uiso   1.00
C229   C     0.02530   0.09780   0.80380   0.01267  Uiso   1.00
C230   C     0.92050   0.13760   0.79960   0.01267  Uiso   1.00
C231   C     0.86410   0.15910   0.83710   0.01267  Uiso   1.00
C232   C     0.77250   0.19790   0.84110   0.01267  Uiso   1.00
C233   C     0.76530   0.21120   0.80040   0.01267  Uiso   1.00
C234   C     0.88070   0.15160   0.76500   0.01267  Uiso   1.00
C235   C     0.92220   0.12720   0.72700   0.01267  Uiso   1.00
C236   C     0.99970   0.11830   0.65730   0.01267  Uiso   1.00
C237   C     0.97290   0.08260   0.65160   0.01267  Uiso   1.00
C238   C     0.91900   0.06840   0.68740   0.01267  Uiso   1.00
C239   C     0.88680   0.08960   0.72560   0.01267  Uiso   1.00
C240   C     0.81530   0.07010   0.76050   0.01267  Uiso   1.00
C241   C     0.70200   0.57890   0.73050   0.01267  Uiso   1.00
C242   C     0.57000   0.57990   0.75470   0.01267  Uiso   1.00
C243   C     0.47360   0.60920   0.74280   0.01267  Uiso   1.00
C244   C     0.35360   0.61100   0.76540   0.01267  Uiso   1.00
C245   C     0.33450   0.58560   0.79840   0.01267  Uiso   1.00
C246   C     0.54240   0.55460   0.78820   0.01267  Uiso   1.00
C247   C     0.63880   0.52460   0.80580   0.01267  Uiso   1.00
C248   C     0.69940   0.50090   0.86710   0.01267  Uiso   1.00
C249   C     0.80570   0.47660   0.84720   0.01267  Uiso   1.00
C250   C     0.82240   0.47360   0.80380   0.01267  Uiso   1.00
C251   C     0.73450   0.49740   0.78280   0.01267  Uiso   1.00
C252   C     0.74260   0.48880   0.73740   0.01267  Uiso   1.00
C253   C     0.97510   0.42370   0.61290   0.01267  Uiso   1.00
C254   C     0.94150   0.38830   0.59030   0.01267  Uiso   1.00
C255   C     0.96330   0.34890   0.60770   0.01267  Uiso   1.00
C256   C     0.95480   0.31500   0.58400   0.01267  Uiso   1.00
C257   C     0.92500   0.32260   0.54360   0.01267  Uiso   1.00
C258   C     0.90500   0.39260   0.55160   0.01267  Uiso   1.00
C259   C     0.87490   0.43190   0.53070   0.01267  Uiso   1.00
C260   C     0.91310   0.46850   0.46870   0.01267  Uiso   1.00
C261   C     0.84350   0.50410   0.48690   0.01267  Uiso   1.00
C262   C     0.78230   0.50320   0.52700   0.01267  Uiso   1.00
C263   C     0.79520   0.46750   0.54930   0.01267  Uiso   1.00
C264   C     0.71250   0.46440   0.59180   0.01267  Uiso   1.00
C265   C     0.29210   0.51760   0.62380   0.01267  Uiso   1.00
C266   C     0.30790   0.54810   0.59070   0.01267  Uiso   1.00
C267   C     0.41660   0.54020   0.55860   0.01267  Uiso   1.00
C268   C     0.42840   0.56560   0.52520   0.01267  Uiso   1.00
C269   C     0.33200   0.59700   0.52060   0.01267  Uiso   1.00
C270   C     0.22310   0.58310   0.58550   0.01267  Uiso   1.00
C271   C     0.11070   0.60080   0.61680   0.01267  Uiso   1.00
C272   C     0.90210   0.63090   0.62470   0.01267  Uiso   1.00
C273   C     0.89670   0.63700   0.66520   0.01267  Uiso   1.00
C274   C     0.00240   0.62490   0.68270   0.01267  Uiso   1.00
C275   C     0.10860   0.60600   0.65880   0.01267  Uiso   1.00
C276   C     0.22310   0.59130   0.67810   0.01267  Uiso   1.00
C277   C     0.42690   0.40220   0.69620   0.01267  Uiso   1.00
C278   C     0.35770   0.36240   0.70040   0.01267  Uiso   1.00
C279   C     0.36030   0.34090   0.66290   0.01267  Uiso   1.00
C280   C     0.31150   0.30210   0.65890   0.01267  Uiso   1.00
C281   C     0.27690   0.28880   0.69960   0.01267  Uiso   1.00
C282   C     0.29730   0.34840   0.73500   0.01267  Uiso   1.00
C283   C     0.27640   0.37280   0.77300   0.01267  Uiso   1.00
C284   C     0.27530   0.38170   0.84270   0.01267  Uiso   1.00
C285   C     0.20710   0.41740   0.84840   0.01267  Uiso   1.00
C286   C     0.17480   0.43160   0.81260   0.01267  Uiso   1.00
C287   C     0.20200   0.41040   0.77440   0.01267  Uiso   1.00
C288   C     0.14590   0.42990   0.73950   0.01267  Uiso   1.00
C289   C     0.28090   0.23050   0.42110   0.01267  Uiso   1.00
C290   C     0.14990   0.25470   0.42010   0.01267  Uiso   1.00
C291   C     0.08280   0.24280   0.39080   0.01267  Uiso   1.00
C292   C     0.96460   0.26540   0.38900   0.01267  Uiso   1.00
C293   C     0.92010   0.29840   0.41440   0.01267  Uiso   1.00
C294   C     0.09700   0.28820   0.44540   0.01267  Uiso   1.00
C295   C     0.16340   0.30580   0.47540   0.01267  Uiso   1.00
C296   C     0.20030   0.36710   0.49910   0.01267  Uiso   1.00
C297   C     0.28230   0.34720   0.52340   0.01267  Uiso   1.00
C298   C     0.29600   0.30380   0.52640   0.01267  Uiso   1.00
C299   C     0.23190   0.28280   0.50260   0.01267  Uiso   1.00
C300   C     0.23140   0.23740   0.51120   0.01267  Uiso   1.00
C301   C     0.39880   0.11290   0.57630   0.01267  Uiso   1.00
C302   C     0.32980   0.09030   0.61170   0.01267  Uiso   1.00
C303   C     0.31220   0.10770   0.65110   0.01267  Uiso   1.00
C304   C     0.26980   0.08400   0.68500   0.01267  Uiso   1.00
C305   C     0.24760   0.04360   0.67740   0.01267  Uiso   1.00
C306   C     0.29760   0.05160   0.60740   0.01267  Uiso   1.00
C307   C     0.30680   0.03070   0.56810   0.01267  Uiso   1.00
C308   C     0.38160   0.96870   0.53150   0.01267  Uiso   1.00
C309   C     0.34760   0.98690   0.49590   0.01267  Uiso   1.00
C310   C     0.28550   0.02700   0.49680   0.01267  Uiso   1.00
C311   C     0.26270   0.04930   0.53250   0.01267  Uiso   1.00
C312   C     0.17690   0.09180   0.53560   0.01267  Uiso   1.00
C313   C     0.80970   0.12380   0.48240   0.01267  Uiso   1.00
C314   C     0.85600   0.09070   0.45190   0.01267  Uiso   1.00
C315   C     0.95680   0.05860   0.45980   0.01267  Uiso   1.00
C316   C     0.99400   0.02520   0.43440   0.01267  Uiso   1.00
C317   C     0.92900   0.02060   0.40300   0.01267  Uiso   1.00
C318   C     0.80620   0.08550   0.41690   0.01267  Uiso   1.00
C319   C     0.71150   0.11680   0.39920   0.01267  Uiso   1.00
C320   C     0.53300   0.12470   0.36910   0.01267  Uiso   1.00
C321   C     0.53370   0.16520   0.36300   0.01267  Uiso   1.00
C322   C     0.62730   0.18270   0.37510   0.01267  Uiso   1.00
C323   C     0.71460   0.15880   0.39400   0.01267  Uiso   1.00
C324   C     0.81440   0.17810   0.40870   0.01267  Uiso   1.00
C325   C     0.82910   0.19620   0.59780   0.01267  Uiso   1.00
C326   C     0.72010   0.20040   0.63760   0.01267  Uiso   1.00
C327   C     0.70120   0.16290   0.65910   0.01267  Uiso   1.00
C328   C     0.61360   0.15890   0.69790   0.01267  Uiso   1.00
C329   C     0.56570   0.19960   0.71120   0.01267  Uiso   1.00
C330   C     0.64570   0.23500   0.65160   0.01267  Uiso   1.00
C331   C     0.64920   0.27300   0.62720   0.01267  Uiso   1.00
C332   C     0.65700   0.34270   0.61830   0.01267  Uiso   1.00
C333   C     0.62450   0.34840   0.58260   0.01267  Uiso   1.00
C334   C     0.60640   0.31260   0.56840   0.01267  Uiso   1.00
C335   C     0.61240   0.27440   0.58960   0.01267  Uiso   1.00
C336   C     0.57580   0.23950   0.57010   0.01267  Uiso   1.00
C337   C     0.43250   0.26950   0.07890   0.01267  Uiso   1.00
C338   C     0.32470   0.24530   0.07990   0.01267  Uiso   1.00
C339   C     0.21640   0.25720   0.10920   0.01267  Uiso   1.00
C340   C     0.11900   0.23460   0.11100   0.01267  Uiso   1.00
C341   C     0.13290   0.20160   0.08560   0.01267  Uiso   1.00
C342   C     0.33060   0.21180   0.05460   0.01267  Uiso   1.00
C343   C     0.44460   0.19420   0.02460   0.01267  Uiso   1.00
C344   C     0.56650   0.13290   0.00090   0.01267  Uiso   1.00
C345   C     0.65290   0.15280   0.97660   0.01267  Uiso   1.00
C346   C     0.62620   0.19620   0.97360   0.01267  Uiso   1.00
C347   C     0.51730   0.21720   0.99740   0.01267  Uiso   1.00
C348   C     0.48000   0.26260   0.98880   0.01267  Uiso   1.00
C349   C     0.58800   0.38710   0.92370   0.01267  Uiso   1.00
C350   C     0.53180   0.40970   0.88830   0.01267  Uiso   1.00
C351   C     0.57100   0.39230   0.84890   0.01267  Uiso   1.00
C352   C     0.53880   0.41600   0.81500   0.01267  Uiso   1.00
C353   C     0.46860   0.45640   0.82260   0.01267  Uiso   1.00
C354   C     0.45660   0.44840   0.89260   0.01267  Uiso   1.00
C355   C     0.40560   0.46930   0.93190   0.01267  Uiso   1.00
C356   C     0.38180   0.53130   0.96850   0.01267  Uiso   1.00
C357   C     0.33040   0.51310   0.00410   0.01267  Uiso   1.00
C358   C     0.30930   0.47300   0.00320   0.01267  Uiso   1.00
C359   C     0.34450   0.45070   0.96750   0.01267  Uiso   1.00
C360   C     0.30430   0.40820   0.96440   0.01267  Uiso   1.00
C361   C     0.91590   0.37620   0.01760   0.01267  Uiso   1.00
C362   C     0.89860   0.40930   0.04810   0.01267  Uiso   1.00
C363   C     0.97520   0.44140   0.04020   0.01267  Uiso   1.00
C364   C     0.95360   0.47480   0.06560   0.01267  Uiso   1.00
C365   C     0.85260   0.47940   0.09700   0.01267  Uiso   1.00
C366   C     0.80860   0.41450   0.08310   0.01267  Uiso   1.00
C367   C     0.72750   0.38320   0.10080   0.01267  Uiso   1.00
C368   C     0.52680   0.37530   0.13090   0.01267  Uiso   1.00
C369   C     0.56190   0.33480   0.13700   0.01267  Uiso   1.00
C370   C     0.68510   0.31730   0.12490   0.01267  Uiso   1.00
C371   C     0.76740   0.34120   0.10600   0.01267  Uiso   1.00
C372   C     0.90120   0.32190   0.09130   0.01267  Uiso   1.00
C373   C     0.12310   0.30380   0.90220   0.01267  Uiso   1.00
C374   C     0.05810   0.29960   0.86240   0.01267  Uiso   1.00
C375   C     0.02320   0.33710   0.84090   0.01267  Uiso   1.00
C376   C     0.97040   0.34110   0.80210   0.01267  Uiso   1.00
C377   C     0.97650   0.30040   0.78880   0.01267  Uiso   1.00
C378   C     0.03230   0.26500   0.84840   0.01267  Uiso   1.00
C379   C     0.04940   0.22700   0.87280   0.01267  Uiso   1.00
C380   C     0.11800   0.15730   0.88170   0.01267  Uiso   1.00
C381   C     0.05550   0.15160   0.91740   0.01267  Uiso   1.00
C382   C     0.98740   0.18740   0.93160   0.01267  Uiso   1.00
C383   C     0.97640   0.22560   0.91040   0.01267  Uiso   1.00
C384   C     0.88540   0.26050   0.92990   0.01267  Uiso   1.00
N1     N     0.71070   0.85840   0.02820   0.01267  Uiso   1.00
N2     N     0.64740   0.93330   0.99110   0.01267  Uiso   1.00
N3     N     0.11360   0.10670   0.05090   0.01267  Uiso   1.00
N4     N     0.28190   0.11320   0.09880   0.01267  Uiso   1.00
N5     N     0.70750   0.05750   0.31030   0.01267  Uiso   1.00
N6     N     0.51220   0.02440   0.34720   0.01267  Uiso   1.00
N7     N     0.01140   0.85540   0.30940   0.01267  Uiso   1.00
N8     N     0.18420   0.80930   0.23570   0.01267  Uiso   1.00
N9     N     0.09730   0.64160   0.47180   0.01267  Uiso   1.00
N10    N     0.07180   0.56670   0.50890   0.01267  Uiso   1.00
N11    N     0.77120   0.39330   0.44910   0.01267  Uiso   1.00
N12    N     0.99390   0.38680   0.40120   0.01267  Uiso   1.00
N13    N     0.57530   0.44250   0.18970   0.01267  Uiso   1.00
N14    N     0.38380   0.47560   0.15280   0.01267  Uiso   1.00
N15    N     0.67620   0.64460   0.19060   0.01267  Uiso   1.00
N16    N     0.72920   0.69070   0.26430   0.01267  Uiso   1.00
N17    N     0.73890   0.97180   0.35840   0.01267  Uiso   1.00
N18    N     0.63850   0.00890   0.43330   0.01267  Uiso   1.00
N19    N     0.16450   0.94910   0.60670   0.01267  Uiso   1.00
N20    N     0.38070   0.90120   0.61320   0.01267  Uiso   1.00
N21    N     0.01780   0.68970   0.55750   0.01267  Uiso   1.00
N22    N     0.85940   0.65280   0.52440   0.01267  Uiso   1.00
N23    N     0.32080   0.69060   0.35540   0.01267  Uiso   1.00
N24    N     0.41990   0.76430   0.30930   0.01267  Uiso   1.00
N25    N     0.56910   0.52820   0.14160   0.01267  Uiso   1.00
N26    N     0.58070   0.49110   0.06670   0.01267  Uiso   1.00
N27    N     0.22030   0.55090   0.89330   0.01267  Uiso   1.00
N28    N     0.39510   0.59880   0.88680   0.01267  Uiso   1.00
N29    N     0.76500   0.81030   0.94250   0.01267  Uiso   1.00
N30    N     0.53660   0.84720   0.97560   0.01267  Uiso   1.00
N31    N     0.86680   0.80940   0.14460   0.01267  Uiso   1.00
N32    N     0.99350   0.73570   0.19070   0.01267  Uiso   1.00
N33    N     0.28930   0.14160   0.97180   0.01267  Uiso   1.00
N34    N     0.35260   0.06670   0.00890   0.01267  Uiso   1.00
N35    N     0.88640   0.89330   0.94910   0.01267  Uiso   1.00
N36    N     0.71810   0.88680   0.90120   0.01267  Uiso   1.00
N37    N     0.29250   0.94250   0.68970   0.01267  Uiso   1.00
N38    N     0.48780   0.97560   0.65280   0.01267  Uiso   1.00
N39    N     0.98860   0.14460   0.69060   0.01267  Uiso   1.00
N40    N     0.81580   0.19070   0.76430   0.01267  Uiso   1.00
N41    N     0.90270   0.35840   0.52820   0.01267  Uiso   1.00
N42    N     0.92820   0.43330   0.49110   0.01267  Uiso   1.00
N43    N     0.22880   0.60670   0.55090   0.01267  Uiso   1.00
N44    N     0.00610   0.61320   0.59880   0.01267  Uiso   1.00
N45    N     0.42470   0.55750   0.81030   0.01267  Uiso   1.00
N46    N     0.61620   0.52440   0.84720   0.01267  Uiso   1.00
N47    N     0.32380   0.35540   0.80940   0.01267  Uiso   1.00
N48    N     0.27080   0.30930   0.73570   0.01267  Uiso   1.00
N49    N     0.26110   0.02820   0.64160   0.01267  Uiso   1.00
N50    N     0.36150   0.99110   0.56670   0.01267  Uiso   1.00
N51    N     0.83550   0.05090   0.39330   0.01267  Uiso   1.00
N52    N     0.61930   0.09880   0.38680   0.01267  Uiso   1.00
N53    N     0.98220   0.31030   0.44250   0.01267  Uiso   1.00
N54    N     0.14060   0.34720   0.47560   0.01267  Uiso   1.00
N55    N     0.67920   0.30940   0.64460   0.01267  Uiso   1.00
N56    N     0.58010   0.23570   0.69070   0.01267  Uiso   1.00
N57    N     0.43090   0.47180   0.85840   0.01267  Uiso   1.00
N58    N     0.41930   0.50890   0.93330   0.01267  Uiso   1.00
N59    N     0.77970   0.44910   0.10670   0.01267  Uiso   1.00
N60    N     0.60490   0.40120   0.11320   0.01267  Uiso   1.00
N61    N     0.23500   0.18970   0.05750   0.01267  Uiso   1.00
N62    N     0.46340   0.15280   0.02440   0.01267  Uiso   1.00
N63    N     0.13320   0.19060   0.85540   0.01267  Uiso   1.00
N64    N     0.00650   0.26430   0.80930   0.01267  Uiso   1.00
O1     O     0.51784   0.07664   0.19208   0.01267  Uiso   1.00
O2     O     0.38092   0.07865   0.25091   0.01267  Uiso   1.00
O3     O     0.64383   0.99208   0.22446   0.01267  Uiso   1.00
O4     O     0.45773   0.97674   0.21680   0.01267  Uiso   1.00
O5     O     0.47649   0.92236   0.15166   0.01267  Uiso   1.00
O6     O     0.43060   0.94970   0.09310   0.01267  Uiso   1.00
O7     O     0.83519   0.94347   0.09435   0.01267  Uiso   1.00
O8     O     0.66303   0.98556   0.12078   0.01267  Uiso   1.00
O9     O     0.91106   0.09994   0.16014   0.01267  Uiso   1.00
O10    O     0.00890   0.07170   0.21110   0.01267  Uiso   1.00
O11    O     0.98447   0.99600   0.13306   0.01267  Uiso   1.00
O12    O     0.16621   0.01473   0.13965   0.01267  Uiso   1.00
O13    O     0.13150   0.96240   0.22600   0.01267  Uiso   1.00
O14    O     0.29380   0.91540   0.22560   0.01267  Uiso   1.00
O15    O     0.98090   0.91780   0.16340   0.01267  Uiso   1.00
O16    O     0.89080   0.91170   0.22670   0.01267  Uiso   1.00
O17    O     0.28656   0.42336   0.30792   0.01267  Uiso   1.00
O18    O     0.21048   0.42135   0.24909   0.01267  Uiso   1.00
O19    O     0.36037   0.50792   0.27554   0.01267  Uiso   1.00
O20    O     0.15127   0.52326   0.28320   0.01267  Uiso   1.00
O21    O     0.05051   0.57764   0.34834   0.01267  Uiso   1.00
O22    O     0.97340   0.55030   0.40690   0.01267  Uiso   1.00
O23    O     0.37301   0.55653   0.40565   0.01267  Uiso   1.00
O24    O     0.26937   0.51444   0.37922   0.01267  Uiso   1.00
O25    O     0.67114   0.40006   0.33986   0.01267  Uiso   1.00
O26    O     0.79170   0.42830   0.28890   0.01267  Uiso   1.00
O27    O     0.61353   0.50400   0.36694   0.01267  Uiso   1.00
O28    O     0.82059   0.48527   0.36035   0.01267  Uiso   1.00
O29    O     0.81990   0.53760   0.27400   0.01267  Uiso   1.00
O30    O     0.93480   0.58460   0.27440   0.01267  Uiso   1.00
O31    O     0.56210   0.58220   0.33660   0.01267  Uiso   1.00
O32    O     0.52920   0.58830   0.27330   0.01267  Uiso   1.00
O33    O     0.70992   0.80792   0.57664   0.01267  Uiso   1.00
O34    O     0.63183   0.74909   0.57865   0.01267  Uiso   1.00
O35    O     0.86829   0.77554   0.49208   0.01267  Uiso   1.00
O36    O     0.67453   0.78320   0.47674   0.01267  Uiso   1.00
O37    O     0.62815   0.84834   0.42236   0.01267  Uiso   1.00
O38    O     0.52370   0.90690   0.44970   0.01267  Uiso   1.00
O39    O     0.92954   0.90565   0.44347   0.01267  Uiso   1.00
O40    O     0.78381   0.87922   0.48556   0.01267  Uiso   1.00
O41    O     0.07120   0.83986   0.59994   0.01267  Uiso   1.00
O42    O     0.22000   0.78890   0.57170   0.01267  Uiso   1.00
O43    O     0.11753   0.86694   0.49600   0.01267  Uiso   1.00
O44    O     0.30586   0.86035   0.51473   0.01267  Uiso   1.00
O45    O     0.35750   0.77400   0.46240   0.01267  Uiso   1.00
O46    O     0.51940   0.77440   0.41540   0.01267  Uiso   1.00
O47    O     0.14430   0.83660   0.41780   0.01267  Uiso   1.00
O48    O     0.11750   0.77330   0.41170   0.01267  Uiso   1.00
O49    O     0.59448   0.69208   0.92336   0.01267  Uiso   1.00
O50    O     0.45957   0.75091   0.92135   0.01267  Uiso   1.00
O51    O     0.63591   0.72446   0.00792   0.01267  Uiso   1.00
O52    O     0.43447   0.71680   0.02326   0.01267  Uiso   1.00
O53    O     0.39885   0.65166   0.07764   0.01267  Uiso   1.00
O54    O     0.38030   0.59310   0.05030   0.01267  Uiso   1.00
O55    O     0.77866   0.59435   0.05653   0.01267  Uiso   1.00
O56    O     0.64859   0.62078   0.01444   0.01267  Uiso   1.00
O57    O     0.01100   0.66014   0.90006   0.01267  Uiso   1.00
O58    O     0.08060   0.71110   0.92830   0.01267  Uiso   1.00
O59    O     0.98047   0.63306   0.00400   0.01267  Uiso   1.00
O60    O     0.18094   0.63965   0.98527   0.01267  Uiso   1.00
O61    O     0.09390   0.72600   0.03760   0.01267  Uiso   1.00
O62    O     0.20920   0.72560   0.08460   0.01267  Uiso   1.00
O63    O     0.89870   0.66340   0.08220   0.01267  Uiso   1.00
O64    O     0.80250   0.72670   0.08830   0.01267  Uiso   1.00
O65    O     0.48216   0.92336   0.80792   0.01267  Uiso   1.00
O66    O     0.61908   0.92135   0.74909   0.01267  Uiso   1.00
O67    O     0.35617   0.00792   0.77554   0.01267  Uiso   1.00
O68    O     0.54227   0.02326   0.78320   0.01267  Uiso   1.00
O69    O     0.52351   0.07764   0.84834   0.01267  Uiso   1.00
O70    O     0.56940   0.05030   0.90690   0.01267  Uiso   1.00
O71    O     0.16481   0.05653   0.90565   0.01267  Uiso   1.00
O72    O     0.33697   0.01444   0.87922   0.01267  Uiso   1.00
O73    O     0.08894   0.90006   0.83986   0.01267  Uiso   1.00
O74    O     0.99110   0.92830   0.78890   0.01267  Uiso   1.00
O75    O     0.01553   0.00400   0.86694   0.01267  Uiso   1.00
O76    O     0.83379   0.98527   0.86035   0.01267  Uiso   1.00
O77    O     0.86850   0.03760   0.77400   0.01267  Uiso   1.00
O78    O     0.70620   0.08460   0.77440   0.01267  Uiso   1.00
O79    O     0.01910   0.08220   0.83660   0.01267  Uiso   1.00
O80    O     0.10920   0.08830   0.77330   0.01267  Uiso   1.00
O81    O     0.71344   0.57664   0.69208   0.01267  Uiso   1.00
O82    O     0.78952   0.57865   0.75091   0.01267  Uiso   1.00
O83    O     0.63963   0.49208   0.72446   0.01267  Uiso   1.00
O84    O     0.84873   0.47674   0.71680   0.01267  Uiso   1.00
O85    O     0.94949   0.42236   0.65166   0.01267  Uiso   1.00
O86    O     0.02660   0.44970   0.59310   0.01267  Uiso   1.00
O87    O     0.62699   0.44347   0.59435   0.01267  Uiso   1.00
O88    O     0.73063   0.48556   0.62078   0.01267  Uiso   1.00
O89    O     0.32886   0.59994   0.66014   0.01267  Uiso   1.00
O90    O     0.20830   0.57170   0.71110   0.01267  Uiso   1.00
O91    O     0.38647   0.49600   0.63306   0.01267  Uiso   1.00
O92    O     0.17941   0.51473   0.63965   0.01267  Uiso   1.00
O93    O     0.18010   0.46240   0.72600   0.01267  Uiso   1.00
O94    O     0.06520   0.41540   0.72560   0.01267  Uiso   1.00
O95    O     0.43790   0.41780   0.66340   0.01267  Uiso   1.00
O96    O     0.47080   0.41170   0.72670   0.01267  Uiso   1.00
O97    O     0.29008   0.19208   0.42336   0.01267  Uiso   1.00
O98    O     0.36817   0.25091   0.42135   0.01267  Uiso   1.00
O99    O     0.13171   0.22446   0.50792   0.01267  Uiso   1.00
O100   O     0.32547   0.21680   0.52326   0.01267  Uiso   1.00
O101   O     0.37185   0.15166   0.57764   0.01267  Uiso   1.00
O102   O     0.47630   0.09310   0.55030   0.01267  Uiso   1.00
O103   O     0.07046   0.09435   0.55653   0.01267  Uiso   1.00
O104   O     0.21619   0.12078   0.51444   0.01267  Uiso   1.00
O105   O     0.92880   0.16014   0.40006   0.01267  Uiso   1.00
O106   O     0.78000   0.21110   0.42830   0.01267  Uiso   1.00
O107   O     0.88247   0.13306   0.50400   0.01267  Uiso   1.00
O108   O     0.69414   0.13965   0.48527   0.01267  Uiso   1.00
O109   O     0.64250   0.22600   0.53760   0.01267  Uiso   1.00
O110   O     0.48060   0.22560   0.58460   0.01267  Uiso   1.00
O111   O     0.85570   0.16340   0.58220   0.01267  Uiso   1.00
O112   O     0.88250   0.22670   0.58830   0.01267  Uiso   1.00
O113   O     0.40552   0.30792   0.07664   0.01267  Uiso   1.00
O114   O     0.54043   0.24909   0.07865   0.01267  Uiso   1.00
O115   O     0.36409   0.27554   0.99208   0.01267  Uiso   1.00
O116   O     0.56553   0.28320   0.97674   0.01267  Uiso   1.00
O117   O     0.60115   0.34834   0.92236   0.01267  Uiso   1.00
O118   O     0.61970   0.40690   0.94970   0.01267  Uiso   1.00
O119   O     0.22134   0.40565   0.94347   0.01267  Uiso   1.00
O120   O     0.35141   0.37922   0.98556   0.01267  Uiso   1.00
O121   O     0.98900   0.33986   0.09994   0.01267  Uiso   1.00
O122   O     0.91940   0.28890   0.07170   0.01267  Uiso   1.00
O123   O     0.01953   0.36694   0.99600   0.01267  Uiso   1.00
O124   O     0.81906   0.36035   0.01473   0.01267  Uiso   1.00
O125   O     0.90610   0.27400   0.96240   0.01267  Uiso   1.00
O126   O     0.79080   0.27440   0.91540   0.01267  Uiso   1.00
O127   O     0.10130   0.33660   0.91780   0.01267  Uiso   1.00
O128   O     0.19750   0.27330   0.91170   0.01267  Uiso   1.00
