data_MIFROK_clean
_audit_creation_date              2014-07-02
_audit_creation_method            'Materials Studio'
_symmetry_space_group_name_H-M    'P1'
_symmetry_Int_Tables_number       1
_symmetry_cell_setting            triclinic
loop_
_symmetry_equiv_pos_as_xyz
  x,y,z
_cell_length_a                    11.3254
_cell_length_b                    33.0426
_cell_length_c                    33.0426
_cell_angle_alpha                 88.3170
_cell_angle_beta                  80.1322
_cell_angle_gamma                 80.1322
loop_
_atom_site_label
_atom_site_type_symbol
_atom_site_fract_x
_atom_site_fract_y
_atom_site_fract_z
_atom_site_U_iso_or_equiv
_atom_site_adp_type
_atom_site_occupancy
La1    La    0.45958   0.32900   0.52940   0.01267  Uiso   1.00
La2    La    0.96598   0.32773   0.52619   0.01267  Uiso   1.00
La3    La    0.81798   0.17100   0.97060   0.01267  Uiso   1.00
La4    La    0.31990   0.17227   0.97381   0.01267  Uiso   1.00
La5    La    0.98898   0.47060   0.82900   0.01267  Uiso   1.00
La6    La    0.49217   0.47381   0.82773   0.01267  Uiso   1.00
La7    La    0.78858   0.02940   0.67100   0.01267  Uiso   1.00
La8    La    0.29371   0.02619   0.67227   0.01267  Uiso   1.00
La9    La    0.54042   0.67100   0.47060   0.01267  Uiso   1.00
La10   La    0.03402   0.67227   0.47381   0.01267  Uiso   1.00
La11   La    0.18202   0.82900   0.02940   0.01267  Uiso   1.00
La12   La    0.68010   0.82773   0.02619   0.01267  Uiso   1.00
La13   La    0.01102   0.52940   0.17100   0.01267  Uiso   1.00
La14   La    0.50783   0.52619   0.17227   0.01267  Uiso   1.00
La15   La    0.21142   0.97060   0.32900   0.01267  Uiso   1.00
La16   La    0.70629   0.97381   0.32773   0.01267  Uiso   1.00
Co1    Co    0.95453   0.46281   0.37025   0.01267  Uiso   1.00
Co2    Co    0.28759   0.03719   0.12975   0.01267  Uiso   1.00
Co3    Co    0.32478   0.62975   0.96281   0.01267  Uiso   1.00
Co4    Co    0.41734   0.87025   0.53719   0.01267  Uiso   1.00
Co5    Co    0.04547   0.53719   0.62975   0.01267  Uiso   1.00
Co6    Co    0.71241   0.96281   0.87025   0.01267  Uiso   1.00
Co7    Co    0.67522   0.37025   0.03719   0.01267  Uiso   1.00
Co8    Co    0.58266   0.12975   0.46281   0.01267  Uiso   1.00
H1     H     0.74030   0.18880   0.41280   0.01267  Uiso   1.00
H2     H     0.70720   0.24380   0.37120   0.01267  Uiso   1.00
H3     H     0.50960   0.28020   0.37400   0.01267  Uiso   1.00
H4     H     0.12130   0.20890   0.54270   0.01267  Uiso   1.00
H5     H     0.15140   0.13770   0.53790   0.01267  Uiso   1.00
H6     H     0.32320   0.10430   0.49850   0.01267  Uiso   1.00
H7     H     0.08370   0.47470   0.70230   0.01267  Uiso   1.00
H8     H     0.04750   0.40770   0.71430   0.01267  Uiso   1.00
H9     H     0.03230   0.36850   0.65890   0.01267  Uiso   1.00
H10    H     0.25760   0.46270   0.47430   0.01267  Uiso   1.00
H11    H     0.15110   0.52840   0.47320   0.01267  Uiso   1.00
H12    H     0.04420   0.55850   0.53390   0.01267  Uiso   1.00
H13    H     0.67260   0.50210   0.38410   0.01267  Uiso   1.00
H14    H     0.50950   0.49490   0.43430   0.01267  Uiso   1.00
H15    H     0.52980   0.43930   0.47890   0.01267  Uiso   1.00
H16    H     0.00110   0.28970   0.37210   0.01267  Uiso   1.00
H17    H     0.17450   0.31850   0.35350   0.01267  Uiso   1.00
H18    H     0.16190   0.38800   0.36040   0.01267  Uiso   1.00
H19    H     0.87320   0.18690   0.54430   0.01267  Uiso   1.00
H20    H     0.80550   0.12970   0.57530   0.01267  Uiso   1.00
H21    H     0.68600   0.13670   0.63710   0.01267  Uiso   1.00
H22    H     0.60210   0.36430   0.65590   0.01267  Uiso   1.00
H23    H     0.68230   0.35870   0.71790   0.01267  Uiso   1.00
H24    H     0.74270   0.29390   0.74090   0.01267  Uiso   1.00
H25    H     0.84190   0.31120   0.08720   0.01267  Uiso   1.00
H26    H     0.82220   0.25620   0.12880   0.01267  Uiso   1.00
H27    H     0.66380   0.21980   0.12600   0.01267  Uiso   1.00
H28    H     0.37290   0.29110   0.95730   0.01267  Uiso   1.00
H29    H     0.32700   0.36230   0.96210   0.01267  Uiso   1.00
H30    H     0.42600   0.39570   0.00150   0.01267  Uiso   1.00
H31    H     0.76070   0.02530   0.79770   0.01267  Uiso   1.00
H32    H     0.66950   0.09230   0.78570   0.01267  Uiso   1.00
H33    H     0.55970   0.13150   0.84110   0.01267  Uiso   1.00
H34    H     0.69460   0.03730   0.02570   0.01267  Uiso   1.00
H35    H     0.65270   0.97160   0.02680   0.01267  Uiso   1.00
H36    H     0.63660   0.94150   0.96610   0.01267  Uiso   1.00
H37    H     0.05880   0.99790   0.11590   0.01267  Uiso   1.00
H38    H     0.93870   0.00510   0.06570   0.01267  Uiso   1.00
H39    H     0.94800   0.06070   0.02110   0.01267  Uiso   1.00
H40    H     0.16290   0.21030   0.12790   0.01267  Uiso   1.00
H41    H     0.34650   0.18150   0.14650   0.01267  Uiso   1.00
H42    H     0.41030   0.11200   0.13960   0.01267  Uiso   1.00
H43    H     0.10440   0.31310   0.95570   0.01267  Uiso   1.00
H44    H     0.01050   0.37030   0.92470   0.01267  Uiso   1.00
H45    H     0.95980   0.36330   0.86290   0.01267  Uiso   1.00
H46    H     0.12230   0.13570   0.84410   0.01267  Uiso   1.00
H47    H     0.25890   0.14130   0.78210   0.01267  Uiso   1.00
H48    H     0.27750   0.20610   0.75910   0.01267  Uiso   1.00
H49    H     0.15310   0.58720   0.68880   0.01267  Uiso   1.00
H50    H     0.07840   0.62880   0.74380   0.01267  Uiso   1.00
H51    H     0.88360   0.62600   0.78020   0.01267  Uiso   1.00
H52    H     0.66400   0.45730   0.70890   0.01267  Uiso   1.00
H53    H     0.68930   0.46210   0.63770   0.01267  Uiso   1.00
H54    H     0.82170   0.50150   0.60430   0.01267  Uiso   1.00
H55    H     0.78600   0.29770   0.97470   0.01267  Uiso   1.00
H56    H     0.76180   0.28570   0.90770   0.01267  Uiso   1.00
H57    H     0.69120   0.34110   0.86850   0.01267  Uiso   1.00
H58    H     0.73190   0.52570   0.96270   0.01267  Uiso   1.00
H59    H     0.62430   0.52680   0.02840   0.01267  Uiso   1.00
H60    H     0.57810   0.46610   0.05850   0.01267  Uiso   1.00
H61    H     0.05670   0.61590   0.00210   0.01267  Uiso   1.00
H62    H     0.94380   0.56570   0.99490   0.01267  Uiso   1.00
H63    H     0.00870   0.52110   0.93930   0.01267  Uiso   1.00
H64    H     0.37320   0.62790   0.78970   0.01267  Uiso   1.00
H65    H     0.52800   0.64650   0.81850   0.01267  Uiso   1.00
H66    H     0.52230   0.63960   0.88800   0.01267  Uiso   1.00
H67    H     0.41750   0.45570   0.68690   0.01267  Uiso   1.00
H68    H     0.38080   0.42470   0.62970   0.01267  Uiso   1.00
H69    H     0.32310   0.36290   0.63670   0.01267  Uiso   1.00
H70    H     0.25800   0.34410   0.86430   0.01267  Uiso   1.00
H71    H     0.40020   0.28210   0.85870   0.01267  Uiso   1.00
H72    H     0.48360   0.25910   0.79390   0.01267  Uiso   1.00
H73    H     0.92910   0.91280   0.81120   0.01267  Uiso   1.00
H74    H     0.95100   0.87120   0.75620   0.01267  Uiso   1.00
H75    H     0.78980   0.87400   0.71980   0.01267  Uiso   1.00
H76    H     0.33020   0.04270   0.79110   0.01267  Uiso   1.00
H77    H     0.28910   0.03790   0.86230   0.01267  Uiso   1.00
H78    H     0.42750   0.99850   0.89570   0.01267  Uiso   1.00
H79    H     0.55840   0.20230   0.52530   0.01267  Uiso   1.00
H80    H     0.45520   0.21430   0.59230   0.01267  Uiso   1.00
H81    H     0.40080   0.15890   0.63150   0.01267  Uiso   1.00
H82    H     0.72030   0.97430   0.53730   0.01267  Uiso   1.00
H83    H     0.67950   0.97320   0.47160   0.01267  Uiso   1.00
H84    H     0.60270   0.03390   0.44150   0.01267  Uiso   1.00
H85    H     0.17470   0.88410   0.49790   0.01267  Uiso   1.00
H86    H     0.00440   0.93430   0.50510   0.01267  Uiso   1.00
H87    H     0.96910   0.97890   0.56070   0.01267  Uiso   1.00
H88    H     0.29080   0.87210   0.71030   0.01267  Uiso   1.00
H89    H     0.49300   0.85350   0.68150   0.01267  Uiso   1.00
H90    H     0.54990   0.86040   0.61200   0.01267  Uiso   1.00
H91    H     0.06010   0.04430   0.81310   0.01267  Uiso   1.00
H92    H     0.93520   0.07530   0.87030   0.01267  Uiso   1.00
H93    H     0.82270   0.13710   0.86330   0.01267  Uiso   1.00
H94    H     0.96640   0.15590   0.63570   0.01267  Uiso   1.00
H95    H     0.04100   0.21790   0.64130   0.01267  Uiso   1.00
H96    H     0.03660   0.24090   0.70610   0.01267  Uiso   1.00
H97    H     0.25970   0.81120   0.58720   0.01267  Uiso   1.00
H98    H     0.29280   0.75620   0.62880   0.01267  Uiso   1.00
H99    H     0.49040   0.71980   0.62600   0.01267  Uiso   1.00
H100   H     0.87870   0.79110   0.45730   0.01267  Uiso   1.00
H101   H     0.84860   0.86230   0.46210   0.01267  Uiso   1.00
H102   H     0.67680   0.89570   0.50150   0.01267  Uiso   1.00
H103   H     0.91630   0.52530   0.29770   0.01267  Uiso   1.00
H104   H     0.95250   0.59230   0.28570   0.01267  Uiso   1.00
H105   H     0.96770   0.63150   0.34110   0.01267  Uiso   1.00
H106   H     0.74240   0.53730   0.52570   0.01267  Uiso   1.00
H107   H     0.84890   0.47160   0.52680   0.01267  Uiso   1.00
H108   H     0.95580   0.44150   0.46610   0.01267  Uiso   1.00
H109   H     0.32740   0.49790   0.61590   0.01267  Uiso   1.00
H110   H     0.49050   0.50510   0.56570   0.01267  Uiso   1.00
H111   H     0.47020   0.56070   0.52110   0.01267  Uiso   1.00
H112   H     0.99890   0.71030   0.62790   0.01267  Uiso   1.00
H113   H     0.82550   0.68150   0.64650   0.01267  Uiso   1.00
H114   H     0.83810   0.61200   0.63960   0.01267  Uiso   1.00
H115   H     0.12680   0.81310   0.45570   0.01267  Uiso   1.00
H116   H     0.19450   0.87030   0.42470   0.01267  Uiso   1.00
H117   H     0.31400   0.86330   0.36290   0.01267  Uiso   1.00
H118   H     0.39790   0.63570   0.34410   0.01267  Uiso   1.00
H119   H     0.31770   0.64130   0.28210   0.01267  Uiso   1.00
H120   H     0.25730   0.70610   0.25910   0.01267  Uiso   1.00
H121   H     0.15810   0.68880   0.91280   0.01267  Uiso   1.00
H122   H     0.17780   0.74380   0.87120   0.01267  Uiso   1.00
H123   H     0.33620   0.78020   0.87400   0.01267  Uiso   1.00
H124   H     0.62710   0.70890   0.04270   0.01267  Uiso   1.00
H125   H     0.67300   0.63770   0.03790   0.01267  Uiso   1.00
H126   H     0.57400   0.60430   0.99850   0.01267  Uiso   1.00
H127   H     0.23930   0.97470   0.20230   0.01267  Uiso   1.00
H128   H     0.33050   0.90770   0.21430   0.01267  Uiso   1.00
H129   H     0.44030   0.86850   0.15890   0.01267  Uiso   1.00
H130   H     0.30540   0.96270   0.97430   0.01267  Uiso   1.00
H131   H     0.34730   0.02840   0.97320   0.01267  Uiso   1.00
H132   H     0.36340   0.05850   0.03390   0.01267  Uiso   1.00
H133   H     0.94120   0.00210   0.88410   0.01267  Uiso   1.00
H134   H     0.06130   0.99490   0.93430   0.01267  Uiso   1.00
H135   H     0.05200   0.93930   0.97890   0.01267  Uiso   1.00
H136   H     0.83710   0.78970   0.87210   0.01267  Uiso   1.00
H137   H     0.65350   0.81850   0.85350   0.01267  Uiso   1.00
H138   H     0.58970   0.88800   0.86040   0.01267  Uiso   1.00
H139   H     0.89560   0.68690   0.04430   0.01267  Uiso   1.00
H140   H     0.98950   0.62970   0.07530   0.01267  Uiso   1.00
H141   H     0.04020   0.63670   0.13710   0.01267  Uiso   1.00
H142   H     0.87770   0.86430   0.15590   0.01267  Uiso   1.00
H143   H     0.74110   0.85870   0.21790   0.01267  Uiso   1.00
H144   H     0.72250   0.79390   0.24090   0.01267  Uiso   1.00
H145   H     0.84690   0.41280   0.31120   0.01267  Uiso   1.00
H146   H     0.92160   0.37120   0.25620   0.01267  Uiso   1.00
H147   H     0.11640   0.37400   0.21980   0.01267  Uiso   1.00
H148   H     0.33600   0.54270   0.29110   0.01267  Uiso   1.00
H149   H     0.31070   0.53790   0.36230   0.01267  Uiso   1.00
H150   H     0.17830   0.49850   0.39570   0.01267  Uiso   1.00
H151   H     0.21400   0.70230   0.02530   0.01267  Uiso   1.00
H152   H     0.23820   0.71430   0.09230   0.01267  Uiso   1.00
H153   H     0.30880   0.65890   0.13150   0.01267  Uiso   1.00
H154   H     0.26810   0.47430   0.03730   0.01267  Uiso   1.00
H155   H     0.37570   0.47320   0.97160   0.01267  Uiso   1.00
H156   H     0.42190   0.53390   0.94150   0.01267  Uiso   1.00
H157   H     0.94330   0.38410   0.99790   0.01267  Uiso   1.00
H158   H     0.05620   0.43430   0.00510   0.01267  Uiso   1.00
H159   H     0.99130   0.47890   0.06070   0.01267  Uiso   1.00
H160   H     0.62680   0.37210   0.21030   0.01267  Uiso   1.00
H161   H     0.47200   0.35350   0.18150   0.01267  Uiso   1.00
H162   H     0.47770   0.36040   0.11200   0.01267  Uiso   1.00
H163   H     0.58250   0.54430   0.31310   0.01267  Uiso   1.00
H164   H     0.61920   0.57530   0.37030   0.01267  Uiso   1.00
H165   H     0.67690   0.63710   0.36330   0.01267  Uiso   1.00
H166   H     0.74200   0.65590   0.13570   0.01267  Uiso   1.00
H167   H     0.59980   0.71790   0.14130   0.01267  Uiso   1.00
H168   H     0.51640   0.74090   0.20610   0.01267  Uiso   1.00
H169   H     0.07090   0.08720   0.18880   0.01267  Uiso   1.00
H170   H     0.04900   0.12880   0.24380   0.01267  Uiso   1.00
H171   H     0.21020   0.12600   0.28020   0.01267  Uiso   1.00
H172   H     0.66980   0.95730   0.20890   0.01267  Uiso   1.00
H173   H     0.71090   0.96210   0.13770   0.01267  Uiso   1.00
H174   H     0.57250   0.00150   0.10430   0.01267  Uiso   1.00
H175   H     0.44160   0.79770   0.47470   0.01267  Uiso   1.00
H176   H     0.54480   0.78570   0.40770   0.01267  Uiso   1.00
H177   H     0.59920   0.84110   0.36850   0.01267  Uiso   1.00
H178   H     0.27970   0.02570   0.46270   0.01267  Uiso   1.00
H179   H     0.32050   0.02680   0.52840   0.01267  Uiso   1.00
H180   H     0.39730   0.96610   0.55850   0.01267  Uiso   1.00
H181   H     0.82530   0.11590   0.50210   0.01267  Uiso   1.00
H182   H     0.99560   0.06570   0.49490   0.01267  Uiso   1.00
H183   H     0.03090   0.02110   0.43930   0.01267  Uiso   1.00
H184   H     0.70920   0.12790   0.28970   0.01267  Uiso   1.00
H185   H     0.50700   0.14650   0.31850   0.01267  Uiso   1.00
H186   H     0.45010   0.13960   0.38800   0.01267  Uiso   1.00
H187   H     0.93990   0.95570   0.18690   0.01267  Uiso   1.00
H188   H     0.06480   0.92470   0.12970   0.01267  Uiso   1.00
H189   H     0.17730   0.86290   0.13670   0.01267  Uiso   1.00
H190   H     0.03360   0.84410   0.36430   0.01267  Uiso   1.00
H191   H     0.95900   0.78210   0.35870   0.01267  Uiso   1.00
H192   H     0.96340   0.75910   0.29390   0.01267  Uiso   1.00
C1     C     0.66172   0.20329   0.41447   0.01267  Uiso   1.00
C2     C     0.64281   0.23603   0.38935   0.01267  Uiso   1.00
C3     C     0.52490   0.25792   0.39128   0.01267  Uiso   1.00
C4     C     0.43034   0.24588   0.41944   0.01267  Uiso   1.00
C5     C     0.30333   0.27056   0.42098   0.01267  Uiso   1.00
C6     C     0.45889   0.21196   0.44466   0.01267  Uiso   1.00
C7     C     0.36801   0.19387   0.47491   0.01267  Uiso   1.00
C8     C     0.27245   0.21635   0.50235   0.01267  Uiso   1.00
C9     C     0.26324   0.26128   0.51064   0.01267  Uiso   1.00
C10    C     0.18899   0.19486   0.52556   0.01267  Uiso   1.00
C11    C     0.20742   0.15248   0.52308   0.01267  Uiso   1.00
C12    C     0.30859   0.13286   0.49876   0.01267  Uiso   1.00
C13    C     0.08104   0.45825   0.68027   0.01267  Uiso   1.00
C14    C     0.05760   0.41826   0.68774   0.01267  Uiso   1.00
C15    C     0.04992   0.39488   0.65468   0.01267  Uiso   1.00
C16    C     0.06844   0.41069   0.61483   0.01267  Uiso   1.00
C17    C     0.03978   0.38648   0.58136   0.01267  Uiso   1.00
C18    C     0.09827   0.44967   0.60999   0.01267  Uiso   1.00
C19    C     0.12490   0.46980   0.56900   0.01267  Uiso   1.00
C20    C     0.20156   0.45203   0.53465   0.01267  Uiso   1.00
C21    C     0.28224   0.41006   0.53606   0.01267  Uiso   1.00
C22    C     0.20993   0.47449   0.49825   0.01267  Uiso   1.00
C23    C     0.14855   0.51367   0.49763   0.01267  Uiso   1.00
C24    C     0.08199   0.53118   0.53404   0.01267  Uiso   1.00
C25    C     0.67650   0.47841   0.40019   0.01267  Uiso   1.00
C26    C     0.57980   0.47517   0.43103   0.01267  Uiso   1.00
C27    C     0.59126   0.44162   0.45686   0.01267  Uiso   1.00
C28    C     0.69465   0.41113   0.44997   0.01267  Uiso   1.00
C29    C     0.78105   0.41492   0.41538   0.01267  Uiso   1.00
C30    C     0.71115   0.37819   0.48171   0.01267  Uiso   1.00
C31    C     0.89052   0.38369   0.39947   0.01267  Uiso   1.00
C32    C     0.89050   0.34183   0.39517   0.01267  Uiso   1.00
C33    C     0.78037   0.32167   0.40919   0.01267  Uiso   1.00
C34    C     0.99869   0.31755   0.37647   0.01267  Uiso   1.00
C35    C     0.10122   0.33467   0.36449   0.01267  Uiso   1.00
C36    C     0.09307   0.37620   0.36926   0.01267  Uiso   1.00
C37    C     0.85204   0.26166   0.57186   0.01267  Uiso   1.00
C38    C     0.79738   0.22641   0.59123   0.01267  Uiso   1.00
C39    C     0.82620   0.18885   0.57035   0.01267  Uiso   1.00
C40    C     0.78530   0.15510   0.58830   0.01267  Uiso   1.00
C41    C     0.71460   0.15980   0.62540   0.01267  Uiso   1.00
C42    C     0.72520   0.22890   0.62990   0.01267  Uiso   1.00
C43    C     0.69810   0.26656   0.65504   0.01267  Uiso   1.00
C44    C     0.64030   0.30260   0.64200   0.01267  Uiso   1.00
C45    C     0.58156   0.30864   0.60284   0.01267  Uiso   1.00
C46    C     0.63520   0.33870   0.66530   0.01267  Uiso   1.00
C47    C     0.68030   0.33560   0.70260   0.01267  Uiso   1.00
C48    C     0.72070   0.29690   0.71490   0.01267  Uiso   1.00
C49    C     0.77948   0.29671   0.08553   0.01267  Uiso   1.00
C50    C     0.76819   0.26397   0.11065   0.01267  Uiso   1.00
C51    C     0.67410   0.24208   0.10872   0.01267  Uiso   1.00
C52    C     0.59566   0.25412   0.08056   0.01267  Uiso   1.00
C53    C     0.49487   0.22944   0.07902   0.01267  Uiso   1.00
C54    C     0.61551   0.28804   0.05534   0.01267  Uiso   1.00
C55    C     0.53679   0.30613   0.02509   0.01267  Uiso   1.00
C56    C     0.49115   0.28365   0.99765   0.01267  Uiso   1.00
C57    C     0.53516   0.23872   0.98936   0.01267  Uiso   1.00
C58    C     0.40941   0.30514   0.97444   0.01267  Uiso   1.00
C59    C     0.38298   0.34752   0.97692   0.01267  Uiso   1.00
C60    C     0.44021   0.36714   0.00124   0.01267  Uiso   1.00
C61    C     0.71956   0.04175   0.81973   0.01267  Uiso   1.00
C62    C     0.66360   0.08174   0.81226   0.01267  Uiso   1.00
C63    C     0.59948   0.10512   0.84532   0.01267  Uiso   1.00
C64    C     0.59396   0.08931   0.88517   0.01267  Uiso   1.00
C65    C     0.50762   0.11352   0.91864   0.01267  Uiso   1.00
C66    C     0.65793   0.05033   0.89001   0.01267  Uiso   1.00
C67    C     0.66370   0.03020   0.93100   0.01267  Uiso   1.00
C68    C     0.68824   0.04797   0.96535   0.01267  Uiso   1.00
C69    C     0.72836   0.08994   0.96394   0.01267  Uiso   1.00
C70    C     0.68267   0.02551   0.00175   0.01267  Uiso   1.00
C71    C     0.65985   0.98633   0.00237   0.01267  Uiso   1.00
C72    C     0.64721   0.96882   0.96596   0.01267  Uiso   1.00
C73    C     0.05510   0.02159   0.09981   0.01267  Uiso   1.00
C74    C     0.98600   0.02483   0.06897   0.01267  Uiso   1.00
C75    C     0.98974   0.05838   0.04314   0.01267  Uiso   1.00
C76    C     0.05575   0.08887   0.05003   0.01267  Uiso   1.00
C77    C     0.11135   0.08508   0.08462   0.01267  Uiso   1.00
C78    C     0.07105   0.12181   0.01829   0.01267  Uiso   1.00
C79    C     0.17368   0.11631   0.10053   0.01267  Uiso   1.00
C80    C     0.12750   0.15817   0.10483   0.01267  Uiso   1.00
C81    C     0.01123   0.17833   0.09081   0.01267  Uiso   1.00
C82    C     0.19271   0.18245   0.12353   0.01267  Uiso   1.00
C83    C     0.30038   0.16533   0.13551   0.01267  Uiso   1.00
C84    C     0.33853   0.12380   0.13074   0.01267  Uiso   1.00
C85    C     0.18556   0.23834   0.92814   0.01267  Uiso   1.00
C86    C     0.11502   0.27359   0.90877   0.01267  Uiso   1.00
C87    C     0.08540   0.31115   0.92965   0.01267  Uiso   1.00
C88    C     0.02870   0.34490   0.91170   0.01267  Uiso   1.00
C89    C     0.99980   0.34020   0.87460   0.01267  Uiso   1.00
C90    C     0.08400   0.27110   0.87010   0.01267  Uiso   1.00
C91    C     0.11970   0.23344   0.84496   0.01267  Uiso   1.00
C92    C     0.08490   0.19740   0.85800   0.01267  Uiso   1.00
C93    C     0.99304   0.19136   0.89716   0.01267  Uiso   1.00
C94    C     0.13920   0.16130   0.83470   0.01267  Uiso   1.00
C95    C     0.21850   0.16440   0.79740   0.01267  Uiso   1.00
C96    C     0.23250   0.20310   0.78510   0.01267  Uiso   1.00
C97    C     0.07619   0.58553   0.70329   0.01267  Uiso   1.00
C98    C     0.03216   0.61065   0.73603   0.01267  Uiso   1.00
C99    C     0.91618   0.60872   0.75792   0.01267  Uiso   1.00
C100   C     0.84978   0.58056   0.74588   0.01267  Uiso   1.00
C101   C     0.72431   0.57902   0.77056   0.01267  Uiso   1.00
C102   C     0.90355   0.55534   0.71196   0.01267  Uiso   1.00
C103   C     0.84292   0.52509   0.69387   0.01267  Uiso   1.00
C104   C     0.77480   0.49765   0.71635   0.01267  Uiso   1.00
C105   C     0.77388   0.48936   0.76128   0.01267  Uiso   1.00
C106   C     0.71455   0.47444   0.69486   0.01267  Uiso   1.00
C107   C     0.73050   0.47692   0.65248   0.01267  Uiso   1.00
C108   C     0.80735   0.50124   0.63286   0.01267  Uiso   1.00
C109   C     0.76131   0.31973   0.95825   0.01267  Uiso   1.00
C110   C     0.74534   0.31226   0.91826   0.01267  Uiso   1.00
C111   C     0.70460   0.34532   0.89488   0.01267  Uiso   1.00
C112   C     0.68327   0.38517   0.91069   0.01267  Uiso   1.00
C113   C     0.62114   0.41864   0.88648   0.01267  Uiso   1.00
C114   C     0.70826   0.39001   0.94967   0.01267  Uiso   1.00
C115   C     0.69390   0.43100   0.96980   0.01267  Uiso   1.00
C116   C     0.73621   0.46535   0.95203   0.01267  Uiso   1.00
C117   C     0.81830   0.46394   0.91006   0.01267  Uiso   1.00
C118   C     0.70818   0.50175   0.97449   0.01267  Uiso   1.00
C119   C     0.64618   0.50237   0.01367   0.01267  Uiso   1.00
C120   C     0.61603   0.46596   0.03118   0.01267  Uiso   1.00
C121   C     0.07669   0.59981   0.97841   0.01267  Uiso   1.00
C122   C     0.01083   0.56897   0.97517   0.01267  Uiso   1.00
C123   C     0.04812   0.54314   0.94162   0.01267  Uiso   1.00
C124   C     0.14462   0.55003   0.91113   0.01267  Uiso   1.00
C125   C     0.19643   0.58462   0.91492   0.01267  Uiso   1.00
C126   C     0.19286   0.51829   0.87819   0.01267  Uiso   1.00
C127   C     0.28999   0.60053   0.88369   0.01267  Uiso   1.00
C128   C     0.28567   0.60483   0.84183   0.01267  Uiso   1.00
C129   C     0.18956   0.59081   0.82167   0.01267  Uiso   1.00
C130   C     0.37516   0.62353   0.81755   0.01267  Uiso   1.00
C131   C     0.46571   0.63551   0.83467   0.01267  Uiso   1.00
C132   C     0.46233   0.63074   0.87620   0.01267  Uiso   1.00
C133   C     0.42390   0.42814   0.76166   0.01267  Uiso   1.00
C134   C     0.38861   0.40877   0.72641   0.01267  Uiso   1.00
C135   C     0.39655   0.42965   0.68885   0.01267  Uiso   1.00
C136   C     0.37360   0.41170   0.65510   0.01267  Uiso   1.00
C137   C     0.34000   0.37460   0.65980   0.01267  Uiso   1.00
C138   C     0.35510   0.37010   0.72890   0.01267  Uiso   1.00
C139   C     0.35314   0.34496   0.76656   0.01267  Uiso   1.00
C140   C     0.28230   0.35800   0.80260   0.01267  Uiso   1.00
C141   C     0.18440   0.39716   0.80864   0.01267  Uiso   1.00
C142   C     0.30050   0.33470   0.83870   0.01267  Uiso   1.00
C143   C     0.38290   0.29740   0.83560   0.01267  Uiso   1.00
C144   C     0.43560   0.28510   0.79690   0.01267  Uiso   1.00
C145   C     0.86501   0.91447   0.79671   0.01267  Uiso   1.00
C146   C     0.87884   0.88935   0.76397   0.01267  Uiso   1.00
C147   C     0.78282   0.89128   0.74208   0.01267  Uiso   1.00
C148   C     0.67622   0.91944   0.75412   0.01267  Uiso   1.00
C149   C     0.57389   0.92098   0.72944   0.01267  Uiso   1.00
C150   C     0.67085   0.94466   0.78804   0.01267  Uiso   1.00
C151   C     0.56188   0.97491   0.80613   0.01267  Uiso   1.00
C152   C     0.48880   0.00235   0.78365   0.01267  Uiso   1.00
C153   C     0.52452   0.01064   0.73872   0.01267  Uiso   1.00
C154   C     0.38385   0.02556   0.80514   0.01267  Uiso   1.00
C155   C     0.35990   0.02308   0.84752   0.01267  Uiso   1.00
C156   C     0.44145   0.99876   0.86714   0.01267  Uiso   1.00
C157   C     0.53929   0.18027   0.54175   0.01267  Uiso   1.00
C158   C     0.47586   0.18774   0.58174   0.01267  Uiso   1.00
C159   C     0.44480   0.15468   0.60512   0.01267  Uiso   1.00
C160   C     0.47913   0.11483   0.58931   0.01267  Uiso   1.00
C161   C     0.42626   0.08136   0.61352   0.01267  Uiso   1.00
C162   C     0.54794   0.10999   0.55033   0.01267  Uiso   1.00
C163   C     0.59470   0.06900   0.53020   0.01267  Uiso   1.00
C164   C     0.65359   0.03465   0.54797   0.01267  Uiso   1.00
C165   C     0.69230   0.03606   0.58994   0.01267  Uiso   1.00
C166   C     0.68442   0.99825   0.52551   0.01267  Uiso   1.00
C167   C     0.66222   0.99763   0.48633   0.01267  Uiso   1.00
C168   C     0.61317   0.03404   0.46882   0.01267  Uiso   1.00
C169   C     0.15491   0.90019   0.52159   0.01267  Uiso   1.00
C170   C     0.05497   0.93103   0.52483   0.01267  Uiso   1.00
C171   C     0.03288   0.95686   0.55838   0.01267  Uiso   1.00
C172   C     0.10578   0.94997   0.58887   0.01267  Uiso   1.00
C173   C     0.19597   0.91538   0.58508   0.01267  Uiso   1.00
C174   C     0.08934   0.98171   0.62181   0.01267  Uiso   1.00
C175   C     0.27421   0.89947   0.61631   0.01267  Uiso   1.00
C176   C     0.23233   0.89517   0.65817   0.01267  Uiso   1.00
C177   C     0.10204   0.90919   0.67833   0.01267  Uiso   1.00
C178   C     0.31624   0.87647   0.68245   0.01267  Uiso   1.00
C179   C     0.43589   0.86449   0.66533   0.01267  Uiso   1.00
C180   C     0.46927   0.86926   0.62380   0.01267  Uiso   1.00
C181   C     0.11370   0.07186   0.73834   0.01267  Uiso   1.00
C182   C     0.02379   0.09123   0.77359   0.01267  Uiso   1.00
C183   C     0.01505   0.07035   0.81115   0.01267  Uiso   1.00
C184   C     0.94040   0.08830   0.84490   0.01267  Uiso   1.00
C185   C     0.87440   0.12540   0.84020   0.01267  Uiso   1.00
C186   C     0.95410   0.12990   0.77110   0.01267  Uiso   1.00
C187   C     0.96466   0.15504   0.73344   0.01267  Uiso   1.00
C188   C     0.94290   0.14200   0.69740   0.01267  Uiso   1.00
C189   C     0.89020   0.10284   0.69136   0.01267  Uiso   1.00
C190   C     0.97390   0.16530   0.66130   0.01267  Uiso   1.00
C191   C     0.01590   0.20260   0.66440   0.01267  Uiso   1.00
C192   C     0.01760   0.21490   0.70310   0.01267  Uiso   1.00
C193   C     0.33828   0.79671   0.58553   0.01267  Uiso   1.00
C194   C     0.35719   0.76397   0.61065   0.01267  Uiso   1.00
C195   C     0.47510   0.74208   0.60872   0.01267  Uiso   1.00
C196   C     0.56966   0.75412   0.58056   0.01267  Uiso   1.00
C197   C     0.69667   0.72944   0.57902   0.01267  Uiso   1.00
C198   C     0.54111   0.78804   0.55534   0.01267  Uiso   1.00
C199   C     0.63199   0.80613   0.52509   0.01267  Uiso   1.00
C200   C     0.72755   0.78365   0.49765   0.01267  Uiso   1.00
C201   C     0.73676   0.73872   0.48936   0.01267  Uiso   1.00
C202   C     0.81101   0.80514   0.47444   0.01267  Uiso   1.00
C203   C     0.79258   0.84752   0.47692   0.01267  Uiso   1.00
C204   C     0.69141   0.86714   0.50124   0.01267  Uiso   1.00
C205   C     0.91896   0.54175   0.31973   0.01267  Uiso   1.00
C206   C     0.94240   0.58174   0.31226   0.01267  Uiso   1.00
C207   C     0.95008   0.60512   0.34532   0.01267  Uiso   1.00
C208   C     0.93156   0.58931   0.38517   0.01267  Uiso   1.00
C209   C     0.96022   0.61352   0.41864   0.01267  Uiso   1.00
C210   C     0.90173   0.55033   0.39001   0.01267  Uiso   1.00
C211   C     0.87510   0.53020   0.43100   0.01267  Uiso   1.00
C212   C     0.79844   0.54797   0.46535   0.01267  Uiso   1.00
C213   C     0.71776   0.58994   0.46394   0.01267  Uiso   1.00
C214   C     0.79007   0.52551   0.50175   0.01267  Uiso   1.00
C215   C     0.85145   0.48633   0.50237   0.01267  Uiso   1.00
C216   C     0.91801   0.46882   0.46596   0.01267  Uiso   1.00
C217   C     0.32350   0.52159   0.59981   0.01267  Uiso   1.00
C218   C     0.42020   0.52483   0.56897   0.01267  Uiso   1.00
C219   C     0.40874   0.55838   0.54314   0.01267  Uiso   1.00
C220   C     0.30535   0.58887   0.55003   0.01267  Uiso   1.00
C221   C     0.21895   0.58508   0.58462   0.01267  Uiso   1.00
C222   C     0.28885   0.62181   0.51829   0.01267  Uiso   1.00
C223   C     0.10948   0.61631   0.60053   0.01267  Uiso   1.00
C224   C     0.10950   0.65817   0.60483   0.01267  Uiso   1.00
C225   C     0.21963   0.67833   0.59081   0.01267  Uiso   1.00
C226   C     0.00131   0.68245   0.62353   0.01267  Uiso   1.00
C227   C     0.89878   0.66533   0.63551   0.01267  Uiso   1.00
C228   C     0.90693   0.62380   0.63074   0.01267  Uiso   1.00
C229   C     0.14796   0.73834   0.42814   0.01267  Uiso   1.00
C230   C     0.20262   0.77359   0.40877   0.01267  Uiso   1.00
C231   C     0.17380   0.81115   0.42965   0.01267  Uiso   1.00
C232   C     0.21470   0.84490   0.41170   0.01267  Uiso   1.00
C233   C     0.28540   0.84020   0.37460   0.01267  Uiso   1.00
C234   C     0.27480   0.77110   0.37010   0.01267  Uiso   1.00
C235   C     0.30190   0.73344   0.34496   0.01267  Uiso   1.00
C236   C     0.35970   0.69740   0.35800   0.01267  Uiso   1.00
C237   C     0.41844   0.69136   0.39716   0.01267  Uiso   1.00
C238   C     0.36480   0.66130   0.33470   0.01267  Uiso   1.00
C239   C     0.31970   0.66440   0.29740   0.01267  Uiso   1.00
C240   C     0.27930   0.70310   0.28510   0.01267  Uiso   1.00
C241   C     0.22052   0.70329   0.91447   0.01267  Uiso   1.00
C242   C     0.23181   0.73603   0.88935   0.01267  Uiso   1.00
C243   C     0.32590   0.75792   0.89128   0.01267  Uiso   1.00
C244   C     0.40434   0.74588   0.91944   0.01267  Uiso   1.00
C245   C     0.50513   0.77056   0.92098   0.01267  Uiso   1.00
C246   C     0.38449   0.71196   0.94466   0.01267  Uiso   1.00
C247   C     0.46321   0.69387   0.97491   0.01267  Uiso   1.00
C248   C     0.50885   0.71635   0.00235   0.01267  Uiso   1.00
C249   C     0.46484   0.76128   0.01064   0.01267  Uiso   1.00
C250   C     0.59059   0.69486   0.02556   0.01267  Uiso   1.00
C251   C     0.61702   0.65248   0.02308   0.01267  Uiso   1.00
C252   C     0.55979   0.63286   0.99876   0.01267  Uiso   1.00
C253   C     0.28044   0.95825   0.18027   0.01267  Uiso   1.00
C254   C     0.33640   0.91826   0.18774   0.01267  Uiso   1.00
C255   C     0.40052   0.89488   0.15468   0.01267  Uiso   1.00
C256   C     0.40604   0.91069   0.11483   0.01267  Uiso   1.00
C257   C     0.49238   0.88648   0.08136   0.01267  Uiso   1.00
C258   C     0.34207   0.94967   0.10999   0.01267  Uiso   1.00
C259   C     0.33630   0.96980   0.06900   0.01267  Uiso   1.00
C260   C     0.31176   0.95203   0.03465   0.01267  Uiso   1.00
C261   C     0.27164   0.91006   0.03606   0.01267  Uiso   1.00
C262   C     0.31733   0.97449   0.99825   0.01267  Uiso   1.00
C263   C     0.34015   0.01367   0.99763   0.01267  Uiso   1.00
C264   C     0.35279   0.03118   0.03404   0.01267  Uiso   1.00
C265   C     0.94490   0.97841   0.90019   0.01267  Uiso   1.00
C266   C     0.01400   0.97517   0.93103   0.01267  Uiso   1.00
C267   C     0.01026   0.94162   0.95686   0.01267  Uiso   1.00
C268   C     0.94425   0.91113   0.94997   0.01267  Uiso   1.00
C269   C     0.88865   0.91492   0.91538   0.01267  Uiso   1.00
C270   C     0.92895   0.87819   0.98171   0.01267  Uiso   1.00
C271   C     0.82632   0.88369   0.89947   0.01267  Uiso   1.00
C272   C     0.87250   0.84183   0.89517   0.01267  Uiso   1.00
C273   C     0.98877   0.82167   0.90919   0.01267  Uiso   1.00
C274   C     0.80729   0.81755   0.87647   0.01267  Uiso   1.00
C275   C     0.69962   0.83467   0.86449   0.01267  Uiso   1.00
C276   C     0.66147   0.87620   0.86926   0.01267  Uiso   1.00
C277   C     0.81444   0.76166   0.07186   0.01267  Uiso   1.00
C278   C     0.88498   0.72641   0.09123   0.01267  Uiso   1.00
C279   C     0.91460   0.68885   0.07035   0.01267  Uiso   1.00
C280   C     0.97130   0.65510   0.08830   0.01267  Uiso   1.00
C281   C     0.00020   0.65980   0.12540   0.01267  Uiso   1.00
C282   C     0.91600   0.72890   0.12990   0.01267  Uiso   1.00
C283   C     0.88030   0.76656   0.15504   0.01267  Uiso   1.00
C284   C     0.91510   0.80260   0.14200   0.01267  Uiso   1.00
C285   C     0.00696   0.80864   0.10284   0.01267  Uiso   1.00
C286   C     0.86080   0.83870   0.16530   0.01267  Uiso   1.00
C287   C     0.78150   0.83560   0.20260   0.01267  Uiso   1.00
C288   C     0.76750   0.79690   0.21490   0.01267  Uiso   1.00
C289   C     0.92381   0.41447   0.29671   0.01267  Uiso   1.00
C290   C     0.96784   0.38935   0.26397   0.01267  Uiso   1.00
C291   C     0.08382   0.39128   0.24208   0.01267  Uiso   1.00
C292   C     0.15022   0.41944   0.25412   0.01267  Uiso   1.00
C293   C     0.27569   0.42098   0.22944   0.01267  Uiso   1.00
C294   C     0.09645   0.44466   0.28804   0.01267  Uiso   1.00
C295   C     0.15708   0.47491   0.30613   0.01267  Uiso   1.00
C296   C     0.22520   0.50235   0.28365   0.01267  Uiso   1.00
C297   C     0.22612   0.51064   0.23872   0.01267  Uiso   1.00
C298   C     0.28545   0.52556   0.30514   0.01267  Uiso   1.00
C299   C     0.26950   0.52308   0.34752   0.01267  Uiso   1.00
C300   C     0.19265   0.49876   0.36714   0.01267  Uiso   1.00
C301   C     0.23869   0.68027   0.04175   0.01267  Uiso   1.00
C302   C     0.25466   0.68774   0.08174   0.01267  Uiso   1.00
C303   C     0.29540   0.65468   0.10512   0.01267  Uiso   1.00
C304   C     0.31673   0.61483   0.08931   0.01267  Uiso   1.00
C305   C     0.37886   0.58136   0.11352   0.01267  Uiso   1.00
C306   C     0.29174   0.60999   0.05033   0.01267  Uiso   1.00
C307   C     0.30610   0.56900   0.03020   0.01267  Uiso   1.00
C308   C     0.26379   0.53465   0.04797   0.01267  Uiso   1.00
C309   C     0.18170   0.53606   0.08994   0.01267  Uiso   1.00
C310   C     0.29182   0.49825   0.02551   0.01267  Uiso   1.00
C311   C     0.35382   0.49763   0.98633   0.01267  Uiso   1.00
C312   C     0.38397   0.53404   0.96882   0.01267  Uiso   1.00
C313   C     0.92331   0.40019   0.02159   0.01267  Uiso   1.00
C314   C     0.98917   0.43103   0.02483   0.01267  Uiso   1.00
C315   C     0.95188   0.45686   0.05838   0.01267  Uiso   1.00
C316   C     0.85538   0.44997   0.08887   0.01267  Uiso   1.00
C317   C     0.80357   0.41538   0.08508   0.01267  Uiso   1.00
C318   C     0.80714   0.48171   0.12181   0.01267  Uiso   1.00
C319   C     0.71001   0.39947   0.11631   0.01267  Uiso   1.00
C320   C     0.71433   0.39517   0.15817   0.01267  Uiso   1.00
C321   C     0.81044   0.40919   0.17833   0.01267  Uiso   1.00
C322   C     0.62484   0.37647   0.18245   0.01267  Uiso   1.00
C323   C     0.53429   0.36449   0.16533   0.01267  Uiso   1.00
C324   C     0.53767   0.36926   0.12380   0.01267  Uiso   1.00
C325   C     0.57610   0.57186   0.23834   0.01267  Uiso   1.00
C326   C     0.61139   0.59123   0.27359   0.01267  Uiso   1.00
C327   C     0.60345   0.57035   0.31115   0.01267  Uiso   1.00
C328   C     0.62640   0.58830   0.34490   0.01267  Uiso   1.00
C329   C     0.66000   0.62540   0.34020   0.01267  Uiso   1.00
C330   C     0.64490   0.62990   0.27110   0.01267  Uiso   1.00
C331   C     0.64686   0.65504   0.23344   0.01267  Uiso   1.00
C332   C     0.71770   0.64200   0.19740   0.01267  Uiso   1.00
C333   C     0.81560   0.60284   0.19136   0.01267  Uiso   1.00
C334   C     0.69950   0.66530   0.16130   0.01267  Uiso   1.00
C335   C     0.61710   0.70260   0.16440   0.01267  Uiso   1.00
C336   C     0.56440   0.71490   0.20310   0.01267  Uiso   1.00
C337   C     0.13499   0.08553   0.20329   0.01267  Uiso   1.00
C338   C     0.12116   0.11065   0.23603   0.01267  Uiso   1.00
C339   C     0.21718   0.10872   0.25792   0.01267  Uiso   1.00
C340   C     0.32378   0.08056   0.24588   0.01267  Uiso   1.00
C341   C     0.42611   0.07902   0.27056   0.01267  Uiso   1.00
C342   C     0.32915   0.05534   0.21196   0.01267  Uiso   1.00
C343   C     0.43812   0.02509   0.19387   0.01267  Uiso   1.00
C344   C     0.51120   0.99765   0.21635   0.01267  Uiso   1.00
C345   C     0.47548   0.98936   0.26128   0.01267  Uiso   1.00
C346   C     0.61615   0.97444   0.19486   0.01267  Uiso   1.00
C347   C     0.64010   0.97692   0.15248   0.01267  Uiso   1.00
C348   C     0.55855   0.00124   0.13286   0.01267  Uiso   1.00
C349   C     0.46071   0.81973   0.45825   0.01267  Uiso   1.00
C350   C     0.52414   0.81226   0.41826   0.01267  Uiso   1.00
C351   C     0.55520   0.84532   0.39488   0.01267  Uiso   1.00
C352   C     0.52087   0.88517   0.41069   0.01267  Uiso   1.00
C353   C     0.57374   0.91864   0.38648   0.01267  Uiso   1.00
C354   C     0.45206   0.89001   0.44967   0.01267  Uiso   1.00
C355   C     0.40530   0.93100   0.46980   0.01267  Uiso   1.00
C356   C     0.34641   0.96535   0.45203   0.01267  Uiso   1.00
C357   C     0.30770   0.96394   0.41006   0.01267  Uiso   1.00
C358   C     0.31558   0.00175   0.47449   0.01267  Uiso   1.00
C359   C     0.33778   0.00237   0.51367   0.01267  Uiso   1.00
C360   C     0.38683   0.96596   0.53118   0.01267  Uiso   1.00
C361   C     0.84509   0.09981   0.47841   0.01267  Uiso   1.00
C362   C     0.94503   0.06897   0.47517   0.01267  Uiso   1.00
C363   C     0.96712   0.04314   0.44162   0.01267  Uiso   1.00
C364   C     0.89422   0.05003   0.41113   0.01267  Uiso   1.00
C365   C     0.80403   0.08462   0.41492   0.01267  Uiso   1.00
C366   C     0.91066   0.01829   0.37819   0.01267  Uiso   1.00
C367   C     0.72579   0.10053   0.38369   0.01267  Uiso   1.00
C368   C     0.76767   0.10483   0.34183   0.01267  Uiso   1.00
C369   C     0.89796   0.09081   0.32167   0.01267  Uiso   1.00
C370   C     0.68376   0.12353   0.31755   0.01267  Uiso   1.00
C371   C     0.56411   0.13551   0.33467   0.01267  Uiso   1.00
C372   C     0.53073   0.13074   0.37620   0.01267  Uiso   1.00
C373   C     0.88630   0.92814   0.26166   0.01267  Uiso   1.00
C374   C     0.97621   0.90877   0.22641   0.01267  Uiso   1.00
C375   C     0.98495   0.92965   0.18885   0.01267  Uiso   1.00
C376   C     0.05960   0.91170   0.15510   0.01267  Uiso   1.00
C377   C     0.12560   0.87460   0.15980   0.01267  Uiso   1.00
C378   C     0.04590   0.87010   0.22890   0.01267  Uiso   1.00
C379   C     0.03534   0.84496   0.26656   0.01267  Uiso   1.00
C380   C     0.05710   0.85800   0.30260   0.01267  Uiso   1.00
C381   C     0.10980   0.89716   0.30864   0.01267  Uiso   1.00
C382   C     0.02610   0.83470   0.33870   0.01267  Uiso   1.00
C383   C     0.98410   0.79740   0.33560   0.01267  Uiso   1.00
C384   C     0.98240   0.78510   0.29690   0.01267  Uiso   1.00
N1     N     0.57235   0.19062   0.44188   0.01267  Uiso   1.00
N2     N     0.38898   0.15303   0.47501   0.01267  Uiso   1.00
N3     N     0.09978   0.47336   0.64228   0.01267  Uiso   1.00
N4     N     0.07058   0.51023   0.56901   0.01267  Uiso   1.00
N5     N     0.99121   0.40038   0.38600   0.01267  Uiso   1.00
N6     N     0.77562   0.44949   0.39207   0.01267  Uiso   1.00
N7     N     0.73157   0.26210   0.69256   0.01267  Uiso   1.00
N8     N     0.68040   0.19556   0.64784   0.01267  Uiso   1.00
N9     N     0.70485   0.30938   0.05812   0.01267  Uiso   1.00
N10    N     0.51702   0.34697   0.02499   0.01267  Uiso   1.00
N11    N     0.71542   0.02664   0.85772   0.01267  Uiso   1.00
N12    N     0.64982   0.98977   0.93099   0.01267  Uiso   1.00
N13    N     0.27759   0.09962   0.11400   0.01267  Uiso   1.00
N14    N     0.11718   0.05051   0.10793   0.01267  Uiso   1.00
N15    N     0.18623   0.23790   0.80744   0.01267  Uiso   1.00
N16    N     0.02380   0.30444   0.85216   0.01267  Uiso   1.00
N17    N     0.01423   0.55812   0.69062   0.01267  Uiso   1.00
N18    N     0.86399   0.52499   0.65303   0.01267  Uiso   1.00
N19    N     0.74206   0.35772   0.97336   0.01267  Uiso   1.00
N20    N     0.63959   0.43099   0.01023   0.01267  Uiso   1.00
N21    N     0.37721   0.61400   0.90038   0.01267  Uiso   1.00
N22    N     0.16769   0.60793   0.94949   0.01267  Uiso   1.00
N23    N     0.42413   0.30744   0.76210   0.01267  Uiso   1.00
N24    N     0.32824   0.35216   0.69556   0.01267  Uiso   1.00
N25    N     0.76297   0.94188   0.80938   0.01267  Uiso   1.00
N26    N     0.54201   0.97501   0.84697   0.01267  Uiso   1.00
N27    N     0.57314   0.14228   0.52664   0.01267  Uiso   1.00
N28    N     0.58081   0.06901   0.48977   0.01267  Uiso   1.00
N29    N     0.39159   0.88600   0.59962   0.01267  Uiso   1.00
N30    N     0.22511   0.89207   0.55051   0.01267  Uiso   1.00
N31    N     0.99367   0.19256   0.73790   0.01267  Uiso   1.00
N32    N     0.87596   0.14784   0.80444   0.01267  Uiso   1.00
N33    N     0.42765   0.80938   0.55812   0.01267  Uiso   1.00
N34    N     0.61102   0.84697   0.52499   0.01267  Uiso   1.00
N35    N     0.90022   0.52664   0.35772   0.01267  Uiso   1.00
N36    N     0.92942   0.48977   0.43099   0.01267  Uiso   1.00
N37    N     0.00879   0.59962   0.61400   0.01267  Uiso   1.00
N38    N     0.22438   0.55051   0.60793   0.01267  Uiso   1.00
N39    N     0.26843   0.73790   0.30744   0.01267  Uiso   1.00
N40    N     0.31960   0.80444   0.35216   0.01267  Uiso   1.00
N41    N     0.29515   0.69062   0.94188   0.01267  Uiso   1.00
N42    N     0.48298   0.65303   0.97501   0.01267  Uiso   1.00
N43    N     0.28458   0.97336   0.14228   0.01267  Uiso   1.00
N44    N     0.35018   0.01023   0.06901   0.01267  Uiso   1.00
N45    N     0.72241   0.90038   0.88600   0.01267  Uiso   1.00
N46    N     0.88282   0.94949   0.89207   0.01267  Uiso   1.00
N47    N     0.81377   0.76210   0.19256   0.01267  Uiso   1.00
N48    N     0.97620   0.69556   0.14784   0.01267  Uiso   1.00
N49    N     0.98577   0.44188   0.30938   0.01267  Uiso   1.00
N50    N     0.13601   0.47501   0.34697   0.01267  Uiso   1.00
N51    N     0.25794   0.64228   0.02664   0.01267  Uiso   1.00
N52    N     0.36041   0.56901   0.98977   0.01267  Uiso   1.00
N53    N     0.62279   0.38600   0.09962   0.01267  Uiso   1.00
N54    N     0.83231   0.39207   0.05051   0.01267  Uiso   1.00
N55    N     0.57587   0.69256   0.23790   0.01267  Uiso   1.00
N56    N     0.67176   0.64784   0.30444   0.01267  Uiso   1.00
N57    N     0.23703   0.05812   0.19062   0.01267  Uiso   1.00
N58    N     0.45799   0.02499   0.15303   0.01267  Uiso   1.00
N59    N     0.42686   0.85772   0.47336   0.01267  Uiso   1.00
N60    N     0.41919   0.93099   0.51023   0.01267  Uiso   1.00
N61    N     0.60841   0.11400   0.40038   0.01267  Uiso   1.00
N62    N     0.77489   0.10793   0.44949   0.01267  Uiso   1.00
N63    N     0.00633   0.80744   0.26210   0.01267  Uiso   1.00
N64    N     0.12404   0.85216   0.19556   0.01267  Uiso   1.00
O1     O     0.29314   0.30866   0.42206   0.01267  Uiso   1.00
O2     O     0.21696   0.25064   0.42144   0.01267  Uiso   1.00
O3     O     0.36313   0.27460   0.50634   0.01267  Uiso   1.00
O4     O     0.16095   0.28222   0.52248   0.01267  Uiso   1.00
O5     O     0.06040   0.34738   0.58502   0.01267  Uiso   1.00
O6     O     0.99618   0.40368   0.55216   0.01267  Uiso   1.00
O7     O     0.36129   0.40647   0.55855   0.01267  Uiso   1.00
O8     O     0.27154   0.38185   0.51307   0.01267  Uiso   1.00
O9     O     0.79737   0.28886   0.42880   0.01267  Uiso   1.00
O10    O     0.68070   0.33922   0.39998   0.01267  Uiso   1.00
O11    O     0.54121   0.27945   0.58973   0.01267  Uiso   1.00
O12    O     0.56823   0.34326   0.58828   0.01267  Uiso   1.00
O13    O     0.61823   0.36941   0.50353   0.01267  Uiso   1.00
O14    O     0.81894   0.36333   0.48479   0.01267  Uiso   1.00
O15    O     0.93380   0.27401   0.58619   0.01267  Uiso   1.00
O16    O     0.81371   0.27819   0.54059   0.01267  Uiso   1.00
O17    O     0.52386   0.19134   0.07794   0.01267  Uiso   1.00
O18    O     0.38904   0.24936   0.07856   0.01267  Uiso   1.00
O19    O     0.64407   0.22540   0.99366   0.01267  Uiso   1.00
O20    O     0.46565   0.21778   0.97752   0.01267  Uiso   1.00
O21    O     0.49280   0.15262   0.91498   0.01267  Uiso   1.00
O22    O     0.45202   0.09632   0.94784   0.01267  Uiso   1.00
O23    O     0.82631   0.09353   0.94145   0.01267  Uiso   1.00
O24    O     0.66646   0.11815   0.98693   0.01267  Uiso   1.00
O25    O     0.01503   0.21114   0.07120   0.01267  Uiso   1.00
O26    O     0.91990   0.16078   0.10002   0.01267  Uiso   1.00
O27    O     0.91039   0.22055   0.91027   0.01267  Uiso   1.00
O28    O     0.99977   0.15674   0.91172   0.01267  Uiso   1.00
O29    O     0.99117   0.13059   0.99647   0.01267  Uiso   1.00
O30    O     0.16706   0.13667   0.01521   0.01267  Uiso   1.00
O31    O     0.29400   0.22599   0.91381   0.01267  Uiso   1.00
O32    O     0.13249   0.22181   0.95941   0.01267  Uiso   1.00
O33    O     0.71520   0.57794   0.80866   0.01267  Uiso   1.00
O34    O     0.63840   0.57856   0.75064   0.01267  Uiso   1.00
O35    O     0.86947   0.49366   0.77460   0.01267  Uiso   1.00
O36    O     0.68343   0.47752   0.78222   0.01267  Uiso   1.00
O37    O     0.64542   0.41498   0.84738   0.01267  Uiso   1.00
O38    O     0.54834   0.44784   0.90368   0.01267  Uiso   1.00
O39    O     0.91984   0.44145   0.90647   0.01267  Uiso   1.00
O40    O     0.78461   0.48693   0.88185   0.01267  Uiso   1.00
O41    O     0.22617   0.57120   0.78886   0.01267  Uiso   1.00
O42    O     0.08068   0.60002   0.83922   0.01267  Uiso   1.00
O43    O     0.13094   0.41027   0.77945   0.01267  Uiso   1.00
O44    O     0.15651   0.41172   0.84326   0.01267  Uiso   1.00
O45    O     0.12176   0.49647   0.86941   0.01267  Uiso   1.00
O46    O     0.30373   0.51521   0.86333   0.01267  Uiso   1.00
O47    O     0.51999   0.41381   0.77401   0.01267  Uiso   1.00
O48    O     0.35430   0.45941   0.77819   0.01267  Uiso   1.00
O49    O     0.60180   0.92206   0.69134   0.01267  Uiso   1.00
O50    O     0.46760   0.92144   0.74936   0.01267  Uiso   1.00
O51    O     0.63773   0.00634   0.72540   0.01267  Uiso   1.00
O52    O     0.44317   0.02248   0.71778   0.01267  Uiso   1.00
O53    O     0.40778   0.08502   0.65262   0.01267  Uiso   1.00
O54    O     0.39986   0.05216   0.59632   0.01267  Uiso   1.00
O55    O     0.76776   0.05855   0.59353   0.01267  Uiso   1.00
O56    O     0.65339   0.01307   0.61815   0.01267  Uiso   1.00
O57    O     0.08623   0.92880   0.71114   0.01267  Uiso   1.00
O58    O     0.01992   0.89998   0.66078   0.01267  Uiso   1.00
O59    O     0.82066   0.08973   0.72055   0.01267  Uiso   1.00
O60    O     0.91149   0.08828   0.65674   0.01267  Uiso   1.00
O61    O     0.98764   0.00353   0.63059   0.01267  Uiso   1.00
O62    O     0.18227   0.98479   0.63667   0.01267  Uiso   1.00
O63    O     0.20781   0.08619   0.72599   0.01267  Uiso   1.00
O64    O     0.09190   0.04059   0.72181   0.01267  Uiso   1.00
O65    O     0.70686   0.69134   0.57794   0.01267  Uiso   1.00
O66    O     0.78304   0.74936   0.57856   0.01267  Uiso   1.00
O67    O     0.63687   0.72540   0.49366   0.01267  Uiso   1.00
O68    O     0.83905   0.71778   0.47752   0.01267  Uiso   1.00
O69    O     0.93960   0.65262   0.41498   0.01267  Uiso   1.00
O70    O     0.00382   0.59632   0.44784   0.01267  Uiso   1.00
O71    O     0.63871   0.59353   0.44145   0.01267  Uiso   1.00
O72    O     0.72846   0.61815   0.48693   0.01267  Uiso   1.00
O73    O     0.20263   0.71114   0.57120   0.01267  Uiso   1.00
O74    O     0.31930   0.66078   0.60002   0.01267  Uiso   1.00
O75    O     0.45879   0.72055   0.41027   0.01267  Uiso   1.00
O76    O     0.43177   0.65674   0.41172   0.01267  Uiso   1.00
O77    O     0.38177   0.63059   0.49647   0.01267  Uiso   1.00
O78    O     0.18106   0.63667   0.51521   0.01267  Uiso   1.00
O79    O     0.06620   0.72599   0.41381   0.01267  Uiso   1.00
O80    O     0.18629   0.72181   0.45941   0.01267  Uiso   1.00
O81    O     0.47614   0.80866   0.92206   0.01267  Uiso   1.00
O82    O     0.61096   0.75064   0.92144   0.01267  Uiso   1.00
O83    O     0.35593   0.77460   0.00634   0.01267  Uiso   1.00
O84    O     0.53435   0.78222   0.02248   0.01267  Uiso   1.00
O85    O     0.50720   0.84738   0.08502   0.01267  Uiso   1.00
O86    O     0.54798   0.90368   0.05216   0.01267  Uiso   1.00
O87    O     0.17369   0.90647   0.05855   0.01267  Uiso   1.00
O88    O     0.33354   0.88185   0.01307   0.01267  Uiso   1.00
O89    O     0.98497   0.78886   0.92880   0.01267  Uiso   1.00
O90    O     0.08010   0.83922   0.89998   0.01267  Uiso   1.00
O91    O     0.08961   0.77945   0.08973   0.01267  Uiso   1.00
O92    O     0.00023   0.84326   0.08828   0.01267  Uiso   1.00
O93    O     0.00883   0.86941   0.00353   0.01267  Uiso   1.00
O94    O     0.83294   0.86333   0.98479   0.01267  Uiso   1.00
O95    O     0.70600   0.77401   0.08619   0.01267  Uiso   1.00
O96    O     0.86751   0.77819   0.04059   0.01267  Uiso   1.00
O97    O     0.28480   0.42206   0.19134   0.01267  Uiso   1.00
O98    O     0.36160   0.42144   0.24936   0.01267  Uiso   1.00
O99    O     0.13053   0.50634   0.22540   0.01267  Uiso   1.00
O100   O     0.31657   0.52248   0.21778   0.01267  Uiso   1.00
O101   O     0.35458   0.58502   0.15262   0.01267  Uiso   1.00
O102   O     0.45166   0.55216   0.09632   0.01267  Uiso   1.00
O103   O     0.08016   0.55855   0.09353   0.01267  Uiso   1.00
O104   O     0.21539   0.51307   0.11815   0.01267  Uiso   1.00
O105   O     0.77383   0.42880   0.21114   0.01267  Uiso   1.00
O106   O     0.91932   0.39998   0.16078   0.01267  Uiso   1.00
O107   O     0.86906   0.58973   0.22055   0.01267  Uiso   1.00
O108   O     0.84349   0.58828   0.15674   0.01267  Uiso   1.00
O109   O     0.87824   0.50353   0.13059   0.01267  Uiso   1.00
O110   O     0.69627   0.48479   0.13667   0.01267  Uiso   1.00
O111   O     0.48001   0.58619   0.22599   0.01267  Uiso   1.00
O112   O     0.64570   0.54059   0.22181   0.01267  Uiso   1.00
O113   O     0.39820   0.07794   0.30866   0.01267  Uiso   1.00
O114   O     0.53240   0.07856   0.25064   0.01267  Uiso   1.00
O115   O     0.36227   0.99366   0.27460   0.01267  Uiso   1.00
O116   O     0.55683   0.97752   0.28222   0.01267  Uiso   1.00
O117   O     0.59222   0.91498   0.34738   0.01267  Uiso   1.00
O118   O     0.60014   0.94784   0.40368   0.01267  Uiso   1.00
O119   O     0.23224   0.94145   0.40647   0.01267  Uiso   1.00
O120   O     0.34661   0.98693   0.38185   0.01267  Uiso   1.00
O121   O     0.91377   0.07120   0.28886   0.01267  Uiso   1.00
O122   O     0.98008   0.10002   0.33922   0.01267  Uiso   1.00
O123   O     0.17934   0.91027   0.27945   0.01267  Uiso   1.00
O124   O     0.08851   0.91172   0.34326   0.01267  Uiso   1.00
O125   O     0.01236   0.99647   0.36941   0.01267  Uiso   1.00
O126   O     0.81773   0.01521   0.36333   0.01267  Uiso   1.00
O127   O     0.79219   0.91381   0.27401   0.01267  Uiso   1.00
O128   O     0.90810   0.95941   0.27819   0.01267  Uiso   1.00
