data_MIFSAX_clean
_audit_creation_date              2014-07-02
_audit_creation_method            'Materials Studio'
_symmetry_space_group_name_H-M    'P1'
_symmetry_Int_Tables_number       1
_symmetry_cell_setting            triclinic
loop_
_symmetry_equiv_pos_as_xyz
  x,y,z
_cell_length_a                    11.2367
_cell_length_b                    32.9682
_cell_length_c                    32.9682
_cell_angle_alpha                 88.3357
_cell_angle_beta                  80.1879
_cell_angle_gamma                 80.1877
loop_
_atom_site_label
_atom_site_type_symbol
_atom_site_fract_x
_atom_site_fract_y
_atom_site_fract_z
_atom_site_U_iso_or_equiv
_atom_site_adp_type
_atom_site_occupancy
Pr1    Pr    0.81646   0.97138   0.17134   0.01267  Uiso   1.00
Pr2    Pr    0.31687   0.97408   0.17314   0.01267  Uiso   1.00
Pr3    Pr    0.45918   0.52862   0.32866   0.01267  Uiso   1.00
Pr4    Pr    0.96409   0.52592   0.32686   0.01267  Uiso   1.00
Pr5    Pr    0.98780   0.82866   0.47138   0.01267  Uiso   1.00
Pr6    Pr    0.49002   0.82685   0.47408   0.01267  Uiso   1.00
Pr7    Pr    0.78784   0.67134   0.02862   0.01267  Uiso   1.00
Pr8    Pr    0.29094   0.67315   0.02592   0.01267  Uiso   1.00
Pr9    Pr    0.18354   0.02862   0.82866   0.01267  Uiso   1.00
Pr10   Pr    0.68313   0.02592   0.82686   0.01267  Uiso   1.00
Pr11   Pr    0.54082   0.47138   0.67134   0.01267  Uiso   1.00
Pr12   Pr    0.03591   0.47408   0.67314   0.01267  Uiso   1.00
Pr13   Pr    0.01220   0.17134   0.52862   0.01267  Uiso   1.00
Pr14   Pr    0.50998   0.17315   0.52592   0.01267  Uiso   1.00
Pr15   Pr    0.21216   0.32866   0.97138   0.01267  Uiso   1.00
Pr16   Pr    0.70906   0.32685   0.97408   0.01267  Uiso   1.00
Co1    Co    0.71127   0.87107   0.96359   0.01267  Uiso   1.00
Co2    Co    0.04593   0.62893   0.53641   0.01267  Uiso   1.00
Co3    Co    0.67486   0.03641   0.37107   0.01267  Uiso   1.00
Co4    Co    0.58234   0.46359   0.12893   0.01267  Uiso   1.00
Co5    Co    0.28873   0.12893   0.03641   0.01267  Uiso   1.00
Co6    Co    0.95407   0.37107   0.46359   0.01267  Uiso   1.00
Co7    Co    0.32514   0.96359   0.62893   0.01267  Uiso   1.00
Co8    Co    0.41766   0.53641   0.87107   0.01267  Uiso   1.00
H1     H     0.95980   0.01650   0.05930   0.01267  Uiso   1.00
H2     H     0.93570   0.06390   0.00610   0.01267  Uiso   1.00
H3     H     0.06610   0.11370   0.99670   0.01267  Uiso   1.00
H4     H     0.41440   0.13890   0.11170   0.01267  Uiso   1.00
H5     H     0.34710   0.14820   0.18000   0.01267  Uiso   1.00
H6     H     0.16510   0.12670   0.20970   0.01267  Uiso   1.00
H7     H     0.55540   0.84230   0.13270   0.01267  Uiso   1.00
H8     H     0.66350   0.78740   0.09360   0.01267  Uiso   1.00
H9     H     0.75920   0.79890   0.02670   0.01267  Uiso   1.00
H10    H     0.63590   0.96680   0.94180   0.01267  Uiso   1.00
H11    H     0.65270   0.02830   0.97230   0.01267  Uiso   1.00
H12    H     0.69730   0.02600   0.03800   0.01267  Uiso   1.00
H13    H     0.66700   0.12360   0.21980   0.01267  Uiso   1.00
H14    H     0.82460   0.12810   0.25570   0.01267  Uiso   1.00
H15    H     0.84250   0.08660   0.31300   0.01267  Uiso   1.00
H16    H     0.42380   0.99950   0.39610   0.01267  Uiso   1.00
H17    H     0.31880   0.96260   0.36100   0.01267  Uiso   1.00
H18    H     0.37520   0.95550   0.29030   0.01267  Uiso   1.00
H19    H     0.10210   0.95650   0.31350   0.01267  Uiso   1.00
H20    H     0.01560   0.92540   0.37180   0.01267  Uiso   1.00
H21    H     0.95770   0.86550   0.36330   0.01267  Uiso   1.00
H22    H     0.26820   0.75970   0.20590   0.01267  Uiso   1.00
H23    H     0.26730   0.78550   0.13950   0.01267  Uiso   1.00
H24    H     0.12700   0.84520   0.13400   0.01267  Uiso   1.00
H25    H     0.53560   0.48350   0.44070   0.01267  Uiso   1.00
H26    H     0.50570   0.43610   0.49390   0.01267  Uiso   1.00
H27    H     0.67650   0.38630   0.50330   0.01267  Uiso   1.00
H28    H     0.16500   0.36110   0.38830   0.01267  Uiso   1.00
H29    H     0.17530   0.35180   0.32000   0.01267  Uiso   1.00
H30    H     0.00150   0.37330   0.29030   0.01267  Uiso   1.00
H31    H     0.03040   0.65770   0.36730   0.01267  Uiso   1.00
H32    H     0.04450   0.71260   0.40640   0.01267  Uiso   1.00
H33    H     0.08480   0.70110   0.47330   0.01267  Uiso   1.00
H34    H     0.04450   0.53320   0.55820   0.01267  Uiso   1.00
H35    H     0.15330   0.47170   0.52770   0.01267  Uiso   1.00
H36    H     0.26130   0.47400   0.46200   0.01267  Uiso   1.00
H37    H     0.51040   0.37640   0.28020   0.01267  Uiso   1.00
H38    H     0.70840   0.37190   0.24430   0.01267  Uiso   1.00
H39    H     0.74210   0.41340   0.18700   0.01267  Uiso   1.00
H40    H     0.31940   0.50050   0.10390   0.01267  Uiso   1.00
H41    H     0.14240   0.53740   0.13900   0.01267  Uiso   1.00
H42    H     0.12100   0.54450   0.20970   0.01267  Uiso   1.00
H43    H     0.87210   0.54350   0.18650   0.01267  Uiso   1.00
H44    H     0.81280   0.57460   0.12820   0.01267  Uiso   1.00
H45    H     0.68650   0.63450   0.13670   0.01267  Uiso   1.00
H46    H     0.73380   0.74030   0.29410   0.01267  Uiso   1.00
H47    H     0.69230   0.71450   0.36050   0.01267  Uiso   1.00
H48    H     0.60620   0.65480   0.36600   0.01267  Uiso   1.00
H49    H     0.01910   0.94070   0.51650   0.01267  Uiso   1.00
H50    H     0.94180   0.99390   0.56390   0.01267  Uiso   1.00
H51    H     0.06280   0.00330   0.61370   0.01267  Uiso   1.00
H52    H     0.52610   0.88830   0.63890   0.01267  Uiso   1.00
H53    H     0.52710   0.82000   0.64820   0.01267  Uiso   1.00
H54    H     0.37480   0.79030   0.62670   0.01267  Uiso   1.00
H55    H     0.68810   0.86730   0.34230   0.01267  Uiso   1.00
H56    H     0.75710   0.90640   0.28740   0.01267  Uiso   1.00
H57    H     0.78590   0.97330   0.29890   0.01267  Uiso   1.00
H58    H     0.57770   0.05820   0.46680   0.01267  Uiso   1.00
H59    H     0.62500   0.02770   0.52830   0.01267  Uiso   1.00
H60    H     0.73530   0.96200   0.52600   0.01267  Uiso   1.00
H61    H     0.88680   0.78020   0.62360   0.01267  Uiso   1.00
H62    H     0.08030   0.74430   0.62810   0.01267  Uiso   1.00
H63    H     0.15550   0.68700   0.58660   0.01267  Uiso   1.00
H64    H     0.81990   0.60390   0.49950   0.01267  Uiso   1.00
H65    H     0.67980   0.63900   0.46260   0.01267  Uiso   1.00
H66    H     0.66550   0.70970   0.45550   0.01267  Uiso   1.00
H67    H     0.41560   0.68650   0.45650   0.01267  Uiso   1.00
H68    H     0.38740   0.62820   0.42540   0.01267  Uiso   1.00
H69    H     0.32100   0.63670   0.36550   0.01267  Uiso   1.00
H70    H     0.47410   0.79410   0.25970   0.01267  Uiso   1.00
H71    H     0.40680   0.86050   0.28550   0.01267  Uiso   1.00
H72    H     0.26100   0.86600   0.34520   0.01267  Uiso   1.00
H73    H     0.97630   0.55930   0.98350   0.01267  Uiso   1.00
H74    H     0.99960   0.50610   0.93610   0.01267  Uiso   1.00
H75    H     0.17980   0.49670   0.88630   0.01267  Uiso   1.00
H76    H     0.55330   0.61170   0.86110   0.01267  Uiso   1.00
H77    H     0.49530   0.68000   0.85180   0.01267  Uiso   1.00
H78    H     0.29180   0.70970   0.87330   0.01267  Uiso   1.00
H79    H     0.39770   0.63270   0.15770   0.01267  Uiso   1.00
H80    H     0.45090   0.59360   0.21260   0.01267  Uiso   1.00
H81    H     0.55810   0.52670   0.20110   0.01267  Uiso   1.00
H82    H     0.60270   0.44180   0.03320   0.01267  Uiso   1.00
H83    H     0.68100   0.47230   0.97170   0.01267  Uiso   1.00
H84    H     0.72330   0.53800   0.97400   0.01267  Uiso   1.00
H85    H     0.79060   0.71980   0.87640   0.01267  Uiso   1.00
H86    H     0.95270   0.75570   0.87190   0.01267  Uiso   1.00
H87    H     0.92910   0.81300   0.91340   0.01267  Uiso   1.00
H88    H     0.42330   0.89610   0.00050   0.01267  Uiso   1.00
H89    H     0.28140   0.86100   0.03740   0.01267  Uiso   1.00
H90    H     0.33070   0.79030   0.04450   0.01267  Uiso   1.00
H91    H     0.05860   0.81350   0.04350   0.01267  Uiso   1.00
H92    H     0.94100   0.87180   0.07460   0.01267  Uiso   1.00
H93    H     0.82320   0.86330   0.13450   0.01267  Uiso   1.00
H94    H     0.02790   0.70590   0.24030   0.01267  Uiso   1.00
H95    H     0.05280   0.63950   0.21450   0.01267  Uiso   1.00
H96    H     0.97220   0.63400   0.15480   0.01267  Uiso   1.00
H97    H     0.04020   0.98350   0.94070   0.01267  Uiso   1.00
H98    H     0.06430   0.93610   0.99390   0.01267  Uiso   1.00
H99    H     0.93390   0.88630   0.00330   0.01267  Uiso   1.00
H100   H     0.58560   0.86110   0.88830   0.01267  Uiso   1.00
H101   H     0.65290   0.85180   0.82000   0.01267  Uiso   1.00
H102   H     0.83490   0.87330   0.79030   0.01267  Uiso   1.00
H103   H     0.44460   0.15770   0.86730   0.01267  Uiso   1.00
H104   H     0.33650   0.21260   0.90640   0.01267  Uiso   1.00
H105   H     0.24080   0.20110   0.97330   0.01267  Uiso   1.00
H106   H     0.36410   0.03320   0.05820   0.01267  Uiso   1.00
H107   H     0.34730   0.97170   0.02770   0.01267  Uiso   1.00
H108   H     0.30270   0.97400   0.96200   0.01267  Uiso   1.00
H109   H     0.33300   0.87640   0.78020   0.01267  Uiso   1.00
H110   H     0.17540   0.87190   0.74430   0.01267  Uiso   1.00
H111   H     0.15750   0.91340   0.68700   0.01267  Uiso   1.00
H112   H     0.57620   0.00050   0.60390   0.01267  Uiso   1.00
H113   H     0.68120   0.03740   0.63900   0.01267  Uiso   1.00
H114   H     0.62480   0.04450   0.70970   0.01267  Uiso   1.00
H115   H     0.89790   0.04350   0.68650   0.01267  Uiso   1.00
H116   H     0.98440   0.07460   0.62820   0.01267  Uiso   1.00
H117   H     0.04230   0.13450   0.63670   0.01267  Uiso   1.00
H118   H     0.73180   0.24030   0.79410   0.01267  Uiso   1.00
H119   H     0.73270   0.21450   0.86050   0.01267  Uiso   1.00
H120   H     0.87300   0.15480   0.86600   0.01267  Uiso   1.00
H121   H     0.46440   0.51650   0.55930   0.01267  Uiso   1.00
H122   H     0.49430   0.56390   0.50610   0.01267  Uiso   1.00
H123   H     0.32350   0.61370   0.49670   0.01267  Uiso   1.00
H124   H     0.83500   0.63890   0.61170   0.01267  Uiso   1.00
H125   H     0.82470   0.64820   0.68000   0.01267  Uiso   1.00
H126   H     0.99850   0.62670   0.70970   0.01267  Uiso   1.00
H127   H     0.96960   0.34230   0.63270   0.01267  Uiso   1.00
H128   H     0.95550   0.28740   0.59360   0.01267  Uiso   1.00
H129   H     0.91520   0.29890   0.52670   0.01267  Uiso   1.00
H130   H     0.95550   0.46680   0.44180   0.01267  Uiso   1.00
H131   H     0.84670   0.52830   0.47230   0.01267  Uiso   1.00
H132   H     0.73870   0.52600   0.53800   0.01267  Uiso   1.00
H133   H     0.48960   0.62360   0.71980   0.01267  Uiso   1.00
H134   H     0.29160   0.62810   0.75570   0.01267  Uiso   1.00
H135   H     0.25790   0.58660   0.81300   0.01267  Uiso   1.00
H136   H     0.68060   0.49950   0.89610   0.01267  Uiso   1.00
H137   H     0.85760   0.46260   0.86100   0.01267  Uiso   1.00
H138   H     0.87900   0.45550   0.79030   0.01267  Uiso   1.00
H139   H     0.12790   0.45650   0.81350   0.01267  Uiso   1.00
H140   H     0.18720   0.42540   0.87180   0.01267  Uiso   1.00
H141   H     0.31350   0.36550   0.86330   0.01267  Uiso   1.00
H142   H     0.26620   0.25970   0.70590   0.01267  Uiso   1.00
H143   H     0.30770   0.28550   0.63950   0.01267  Uiso   1.00
H144   H     0.39380   0.34520   0.63400   0.01267  Uiso   1.00
H145   H     0.98090   0.05930   0.48350   0.01267  Uiso   1.00
H146   H     0.05820   0.00610   0.43610   0.01267  Uiso   1.00
H147   H     0.93720   0.99670   0.38630   0.01267  Uiso   1.00
H148   H     0.47390   0.11170   0.36110   0.01267  Uiso   1.00
H149   H     0.47290   0.18000   0.35180   0.01267  Uiso   1.00
H150   H     0.62520   0.20970   0.37330   0.01267  Uiso   1.00
H151   H     0.31190   0.13270   0.65770   0.01267  Uiso   1.00
H152   H     0.24290   0.09360   0.71260   0.01267  Uiso   1.00
H153   H     0.21410   0.02670   0.70110   0.01267  Uiso   1.00
H154   H     0.42230   0.94180   0.53320   0.01267  Uiso   1.00
H155   H     0.37500   0.97230   0.47170   0.01267  Uiso   1.00
H156   H     0.26470   0.03800   0.47400   0.01267  Uiso   1.00
H157   H     0.11320   0.21980   0.37640   0.01267  Uiso   1.00
H158   H     0.91970   0.25570   0.37190   0.01267  Uiso   1.00
H159   H     0.84450   0.31300   0.41340   0.01267  Uiso   1.00
H160   H     0.18010   0.39610   0.50050   0.01267  Uiso   1.00
H161   H     0.32020   0.36100   0.53740   0.01267  Uiso   1.00
H162   H     0.33450   0.29030   0.54450   0.01267  Uiso   1.00
H163   H     0.58440   0.31350   0.54350   0.01267  Uiso   1.00
H164   H     0.61260   0.37180   0.57460   0.01267  Uiso   1.00
H165   H     0.67900   0.36330   0.63450   0.01267  Uiso   1.00
H166   H     0.52590   0.20590   0.74030   0.01267  Uiso   1.00
H167   H     0.59320   0.13950   0.71450   0.01267  Uiso   1.00
H168   H     0.73900   0.13400   0.65480   0.01267  Uiso   1.00
H169   H     0.02370   0.44070   0.01650   0.01267  Uiso   1.00
H170   H     0.00040   0.49390   0.06390   0.01267  Uiso   1.00
H171   H     0.82020   0.50330   0.11370   0.01267  Uiso   1.00
H172   H     0.44670   0.38830   0.13890   0.01267  Uiso   1.00
H173   H     0.50470   0.32000   0.14820   0.01267  Uiso   1.00
H174   H     0.70820   0.29030   0.12670   0.01267  Uiso   1.00
H175   H     0.60230   0.36730   0.84230   0.01267  Uiso   1.00
H176   H     0.54910   0.40640   0.78740   0.01267  Uiso   1.00
H177   H     0.44190   0.47330   0.79890   0.01267  Uiso   1.00
H178   H     0.39730   0.55820   0.96680   0.01267  Uiso   1.00
H179   H     0.31900   0.52770   0.02830   0.01267  Uiso   1.00
H180   H     0.27670   0.46200   0.02600   0.01267  Uiso   1.00
H181   H     0.20940   0.28020   0.12360   0.01267  Uiso   1.00
H182   H     0.04730   0.24430   0.12810   0.01267  Uiso   1.00
H183   H     0.07090   0.18700   0.08660   0.01267  Uiso   1.00
H184   H     0.57670   0.10390   0.99950   0.01267  Uiso   1.00
H185   H     0.71860   0.13900   0.96260   0.01267  Uiso   1.00
H186   H     0.66930   0.20970   0.95550   0.01267  Uiso   1.00
H187   H     0.94140   0.18650   0.95650   0.01267  Uiso   1.00
H188   H     0.05900   0.12820   0.92540   0.01267  Uiso   1.00
H189   H     0.17680   0.13670   0.86550   0.01267  Uiso   1.00
H190   H     0.97210   0.29410   0.75970   0.01267  Uiso   1.00
H191   H     0.94720   0.36050   0.78550   0.01267  Uiso   1.00
H192   H     0.02780   0.36600   0.84520   0.01267  Uiso   1.00
C1     C     0.06920   0.01790   0.12310   0.01267  Uiso   1.00
C2     C     0.05450   0.04950   0.08910   0.01267  Uiso   1.00
C3     C     0.99450   0.04030   0.05790   0.01267  Uiso   1.00
C4     C     0.98670   0.06670   0.02490   0.01267  Uiso   1.00
C5     C     0.05930   0.09840   0.02080   0.01267  Uiso   1.00
C6     C     0.11110   0.08340   0.08480   0.01267  Uiso   1.00
C7     C     0.17450   0.10050   0.11630   0.01267  Uiso   1.00
C8     C     0.34140   0.13040   0.12360   0.01267  Uiso   1.00
C9     C     0.30250   0.13590   0.16390   0.01267  Uiso   1.00
C10    C     0.19310   0.12300   0.18160   0.01267  Uiso   1.00
C11    C     0.12640   0.10490   0.15830   0.01267  Uiso   1.00
C12    C     0.01040   0.09110   0.17770   0.01267  Uiso   1.00
C13    C     0.50130   0.92130   0.11350   0.01267  Uiso   1.00
C14    C     0.58820   0.88610   0.08970   0.01267  Uiso   1.00
C15    C     0.59460   0.84650   0.10610   0.01267  Uiso   1.00
C16    C     0.65840   0.81400   0.08320   0.01267  Uiso   1.00
C17    C     0.71730   0.82120   0.04280   0.01267  Uiso   1.00
C18    C     0.65650   0.89160   0.05020   0.01267  Uiso   1.00
C19    C     0.66500   0.93140   0.03000   0.01267  Uiso   1.00
C20    C     0.64560   0.96670   0.96930   0.01267  Uiso   1.00
C21    C     0.65930   0.00380   0.98700   0.01267  Uiso   1.00
C22    C     0.68270   0.00220   0.02640   0.01267  Uiso   1.00
C23    C     0.68510   0.96600   0.05000   0.01267  Uiso   1.00
C24    C     0.72940   0.96350   0.09050   0.01267  Uiso   1.00
C25    C     0.49200   0.07930   0.23070   0.01267  Uiso   1.00
C26    C     0.59480   0.08010   0.25490   0.01267  Uiso   1.00
C27    C     0.67600   0.10700   0.24280   0.01267  Uiso   1.00
C28    C     0.77040   0.10990   0.26390   0.01267  Uiso   1.00
C29    C     0.78090   0.08470   0.29790   0.01267  Uiso   1.00
C30    C     0.61600   0.05550   0.28810   0.01267  Uiso   1.00
C31    C     0.53850   0.02440   0.30580   0.01267  Uiso   1.00
C32    C     0.43840   0.99980   0.36740   0.01267  Uiso   1.00
C33    C     0.37890   0.97640   0.34680   0.01267  Uiso   1.00
C34    C     0.40930   0.97330   0.30450   0.01267  Uiso   1.00
C35    C     0.48990   0.99660   0.28340   0.01267  Uiso   1.00
C36    C     0.53510   0.98890   0.23770   0.01267  Uiso   1.00
C37    C     0.11310   0.90900   0.27380   0.01267  Uiso   1.00
C38    C     0.08370   0.93030   0.31210   0.01267  Uiso   1.00
C39    C     0.03020   0.91300   0.34600   0.01267  Uiso   1.00
C40    C     0.99960   0.87690   0.34010   0.01267  Uiso   1.00
C41    C     0.08170   0.87000   0.27060   0.01267  Uiso   1.00
C42    C     0.11900   0.84600   0.23260   0.01267  Uiso   1.00
C43    C     0.22880   0.78650   0.20270   0.01267  Uiso   1.00
C44    C     0.22190   0.79990   0.16250   0.01267  Uiso   1.00
C45    C     0.14320   0.83580   0.15960   0.01267  Uiso   1.00
C46    C     0.08370   0.85960   0.19660   0.01267  Uiso   1.00
C47    C     0.99080   0.89940   0.19180   0.01267  Uiso   1.00
C48    C     0.18760   0.92900   0.23880   0.01267  Uiso   1.00
C49    C     0.71020   0.48210   0.37690   0.01267  Uiso   1.00
C50    C     0.69310   0.45050   0.41090   0.01267  Uiso   1.00
C51    C     0.59270   0.45970   0.44210   0.01267  Uiso   1.00
C52    C     0.57830   0.43330   0.47510   0.01267  Uiso   1.00
C53    C     0.67850   0.40160   0.47920   0.01267  Uiso   1.00
C54    C     0.77930   0.41660   0.41520   0.01267  Uiso   1.00
C55    C     0.89130   0.39950   0.38370   0.01267  Uiso   1.00
C56    C     0.09540   0.36960   0.37640   0.01267  Uiso   1.00
C57    C     0.10230   0.36410   0.33610   0.01267  Uiso   1.00
C58    C     0.99770   0.37700   0.31840   0.01267  Uiso   1.00
C59    C     0.88960   0.39510   0.34170   0.01267  Uiso   1.00
C60    C     0.77920   0.40890   0.32230   0.01267  Uiso   1.00
C61    C     0.03610   0.57870   0.38650   0.01267  Uiso   1.00
C62    C     0.06400   0.61390   0.41030   0.01267  Uiso   1.00
C63    C     0.04720   0.65350   0.39390   0.01267  Uiso   1.00
C64    C     0.05560   0.68600   0.41680   0.01267  Uiso   1.00
C65    C     0.08130   0.67880   0.45720   0.01267  Uiso   1.00
C66    C     0.09830   0.60840   0.44980   0.01267  Uiso   1.00
C67    C     0.12640   0.56860   0.47000   0.01267  Uiso   1.00
C68    C     0.08160   0.53330   0.53070   0.01267  Uiso   1.00
C69    C     0.15010   0.49620   0.51300   0.01267  Uiso   1.00
C70    C     0.21130   0.49780   0.47360   0.01267  Uiso   1.00
C71    C     0.20110   0.53400   0.45000   0.01267  Uiso   1.00
C72    C     0.28340   0.53650   0.40950   0.01267  Uiso   1.00
C73    C     0.30200   0.42070   0.26930   0.01267  Uiso   1.00
C74    C     0.42980   0.41990   0.24510   0.01267  Uiso   1.00
C75    C     0.52580   0.39300   0.25720   0.01267  Uiso   1.00
C76    C     0.64420   0.39010   0.23610   0.01267  Uiso   1.00
C77    C     0.66350   0.41530   0.20210   0.01267  Uiso   1.00
C78    C     0.45960   0.44450   0.21190   0.01267  Uiso   1.00
C79    C     0.36870   0.47560   0.19420   0.01267  Uiso   1.00
C80    C     0.30560   0.50020   0.13260   0.01267  Uiso   1.00
C81    C     0.20210   0.52360   0.15320   0.01267  Uiso   1.00
C82    C     0.18710   0.52670   0.19550   0.01267  Uiso   1.00
C83    C     0.26990   0.50340   0.21660   0.01267  Uiso   1.00
C84    C     0.26170   0.51110   0.26230   0.01267  Uiso   1.00
C85    C     0.79590   0.59100   0.22620   0.01267  Uiso   1.00
C86    C     0.82610   0.56970   0.18790   0.01267  Uiso   1.00
C87    C     0.78920   0.58700   0.15400   0.01267  Uiso   1.00
C88    C     0.71660   0.62310   0.15990   0.01267  Uiso   1.00
C89    C     0.72230   0.63000   0.22940   0.01267  Uiso   1.00
C90    C     0.69760   0.65400   0.26740   0.01267  Uiso   1.00
C91    C     0.71800   0.71350   0.29730   0.01267  Uiso   1.00
C92    C     0.68430   0.70010   0.33750   0.01267  Uiso   1.00
C93    C     0.63860   0.66420   0.34040   0.01267  Uiso   1.00
C94    C     0.63990   0.64040   0.30340   0.01267  Uiso   1.00
C95    C     0.58200   0.60060   0.30820   0.01267  Uiso   1.00
C96    C     0.85540   0.57100   0.26120   0.01267  Uiso   1.00
C97    C     0.19230   0.87690   0.51790   0.01267  Uiso   1.00
C98    C     0.14360   0.91090   0.54950   0.01267  Uiso   1.00
C99    C     0.05240   0.94210   0.54030   0.01267  Uiso   1.00
C100   C     0.01160   0.97510   0.56670   0.01267  Uiso   1.00
C101   C     0.08010   0.97920   0.59840   0.01267  Uiso   1.00
C102   C     0.19590   0.91520   0.58340   0.01267  Uiso   1.00
C103   C     0.29080   0.88370   0.60050   0.01267  Uiso   1.00
C104   C     0.46500   0.87640   0.63040   0.01267  Uiso   1.00
C105   C     0.46640   0.83610   0.63590   0.01267  Uiso   1.00
C106   C     0.37470   0.81840   0.62300   0.01267  Uiso   1.00
C107   C     0.28470   0.84170   0.60490   0.01267  Uiso   1.00
C108   C     0.18810   0.82230   0.59110   0.01267  Uiso   1.00
C109   C     0.61480   0.88650   0.42130   0.01267  Uiso   1.00
C110   C     0.67790   0.91030   0.38610   0.01267  Uiso   1.00
C111   C     0.70070   0.89390   0.34650   0.01267  Uiso   1.00
C112   C     0.74160   0.91680   0.31400   0.01267  Uiso   1.00
C113   C     0.76010   0.95720   0.32120   0.01267  Uiso   1.00
C114   C     0.70670   0.94980   0.39160   0.01267  Uiso   1.00
C115   C     0.69500   0.97000   0.43140   0.01267  Uiso   1.00
C116   C     0.61490   0.03070   0.46670   0.01267  Uiso   1.00
C117   C     0.64630   0.01300   0.50380   0.01267  Uiso   1.00
C118   C     0.70910   0.97360   0.50220   0.01267  Uiso   1.00
C119   C     0.73510   0.95000   0.46600   0.01267  Uiso   1.00
C120   C     0.81990   0.90950   0.46350   0.01267  Uiso   1.00
C121   C     0.72270   0.76930   0.57930   0.01267  Uiso   1.00
C122   C     0.84970   0.74510   0.58010   0.01267  Uiso   1.00
C123   C     0.91880   0.75720   0.60700   0.01267  Uiso   1.00
C124   C     0.03430   0.73610   0.60990   0.01267  Uiso   1.00
C125   C     0.07880   0.70210   0.58470   0.01267  Uiso   1.00
C126   C     0.90410   0.71190   0.55550   0.01267  Uiso   1.00
C127   C     0.84430   0.69420   0.52440   0.01267  Uiso   1.00
C128   C     0.80580   0.63260   0.49980   0.01267  Uiso   1.00
C129   C     0.72570   0.65320   0.47640   0.01267  Uiso   1.00
C130   C     0.71380   0.69550   0.47330   0.01267  Uiso   1.00
C131   C     0.77330   0.71660   0.49660   0.01267  Uiso   1.00
C132   C     0.77280   0.76230   0.48890   0.01267  Uiso   1.00
C133   C     0.38690   0.72620   0.40900   0.01267  Uiso   1.00
C134   C     0.39580   0.68790   0.43030   0.01267  Uiso   1.00
C135   C     0.37620   0.65400   0.41300   0.01267  Uiso   1.00
C136   C     0.33970   0.65990   0.37690   0.01267  Uiso   1.00
C137   C     0.35230   0.72940   0.37000   0.01267  Uiso   1.00
C138   C     0.35160   0.76740   0.34600   0.01267  Uiso   1.00
C139   C     0.43150   0.79730   0.28650   0.01267  Uiso   1.00
C140   C     0.38440   0.83750   0.29990   0.01267  Uiso   1.00
C141   C     0.30280   0.84040   0.33580   0.01267  Uiso   1.00
C142   C     0.28030   0.80340   0.35960   0.01267  Uiso   1.00
C143   C     0.18260   0.80820   0.39940   0.01267  Uiso   1.00
C144   C     0.42640   0.76120   0.42900   0.01267  Uiso   1.00
C145   C     0.08710   0.62310   0.98210   0.01267  Uiso   1.00
C146   C     0.10400   0.58910   0.95050   0.01267  Uiso   1.00
C147   C     0.03480   0.55790   0.95970   0.01267  Uiso   1.00
C148   C     0.05340   0.52490   0.93330   0.01267  Uiso   1.00
C149   C     0.15770   0.52080   0.90160   0.01267  Uiso   1.00
C150   C     0.19450   0.58480   0.91660   0.01267  Uiso   1.00
C151   C     0.27500   0.61630   0.89950   0.01267  Uiso   1.00
C152   C     0.47180   0.62360   0.86960   0.01267  Uiso   1.00
C153   C     0.43840   0.66390   0.86410   0.01267  Uiso   1.00
C154   C     0.31610   0.68160   0.87700   0.01267  Uiso   1.00
C155   C     0.23130   0.65830   0.89510   0.01267  Uiso   1.00
C156   C     0.10150   0.67770   0.90890   0.01267  Uiso   1.00
C157   C     0.42260   0.61350   0.07870   0.01267  Uiso   1.00
C158   C     0.47430   0.58970   0.11390   0.01267  Uiso   1.00
C159   C     0.44110   0.60610   0.15350   0.01267  Uiso   1.00
C160   C     0.47240   0.58320   0.18600   0.01267  Uiso   1.00
C161   C     0.53850   0.54280   0.17880   0.01267  Uiso   1.00
C162   C     0.54810   0.55020   0.10840   0.01267  Uiso   1.00
C163   C     0.59640   0.53000   0.06860   0.01267  Uiso   1.00
C164   C     0.61230   0.46930   0.03330   0.01267  Uiso   1.00
C165   C     0.66310   0.48700   0.99620   0.01267  Uiso   1.00
C166   C     0.68490   0.52640   0.99780   0.01267  Uiso   1.00
C167   C     0.65110   0.55000   0.03400   0.01267  Uiso   1.00
C168   C     0.69290   0.59050   0.03650   0.01267  Uiso   1.00
C169   C     0.57130   0.73070   0.92070   0.01267  Uiso   1.00
C170   C     0.67490   0.75490   0.91990   0.01267  Uiso   1.00
C171   C     0.78300   0.74280   0.89300   0.01267  Uiso   1.00
C172   C     0.88030   0.76390   0.89010   0.01267  Uiso   1.00
C173   C     0.86560   0.79790   0.91530   0.01267  Uiso   1.00
C174   C     0.67150   0.78810   0.94450   0.01267  Uiso   1.00
C175   C     0.56290   0.80580   0.97560   0.01267  Uiso   1.00
C176   C     0.43820   0.86740   0.00020   0.01267  Uiso   1.00
C177   C     0.35530   0.84680   0.02360   0.01267  Uiso   1.00
C178   C     0.38260   0.80450   0.02670   0.01267  Uiso   1.00
C179   C     0.48650   0.78340   0.00340   0.01267  Uiso   1.00
C180   C     0.52400   0.73770   0.01110   0.01267  Uiso   1.00
C181   C     0.02210   0.77380   0.09100   0.01267  Uiso   1.00
C182   C     0.01400   0.81210   0.06970   0.01267  Uiso   1.00
C183   C     0.94320   0.84600   0.08700   0.01267  Uiso   1.00
C184   C     0.87650   0.84010   0.12310   0.01267  Uiso   1.00
C185   C     0.95170   0.77060   0.13000   0.01267  Uiso   1.00
C186   C     0.96500   0.73260   0.15400   0.01267  Uiso   1.00
C187   C     0.01530   0.70270   0.21350   0.01267  Uiso   1.00
C188   C     0.02180   0.66250   0.20010   0.01267  Uiso   1.00
C189   C     0.97900   0.65960   0.16420   0.01267  Uiso   1.00
C190   C     0.94330   0.69660   0.14040   0.01267  Uiso   1.00
C191   C     0.89020   0.69180   0.10060   0.01267  Uiso   1.00
C192   C     0.11660   0.73880   0.07100   0.01267  Uiso   1.00
C193   C     0.93080   0.98210   0.87690   0.01267  Uiso   1.00
C194   C     0.94550   0.95050   0.91090   0.01267  Uiso   1.00
C195   C     0.00550   0.95970   0.94210   0.01267  Uiso   1.00
C196   C     0.01330   0.93330   0.97510   0.01267  Uiso   1.00
C197   C     0.94070   0.90160   0.97920   0.01267  Uiso   1.00
C198   C     0.88890   0.91660   0.91520   0.01267  Uiso   1.00
C199   C     0.82550   0.89950   0.88370   0.01267  Uiso   1.00
C200   C     0.65860   0.86960   0.87640   0.01267  Uiso   1.00
C201   C     0.69750   0.86410   0.83610   0.01267  Uiso   1.00
C202   C     0.80690   0.87700   0.81840   0.01267  Uiso   1.00
C203   C     0.87360   0.89510   0.84170   0.01267  Uiso   1.00
C204   C     0.98960   0.90890   0.82230   0.01267  Uiso   1.00
C205   C     0.49870   0.07870   0.88650   0.01267  Uiso   1.00
C206   C     0.41180   0.11390   0.91030   0.01267  Uiso   1.00
C207   C     0.40540   0.15350   0.89390   0.01267  Uiso   1.00
C208   C     0.34160   0.18600   0.91680   0.01267  Uiso   1.00
C209   C     0.28270   0.17880   0.95720   0.01267  Uiso   1.00
C210   C     0.34350   0.10840   0.94980   0.01267  Uiso   1.00
C211   C     0.33500   0.06860   0.97000   0.01267  Uiso   1.00
C212   C     0.35440   0.03330   0.03070   0.01267  Uiso   1.00
C213   C     0.34070   0.99620   0.01300   0.01267  Uiso   1.00
C214   C     0.31730   0.99780   0.97360   0.01267  Uiso   1.00
C215   C     0.31490   0.03400   0.95000   0.01267  Uiso   1.00
C216   C     0.27060   0.03650   0.90950   0.01267  Uiso   1.00
C217   C     0.50800   0.92070   0.76930   0.01267  Uiso   1.00
C218   C     0.40520   0.91990   0.74510   0.01267  Uiso   1.00
C219   C     0.32400   0.89300   0.75720   0.01267  Uiso   1.00
C220   C     0.22960   0.89010   0.73610   0.01267  Uiso   1.00
C221   C     0.21910   0.91530   0.70210   0.01267  Uiso   1.00
C222   C     0.38400   0.94450   0.71190   0.01267  Uiso   1.00
C223   C     0.46150   0.97560   0.69420   0.01267  Uiso   1.00
C224   C     0.56160   0.00020   0.63260   0.01267  Uiso   1.00
C225   C     0.62110   0.02360   0.65320   0.01267  Uiso   1.00
C226   C     0.59070   0.02670   0.69550   0.01267  Uiso   1.00
C227   C     0.51010   0.00340   0.71660   0.01267  Uiso   1.00
C228   C     0.46490   0.01110   0.76230   0.01267  Uiso   1.00
C229   C     0.88690   0.09100   0.72620   0.01267  Uiso   1.00
C230   C     0.91630   0.06970   0.68790   0.01267  Uiso   1.00
C231   C     0.96980   0.08700   0.65400   0.01267  Uiso   1.00
C232   C     0.00040   0.12310   0.65990   0.01267  Uiso   1.00
C233   C     0.91830   0.13000   0.72940   0.01267  Uiso   1.00
C234   C     0.88100   0.15400   0.76740   0.01267  Uiso   1.00
C235   C     0.77120   0.21350   0.79730   0.01267  Uiso   1.00
C236   C     0.77810   0.20010   0.83750   0.01267  Uiso   1.00
C237   C     0.85680   0.16420   0.84040   0.01267  Uiso   1.00
C238   C     0.91630   0.14040   0.80340   0.01267  Uiso   1.00
C239   C     0.00920   0.10060   0.80820   0.01267  Uiso   1.00
C240   C     0.81240   0.07100   0.76120   0.01267  Uiso   1.00
C241   C     0.28980   0.51790   0.62310   0.01267  Uiso   1.00
C242   C     0.30690   0.54950   0.58910   0.01267  Uiso   1.00
C243   C     0.40730   0.54030   0.55790   0.01267  Uiso   1.00
C244   C     0.42170   0.56670   0.52490   0.01267  Uiso   1.00
C245   C     0.32150   0.59840   0.52080   0.01267  Uiso   1.00
C246   C     0.22070   0.58340   0.58480   0.01267  Uiso   1.00
C247   C     0.10870   0.60050   0.61630   0.01267  Uiso   1.00
C248   C     0.90460   0.63040   0.62360   0.01267  Uiso   1.00
C249   C     0.89770   0.63590   0.66390   0.01267  Uiso   1.00
C250   C     0.00230   0.62300   0.68160   0.01267  Uiso   1.00
C251   C     0.11040   0.60490   0.65830   0.01267  Uiso   1.00
C252   C     0.22080   0.59110   0.67770   0.01267  Uiso   1.00
C253   C     0.96390   0.42130   0.61350   0.01267  Uiso   1.00
C254   C     0.93600   0.38610   0.58970   0.01267  Uiso   1.00
C255   C     0.95280   0.34650   0.60610   0.01267  Uiso   1.00
C256   C     0.94440   0.31400   0.58320   0.01267  Uiso   1.00
C257   C     0.91870   0.32120   0.54280   0.01267  Uiso   1.00
C258   C     0.90170   0.39160   0.55020   0.01267  Uiso   1.00
C259   C     0.87360   0.43140   0.53000   0.01267  Uiso   1.00
C260   C     0.91840   0.46670   0.46930   0.01267  Uiso   1.00
C261   C     0.84990   0.50380   0.48700   0.01267  Uiso   1.00
C262   C     0.78870   0.50220   0.52640   0.01267  Uiso   1.00
C263   C     0.79890   0.46600   0.55000   0.01267  Uiso   1.00
C264   C     0.71660   0.46350   0.59050   0.01267  Uiso   1.00
C265   C     0.69800   0.57930   0.73070   0.01267  Uiso   1.00
C266   C     0.57020   0.58010   0.75490   0.01267  Uiso   1.00
C267   C     0.47420   0.60700   0.74280   0.01267  Uiso   1.00
C268   C     0.35580   0.60990   0.76390   0.01267  Uiso   1.00
C269   C     0.33650   0.58470   0.79790   0.01267  Uiso   1.00
C270   C     0.54040   0.55550   0.78810   0.01267  Uiso   1.00
C271   C     0.63130   0.52440   0.80580   0.01267  Uiso   1.00
C272   C     0.69440   0.49980   0.86740   0.01267  Uiso   1.00
C273   C     0.79790   0.47640   0.84680   0.01267  Uiso   1.00
C274   C     0.81290   0.47330   0.80450   0.01267  Uiso   1.00
C275   C     0.73010   0.49660   0.78340   0.01267  Uiso   1.00
C276   C     0.73830   0.48890   0.73770   0.01267  Uiso   1.00
C277   C     0.20410   0.40900   0.77380   0.01267  Uiso   1.00
C278   C     0.17390   0.43030   0.81210   0.01267  Uiso   1.00
C279   C     0.21080   0.41300   0.84600   0.01267  Uiso   1.00
C280   C     0.28340   0.37690   0.84010   0.01267  Uiso   1.00
C281   C     0.27770   0.37000   0.77060   0.01267  Uiso   1.00
C282   C     0.30240   0.34600   0.73260   0.01267  Uiso   1.00
C283   C     0.28200   0.28650   0.70270   0.01267  Uiso   1.00
C284   C     0.31570   0.29990   0.66250   0.01267  Uiso   1.00
C285   C     0.36140   0.33580   0.65960   0.01267  Uiso   1.00
C286   C     0.36010   0.35960   0.69660   0.01267  Uiso   1.00
C287   C     0.41800   0.39940   0.69180   0.01267  Uiso   1.00
C288   C     0.14460   0.42900   0.73880   0.01267  Uiso   1.00
C289   C     0.80770   0.12310   0.48210   0.01267  Uiso   1.00
C290   C     0.85640   0.08910   0.45050   0.01267  Uiso   1.00
C291   C     0.94760   0.05790   0.45970   0.01267  Uiso   1.00
C292   C     0.98840   0.02490   0.43330   0.01267  Uiso   1.00
C293   C     0.91990   0.02080   0.40160   0.01267  Uiso   1.00
C294   C     0.80410   0.08480   0.41660   0.01267  Uiso   1.00
C295   C     0.70920   0.11630   0.39950   0.01267  Uiso   1.00
C296   C     0.53500   0.12360   0.36960   0.01267  Uiso   1.00
C297   C     0.53360   0.16390   0.36410   0.01267  Uiso   1.00
C298   C     0.62530   0.18160   0.37700   0.01267  Uiso   1.00
C299   C     0.71530   0.15830   0.39510   0.01267  Uiso   1.00
C300   C     0.81190   0.17770   0.40890   0.01267  Uiso   1.00
C301   C     0.38520   0.11350   0.57870   0.01267  Uiso   1.00
C302   C     0.32210   0.08970   0.61390   0.01267  Uiso   1.00
C303   C     0.29930   0.10610   0.65350   0.01267  Uiso   1.00
C304   C     0.25840   0.08320   0.68600   0.01267  Uiso   1.00
C305   C     0.23990   0.04280   0.67880   0.01267  Uiso   1.00
C306   C     0.29330   0.05020   0.60840   0.01267  Uiso   1.00
C307   C     0.30500   0.03000   0.56860   0.01267  Uiso   1.00
C308   C     0.38510   0.96930   0.53330   0.01267  Uiso   1.00
C309   C     0.35370   0.98700   0.49620   0.01267  Uiso   1.00
C310   C     0.29090   0.02640   0.49780   0.01267  Uiso   1.00
C311   C     0.26490   0.05000   0.53400   0.01267  Uiso   1.00
C312   C     0.18010   0.09050   0.53650   0.01267  Uiso   1.00
C313   C     0.27730   0.23070   0.42070   0.01267  Uiso   1.00
C314   C     0.15030   0.25490   0.41990   0.01267  Uiso   1.00
C315   C     0.08120   0.24280   0.39300   0.01267  Uiso   1.00
C316   C     0.96570   0.26390   0.39010   0.01267  Uiso   1.00
C317   C     0.92120   0.29790   0.41530   0.01267  Uiso   1.00
C318   C     0.09590   0.28810   0.44450   0.01267  Uiso   1.00
C319   C     0.15570   0.30580   0.47560   0.01267  Uiso   1.00
C320   C     0.19420   0.36740   0.50020   0.01267  Uiso   1.00
C321   C     0.27430   0.34680   0.52360   0.01267  Uiso   1.00
C322   C     0.28620   0.30450   0.52670   0.01267  Uiso   1.00
C323   C     0.22670   0.28340   0.50340   0.01267  Uiso   1.00
C324   C     0.22720   0.23770   0.51110   0.01267  Uiso   1.00
C325   C     0.61310   0.27380   0.59100   0.01267  Uiso   1.00
C326   C     0.60420   0.31210   0.56970   0.01267  Uiso   1.00
C327   C     0.62380   0.34600   0.58700   0.01267  Uiso   1.00
C328   C     0.66030   0.34010   0.62310   0.01267  Uiso   1.00
C329   C     0.64770   0.27060   0.63000   0.01267  Uiso   1.00
C330   C     0.64840   0.23260   0.65400   0.01267  Uiso   1.00
C331   C     0.56850   0.20270   0.71350   0.01267  Uiso   1.00
C332   C     0.61560   0.16250   0.70010   0.01267  Uiso   1.00
C333   C     0.69720   0.15960   0.66420   0.01267  Uiso   1.00
C334   C     0.71970   0.19660   0.64040   0.01267  Uiso   1.00
C335   C     0.81740   0.19180   0.60060   0.01267  Uiso   1.00
C336   C     0.57360   0.23880   0.57100   0.01267  Uiso   1.00
C337   C     0.91290   0.37690   0.01790   0.01267  Uiso   1.00
C338   C     0.89600   0.41090   0.04950   0.01267  Uiso   1.00
C339   C     0.96520   0.44210   0.04030   0.01267  Uiso   1.00
C340   C     0.94660   0.47510   0.06670   0.01267  Uiso   1.00
C341   C     0.84230   0.47920   0.09840   0.01267  Uiso   1.00
C342   C     0.80550   0.41520   0.08340   0.01267  Uiso   1.00
C343   C     0.72500   0.38370   0.10050   0.01267  Uiso   1.00
C344   C     0.52820   0.37640   0.13040   0.01267  Uiso   1.00
C345   C     0.56160   0.33610   0.13590   0.01267  Uiso   1.00
C346   C     0.68390   0.31840   0.12300   0.01267  Uiso   1.00
C347   C     0.76870   0.34170   0.10490   0.01267  Uiso   1.00
C348   C     0.89850   0.32230   0.09110   0.01267  Uiso   1.00
C349   C     0.57740   0.38650   0.92130   0.01267  Uiso   1.00
C350   C     0.52570   0.41030   0.88610   0.01267  Uiso   1.00
C351   C     0.55890   0.39390   0.84650   0.01267  Uiso   1.00
C352   C     0.52760   0.41680   0.81400   0.01267  Uiso   1.00
C353   C     0.46150   0.45720   0.82120   0.01267  Uiso   1.00
C354   C     0.45190   0.44980   0.89160   0.01267  Uiso   1.00
C355   C     0.40360   0.47000   0.93140   0.01267  Uiso   1.00
C356   C     0.38770   0.53070   0.96670   0.01267  Uiso   1.00
C357   C     0.33690   0.51300   0.00380   0.01267  Uiso   1.00
C358   C     0.31510   0.47360   0.00220   0.01267  Uiso   1.00
C359   C     0.34890   0.45000   0.96600   0.01267  Uiso   1.00
C360   C     0.30710   0.40950   0.96350   0.01267  Uiso   1.00
C361   C     0.42870   0.26930   0.07930   0.01267  Uiso   1.00
C362   C     0.32510   0.24510   0.08010   0.01267  Uiso   1.00
C363   C     0.21700   0.25720   0.10700   0.01267  Uiso   1.00
C364   C     0.11970   0.23610   0.10990   0.01267  Uiso   1.00
C365   C     0.13440   0.20210   0.08470   0.01267  Uiso   1.00
C366   C     0.32850   0.21190   0.05550   0.01267  Uiso   1.00
C367   C     0.43710   0.19420   0.02440   0.01267  Uiso   1.00
C368   C     0.56180   0.13260   0.99980   0.01267  Uiso   1.00
C369   C     0.64470   0.15320   0.97640   0.01267  Uiso   1.00
C370   C     0.61740   0.19550   0.97330   0.01267  Uiso   1.00
C371   C     0.51350   0.21660   0.99660   0.01267  Uiso   1.00
C372   C     0.47600   0.26230   0.98890   0.01267  Uiso   1.00
C373   C     0.97790   0.22620   0.90900   0.01267  Uiso   1.00
C374   C     0.98600   0.18790   0.93030   0.01267  Uiso   1.00
C375   C     0.05680   0.15400   0.91300   0.01267  Uiso   1.00
C376   C     0.12350   0.15990   0.87690   0.01267  Uiso   1.00
C377   C     0.04830   0.22940   0.87000   0.01267  Uiso   1.00
C378   C     0.03500   0.26740   0.84600   0.01267  Uiso   1.00
C379   C     0.98470   0.29730   0.78650   0.01267  Uiso   1.00
C380   C     0.97820   0.33750   0.79990   0.01267  Uiso   1.00
C381   C     0.02100   0.34040   0.83580   0.01267  Uiso   1.00
C382   C     0.05670   0.30340   0.85960   0.01267  Uiso   1.00
C383   C     0.10980   0.30820   0.89940   0.01267  Uiso   1.00
C384   C     0.88340   0.26120   0.92900   0.01267  Uiso   1.00
N1     N     0.11730   0.10680   0.05040   0.01267  Uiso   1.00
N2     N     0.27910   0.11280   0.09900   0.01267  Uiso   1.00
N3     N     0.64630   0.93160   0.99020   0.01267  Uiso   1.00
N4     N     0.71470   0.85840   0.02720   0.01267  Uiso   1.00
N5     N     0.70580   0.05780   0.30960   0.01267  Uiso   1.00
N6     N     0.51760   0.02350   0.34770   0.01267  Uiso   1.00
N7     N     0.02000   0.85340   0.30540   0.01267  Uiso   1.00
N8     N     0.18510   0.80800   0.23700   0.01267  Uiso   1.00
N9     N     0.77450   0.39320   0.44960   0.01267  Uiso   1.00
N10    N     0.99090   0.38720   0.40100   0.01267  Uiso   1.00
N11    N     0.06810   0.56840   0.50980   0.01267  Uiso   1.00
N12    N     0.10030   0.64160   0.47280   0.01267  Uiso   1.00
N13    N     0.57320   0.44220   0.19040   0.01267  Uiso   1.00
N14    N     0.38880   0.47650   0.15230   0.01267  Uiso   1.00
N15    N     0.67880   0.64660   0.19460   0.01267  Uiso   1.00
N16    N     0.73010   0.69200   0.26300   0.01267  Uiso   1.00
N17    N     0.16770   0.94960   0.60680   0.01267  Uiso   1.00
N18    N     0.37810   0.90100   0.61280   0.01267  Uiso   1.00
N19    N     0.63650   0.00980   0.43160   0.01267  Uiso   1.00
N20    N     0.74190   0.97280   0.35840   0.01267  Uiso   1.00
N21    N     0.01540   0.69040   0.55780   0.01267  Uiso   1.00
N22    N     0.86530   0.65230   0.52350   0.01267  Uiso   1.00
N23    N     0.32540   0.69460   0.35340   0.01267  Uiso   1.00
N24    N     0.42210   0.76300   0.30800   0.01267  Uiso   1.00
N25    N     0.22410   0.55040   0.89320   0.01267  Uiso   1.00
N26    N     0.39190   0.59900   0.88720   0.01267  Uiso   1.00
N27    N     0.57790   0.49020   0.06840   0.01267  Uiso   1.00
N28    N     0.57310   0.52720   0.14160   0.01267  Uiso   1.00
N29    N     0.76360   0.80960   0.94220   0.01267  Uiso   1.00
N30    N     0.54110   0.84770   0.97650   0.01267  Uiso   1.00
N31    N     0.87340   0.80540   0.14660   0.01267  Uiso   1.00
N32    N     0.99310   0.73700   0.19200   0.01267  Uiso   1.00
N33    N     0.88270   0.89320   0.94960   0.01267  Uiso   1.00
N34    N     0.72090   0.88720   0.90100   0.01267  Uiso   1.00
N35    N     0.35370   0.06840   0.00980   0.01267  Uiso   1.00
N36    N     0.28530   0.14160   0.97280   0.01267  Uiso   1.00
N37    N     0.29420   0.94220   0.69040   0.01267  Uiso   1.00
N38    N     0.48240   0.97650   0.65230   0.01267  Uiso   1.00
N39    N     0.98000   0.14660   0.69460   0.01267  Uiso   1.00
N40    N     0.81490   0.19200   0.76300   0.01267  Uiso   1.00
N41    N     0.22550   0.60680   0.55040   0.01267  Uiso   1.00
N42    N     0.00910   0.61280   0.59900   0.01267  Uiso   1.00
N43    N     0.93190   0.43160   0.49020   0.01267  Uiso   1.00
N44    N     0.89970   0.35840   0.52720   0.01267  Uiso   1.00
N45    N     0.42680   0.55780   0.80960   0.01267  Uiso   1.00
N46    N     0.61120   0.52350   0.84770   0.01267  Uiso   1.00
N47    N     0.32120   0.35340   0.80540   0.01267  Uiso   1.00
N48    N     0.26990   0.30800   0.73700   0.01267  Uiso   1.00
N49    N     0.83230   0.05040   0.39320   0.01267  Uiso   1.00
N50    N     0.62190   0.09900   0.38720   0.01267  Uiso   1.00
N51    N     0.36350   0.99020   0.56840   0.01267  Uiso   1.00
N52    N     0.25810   0.02720   0.64160   0.01267  Uiso   1.00
N53    N     0.98460   0.30960   0.44220   0.01267  Uiso   1.00
N54    N     0.13470   0.34770   0.47650   0.01267  Uiso   1.00
N55    N     0.67460   0.30540   0.64660   0.01267  Uiso   1.00
N56    N     0.57790   0.23700   0.69200   0.01267  Uiso   1.00
N57    N     0.77590   0.44960   0.10680   0.01267  Uiso   1.00
N58    N     0.60810   0.40100   0.11280   0.01267  Uiso   1.00
N59    N     0.42210   0.50980   0.93160   0.01267  Uiso   1.00
N60    N     0.42690   0.47280   0.85840   0.01267  Uiso   1.00
N61    N     0.23640   0.19040   0.05780   0.01267  Uiso   1.00
N62    N     0.45890   0.15230   0.02350   0.01267  Uiso   1.00
N63    N     0.12660   0.19460   0.85340   0.01267  Uiso   1.00
N64    N     0.00690   0.26300   0.80800   0.01267  Uiso   1.00
O1     O     0.48858   0.91723   0.15341   0.01267  Uiso   1.00
O2     O     0.44470   0.94930   0.09650   0.01267  Uiso   1.00
O3     O     0.83100   0.94270   0.09370   0.01267  Uiso   1.00
O4     O     0.66443   0.98607   0.11967   0.01267  Uiso   1.00
O5     O     0.98788   0.99670   0.13194   0.01267  Uiso   1.00
O6     O     0.16628   0.01514   0.13790   0.01267  Uiso   1.00
O7     O     0.91781   0.10003   0.16055   0.01267  Uiso   1.00
O8     O     0.01176   0.07202   0.21086   0.01267  Uiso   1.00
O9     O     0.52203   0.07769   0.19185   0.01267  Uiso   1.00
O10    O     0.38682   0.07867   0.25009   0.01267  Uiso   1.00
O11    O     0.64398   0.99283   0.22521   0.01267  Uiso   1.00
O12    O     0.46291   0.97763   0.21735   0.01267  Uiso   1.00
O13    O     0.13370   0.96010   0.22350   0.01267  Uiso   1.00
O14    O     0.29580   0.91460   0.22600   0.01267  Uiso   1.00
O15    O     0.99390   0.91320   0.15780   0.01267  Uiso   1.00
O16    O     0.90640   0.91100   0.22160   0.01267  Uiso   1.00
O17    O     0.05922   0.58277   0.34659   0.01267  Uiso   1.00
O18    O     0.99050   0.55070   0.40350   0.01267  Uiso   1.00
O19    O     0.36740   0.55730   0.40630   0.01267  Uiso   1.00
O20    O     0.27017   0.51393   0.38033   0.01267  Uiso   1.00
O21    O     0.61652   0.50330   0.36806   0.01267  Uiso   1.00
O22    O     0.81932   0.48486   0.36210   0.01267  Uiso   1.00
O23    O     0.67839   0.39997   0.33945   0.01267  Uiso   1.00
O24    O     0.79464   0.42798   0.28914   0.01267  Uiso   1.00
O25    O     0.29157   0.42231   0.30815   0.01267  Uiso   1.00
O26    O     0.21558   0.42133   0.24991   0.01267  Uiso   1.00
O27    O     0.36202   0.50717   0.27479   0.01267  Uiso   1.00
O28    O     0.15789   0.52237   0.28265   0.01267  Uiso   1.00
O29    O     0.81730   0.53990   0.27650   0.01267  Uiso   1.00
O30    O     0.93640   0.58540   0.27400   0.01267  Uiso   1.00
O31    O     0.56490   0.58680   0.34220   0.01267  Uiso   1.00
O32    O     0.53900   0.58900   0.27840   0.01267  Uiso   1.00
O33    O     0.64199   0.84659   0.41723   0.01267  Uiso   1.00
O34    O     0.54120   0.90350   0.44930   0.01267  Uiso   1.00
O35    O     0.92470   0.90630   0.44270   0.01267  Uiso   1.00
O36    O     0.78410   0.88033   0.48607   0.01267  Uiso   1.00
O37    O     0.11982   0.86806   0.49670   0.01267  Uiso   1.00
O38    O     0.30418   0.86210   0.51514   0.01267  Uiso   1.00
O39    O     0.07836   0.83945   0.60003   0.01267  Uiso   1.00
O40    O     0.22262   0.78914   0.57202   0.01267  Uiso   1.00
O41    O     0.71388   0.80815   0.57769   0.01267  Uiso   1.00
O42    O     0.63691   0.74991   0.57867   0.01267  Uiso   1.00
O43    O     0.86919   0.77479   0.49283   0.01267  Uiso   1.00
O44    O     0.68026   0.78265   0.47763   0.01267  Uiso   1.00
O45    O     0.35720   0.77650   0.46010   0.01267  Uiso   1.00
O46    O     0.52180   0.77400   0.41460   0.01267  Uiso   1.00
O47    O     0.15170   0.84220   0.41320   0.01267  Uiso   1.00
O48    O     0.12800   0.77840   0.41100   0.01267  Uiso   1.00
O49    O     0.40581   0.65341   0.08277   0.01267  Uiso   1.00
O50    O     0.39400   0.59650   0.05070   0.01267  Uiso   1.00
O51    O     0.77370   0.59370   0.05730   0.01267  Uiso   1.00
O52    O     0.65050   0.61967   0.01393   0.01267  Uiso   1.00
O53    O     0.98458   0.63194   0.00330   0.01267  Uiso   1.00
O54    O     0.18142   0.63790   0.98486   0.01267  Uiso   1.00
O55    O     0.01784   0.66055   0.89997   0.01267  Uiso   1.00
O56    O     0.08378   0.71086   0.92798   0.01267  Uiso   1.00
O57    O     0.59972   0.69185   0.92231   0.01267  Uiso   1.00
O58    O     0.46549   0.75009   0.92133   0.01267  Uiso   1.00
O59    O     0.63681   0.72521   0.00717   0.01267  Uiso   1.00
O60    O     0.44054   0.71735   0.02237   0.01267  Uiso   1.00
O61    O     0.09380   0.72350   0.03990   0.01267  Uiso   1.00
O62    O     0.21040   0.72600   0.08540   0.01267  Uiso   1.00
O63    O     0.90710   0.65780   0.08680   0.01267  Uiso   1.00
O64    O     0.81740   0.72160   0.08900   0.01267  Uiso   1.00
O65    O     0.51142   0.08277   0.84659   0.01267  Uiso   1.00
O66    O     0.55530   0.05070   0.90350   0.01267  Uiso   1.00
O67    O     0.16900   0.05730   0.90630   0.01267  Uiso   1.00
O68    O     0.33557   0.01393   0.88033   0.01267  Uiso   1.00
O69    O     0.01212   0.00330   0.86806   0.01267  Uiso   1.00
O70    O     0.83372   0.98486   0.86210   0.01267  Uiso   1.00
O71    O     0.08219   0.89997   0.83945   0.01267  Uiso   1.00
O72    O     0.98824   0.92798   0.78914   0.01267  Uiso   1.00
O73    O     0.47797   0.92231   0.80815   0.01267  Uiso   1.00
O74    O     0.61318   0.92133   0.74991   0.01267  Uiso   1.00
O75    O     0.35602   0.00717   0.77479   0.01267  Uiso   1.00
O76    O     0.53709   0.02237   0.78265   0.01267  Uiso   1.00
O77    O     0.86630   0.03990   0.77650   0.01267  Uiso   1.00
O78    O     0.70420   0.08540   0.77400   0.01267  Uiso   1.00
O79    O     0.00610   0.08680   0.84220   0.01267  Uiso   1.00
O80    O     0.09360   0.08900   0.77840   0.01267  Uiso   1.00
O81    O     0.94078   0.41723   0.65341   0.01267  Uiso   1.00
O82    O     0.00950   0.44930   0.59650   0.01267  Uiso   1.00
O83    O     0.63260   0.44270   0.59370   0.01267  Uiso   1.00
O84    O     0.72983   0.48607   0.61967   0.01267  Uiso   1.00
O85    O     0.38348   0.49670   0.63194   0.01267  Uiso   1.00
O86    O     0.18068   0.51514   0.63790   0.01267  Uiso   1.00
O87    O     0.32161   0.60003   0.66055   0.01267  Uiso   1.00
O88    O     0.20536   0.57202   0.71086   0.01267  Uiso   1.00
O89    O     0.70843   0.57769   0.69185   0.01267  Uiso   1.00
O90    O     0.78442   0.57867   0.75009   0.01267  Uiso   1.00
O91    O     0.63798   0.49283   0.72521   0.01267  Uiso   1.00
O92    O     0.84211   0.47763   0.71735   0.01267  Uiso   1.00
O93    O     0.18270   0.46010   0.72350   0.01267  Uiso   1.00
O94    O     0.06360   0.41460   0.72600   0.01267  Uiso   1.00
O95    O     0.43510   0.41320   0.65780   0.01267  Uiso   1.00
O96    O     0.46100   0.41100   0.72160   0.01267  Uiso   1.00
O97    O     0.35801   0.15341   0.58277   0.01267  Uiso   1.00
O98    O     0.45880   0.09650   0.55070   0.01267  Uiso   1.00
O99    O     0.07530   0.09370   0.55730   0.01267  Uiso   1.00
O100   O     0.21590   0.11967   0.51393   0.01267  Uiso   1.00
O101   O     0.88018   0.13194   0.50330   0.01267  Uiso   1.00
O102   O     0.69582   0.13790   0.48486   0.01267  Uiso   1.00
O103   O     0.92164   0.16055   0.39997   0.01267  Uiso   1.00
O104   O     0.77738   0.21086   0.42798   0.01267  Uiso   1.00
O105   O     0.28612   0.19185   0.42231   0.01267  Uiso   1.00
O106   O     0.36309   0.25009   0.42133   0.01267  Uiso   1.00
O107   O     0.13081   0.22521   0.50717   0.01267  Uiso   1.00
O108   O     0.31974   0.21735   0.52237   0.01267  Uiso   1.00
O109   O     0.64280   0.22350   0.53990   0.01267  Uiso   1.00
O110   O     0.47820   0.22600   0.58540   0.01267  Uiso   1.00
O111   O     0.84830   0.15780   0.58680   0.01267  Uiso   1.00
O112   O     0.87200   0.22160   0.58900   0.01267  Uiso   1.00
O113   O     0.59419   0.34659   0.91723   0.01267  Uiso   1.00
O114   O     0.60600   0.40350   0.94930   0.01267  Uiso   1.00
O115   O     0.22630   0.40630   0.94270   0.01267  Uiso   1.00
O116   O     0.34950   0.38033   0.98607   0.01267  Uiso   1.00
O117   O     0.01542   0.36806   0.99670   0.01267  Uiso   1.00
O118   O     0.81858   0.36210   0.01514   0.01267  Uiso   1.00
O119   O     0.98216   0.33945   0.10003   0.01267  Uiso   1.00
O120   O     0.91622   0.28914   0.07202   0.01267  Uiso   1.00
O121   O     0.40028   0.30815   0.07769   0.01267  Uiso   1.00
O122   O     0.53451   0.24991   0.07867   0.01267  Uiso   1.00
O123   O     0.36319   0.27479   0.99283   0.01267  Uiso   1.00
O124   O     0.55946   0.28265   0.97763   0.01267  Uiso   1.00
O125   O     0.90620   0.27650   0.96010   0.01267  Uiso   1.00
O126   O     0.78960   0.27400   0.91460   0.01267  Uiso   1.00
O127   O     0.09290   0.34220   0.91320   0.01267  Uiso   1.00
O128   O     0.18260   0.27840   0.91100   0.01267  Uiso   1.00
