data_MIFTUS_clean
_audit_creation_date              2014-07-02
_audit_creation_method            'Materials Studio'
_symmetry_space_group_name_H-M    'P1'
_symmetry_Int_Tables_number       1
_symmetry_cell_setting            triclinic
loop_
_symmetry_equiv_pos_as_xyz
  x,y,z
_cell_length_a                    10.7836
_cell_length_b                    32.4156
_cell_length_c                    32.4156
_cell_angle_alpha                 88.4146
_cell_angle_beta                  80.4253
_cell_angle_gamma                 80.4253
loop_
_atom_site_label
_atom_site_type_symbol
_atom_site_fract_x
_atom_site_fract_y
_atom_site_fract_z
_atom_site_U_iso_or_equiv
_atom_site_adp_type
_atom_site_occupancy
Gd1    Gd    0.80821   0.17183   0.97377   0.01267  Uiso   1.00
Gd2    Gd    0.30507   0.17527   0.97552   0.01267  Uiso   1.00
Gd3    Gd    0.45382   0.32817   0.52622   0.01267  Uiso   1.00
Gd4    Gd    0.95585   0.32473   0.52448   0.01267  Uiso   1.00
Gd5    Gd    0.78199   0.02622   0.67183   0.01267  Uiso   1.00
Gd6    Gd    0.28058   0.02448   0.67527   0.01267  Uiso   1.00
Gd7    Gd    0.98003   0.47378   0.82818   0.01267  Uiso   1.00
Gd8    Gd    0.48034   0.47552   0.82472   0.01267  Uiso   1.00
Gd9    Gd    0.19180   0.82817   0.02622   0.01267  Uiso   1.00
Gd10   Gd    0.69494   0.82473   0.02447   0.01267  Uiso   1.00
Gd11   Gd    0.54618   0.67183   0.47378   0.01267  Uiso   1.00
Gd12   Gd    0.04415   0.67527   0.47552   0.01267  Uiso   1.00
Gd13   Gd    0.21801   0.97378   0.32818   0.01267  Uiso   1.00
Gd14   Gd    0.71942   0.97552   0.32473   0.01267  Uiso   1.00
Gd15   Gd    0.01997   0.52622   0.17183   0.01267  Uiso   1.00
Gd16   Gd    0.51966   0.52448   0.17528   0.01267  Uiso   1.00
Co1    Co    0.29358   0.03489   0.12759   0.01267  Uiso   1.00
Co2    Co    0.95606   0.46511   0.37241   0.01267  Uiso   1.00
Co3    Co    0.42117   0.87241   0.53489   0.01267  Uiso   1.00
Co4    Co    0.32847   0.62759   0.96511   0.01267  Uiso   1.00
Co5    Co    0.70642   0.96511   0.87241   0.01267  Uiso   1.00
Co6    Co    0.04394   0.53489   0.62759   0.01267  Uiso   1.00
Co7    Co    0.57883   0.12759   0.46511   0.01267  Uiso   1.00
Co8    Co    0.67153   0.37241   0.03489   0.01267  Uiso   1.00
H1     H     0.06480   0.08420   0.18560   0.01267  Uiso   1.00
H2     H     0.04340   0.12770   0.24150   0.01267  Uiso   1.00
H3     H     0.20860   0.12470   0.27830   0.01267  Uiso   1.00
H4     H     0.68370   0.95600   0.20960   0.01267  Uiso   1.00
H5     H     0.73450   0.96210   0.13850   0.01267  Uiso   1.00
H6     H     0.58950   0.00070   0.10270   0.01267  Uiso   1.00
H7     H     0.25350   0.97080   0.20100   0.01267  Uiso   1.00
H8     H     0.35180   0.90380   0.21160   0.01267  Uiso   1.00
H9     H     0.47070   0.86710   0.15510   0.01267  Uiso   1.00
H10    H     0.30180   0.96030   0.97290   0.01267  Uiso   1.00
H11    H     0.34050   0.02750   0.97150   0.01267  Uiso   1.00
H12    H     0.36320   0.05800   0.03160   0.01267  Uiso   1.00
H13    H     0.05620   0.99500   0.11260   0.01267  Uiso   1.00
H14    H     0.93850   0.00190   0.06010   0.01267  Uiso   1.00
H15    H     0.94090   0.06030   0.01850   0.01267  Uiso   1.00
H16    H     0.16150   0.20840   0.12880   0.01267  Uiso   1.00
H17    H     0.35440   0.17960   0.14840   0.01267  Uiso   1.00
H18    H     0.42410   0.10980   0.13820   0.01267  Uiso   1.00
H19    H     0.95240   0.36820   0.87540   0.01267  Uiso   1.00
H20    H     0.03420   0.37400   0.92940   0.01267  Uiso   1.00
H21    H     0.10070   0.31120   0.95780   0.01267  Uiso   1.00
H22    H     0.12060   0.13510   0.85130   0.01267  Uiso   1.00
H23    H     0.27310   0.13520   0.78740   0.01267  Uiso   1.00
H24    H     0.25660   0.20180   0.75920   0.01267  Uiso   1.00
H25    H     0.83460   0.41580   0.31440   0.01267  Uiso   1.00
H26    H     0.91260   0.37230   0.25850   0.01267  Uiso   1.00
H27    H     0.11160   0.37530   0.22170   0.01267  Uiso   1.00
H28    H     0.34930   0.54400   0.29040   0.01267  Uiso   1.00
H29    H     0.33510   0.53790   0.36150   0.01267  Uiso   1.00
H30    H     0.19290   0.49930   0.39730   0.01267  Uiso   1.00
H31    H     0.92530   0.52920   0.29900   0.01267  Uiso   1.00
H32    H     0.96720   0.59620   0.28840   0.01267  Uiso   1.00
H33    H     0.99290   0.63290   0.34490   0.01267  Uiso   1.00
H34    H     0.73500   0.53970   0.52710   0.01267  Uiso   1.00
H35    H     0.83950   0.47250   0.52850   0.01267  Uiso   1.00
H36    H     0.95280   0.44200   0.46840   0.01267  Uiso   1.00
H37    H     0.66380   0.50500   0.38740   0.01267  Uiso   1.00
H38    H     0.50050   0.49810   0.43990   0.01267  Uiso   1.00
H39    H     0.51970   0.43970   0.48150   0.01267  Uiso   1.00
H40    H     0.99870   0.29160   0.37120   0.01267  Uiso   1.00
H41    H     0.18240   0.32040   0.35160   0.01267  Uiso   1.00
H42    H     0.17210   0.39020   0.36180   0.01267  Uiso   1.00
H43    H     0.69600   0.13180   0.62460   0.01267  Uiso   1.00
H44    H     0.83760   0.12600   0.57060   0.01267  Uiso   1.00
H45    H     0.86970   0.18880   0.54220   0.01267  Uiso   1.00
H46    H     0.60700   0.36490   0.64870   0.01267  Uiso   1.00
H47    H     0.69570   0.36480   0.71260   0.01267  Uiso   1.00
H48    H     0.71760   0.29820   0.74080   0.01267  Uiso   1.00
H49    H     0.25040   0.81440   0.58420   0.01267  Uiso   1.00
H50    H     0.28490   0.75850   0.62770   0.01267  Uiso   1.00
H51    H     0.48690   0.72170   0.62470   0.01267  Uiso   1.00
H52    H     0.89330   0.79040   0.45600   0.01267  Uiso   1.00
H53    H     0.87300   0.86150   0.46210   0.01267  Uiso   1.00
H54    H     0.69220   0.89730   0.50070   0.01267  Uiso   1.00
H55    H     0.45450   0.79900   0.47080   0.01267  Uiso   1.00
H56    H     0.56340   0.78840   0.40380   0.01267  Uiso   1.00
H57    H     0.62580   0.84490   0.36710   0.01267  Uiso   1.00
H58    H     0.27470   0.02710   0.46030   0.01267  Uiso   1.00
H59    H     0.31200   0.02850   0.52750   0.01267  Uiso   1.00
H60    H     0.39480   0.96840   0.55800   0.01267  Uiso   1.00
H61    H     0.16880   0.88740   0.49500   0.01267  Uiso   1.00
H62    H     0.99860   0.93990   0.50190   0.01267  Uiso   1.00
H63    H     0.95940   0.98150   0.56030   0.01267  Uiso   1.00
H64    H     0.29030   0.87120   0.70840   0.01267  Uiso   1.00
H65    H     0.50280   0.85160   0.67960   0.01267  Uiso   1.00
H66    H     0.56230   0.86180   0.60980   0.01267  Uiso   1.00
H67    H     0.82780   0.12460   0.86820   0.01267  Uiso   1.00
H68    H     0.96360   0.07060   0.87400   0.01267  Uiso   1.00
H69    H     0.05850   0.04220   0.81120   0.01267  Uiso   1.00
H70    H     0.97190   0.14870   0.63510   0.01267  Uiso   1.00
H71    H     0.06050   0.21260   0.63520   0.01267  Uiso   1.00
H72    H     0.01580   0.24080   0.70180   0.01267  Uiso   1.00
H73    H     0.14900   0.68560   0.91580   0.01267  Uiso   1.00
H74    H     0.17110   0.74150   0.87230   0.01267  Uiso   1.00
H75    H     0.33330   0.77830   0.87530   0.01267  Uiso   1.00
H76    H     0.63970   0.70960   0.04400   0.01267  Uiso   1.00
H77    H     0.69660   0.63850   0.03790   0.01267  Uiso   1.00
H78    H     0.59020   0.60270   0.99930   0.01267  Uiso   1.00
H79    H     0.22430   0.70100   0.02920   0.01267  Uiso   1.00
H80    H     0.25560   0.71160   0.09620   0.01267  Uiso   1.00
H81    H     0.33780   0.65510   0.13290   0.01267  Uiso   1.00
H82    H     0.26210   0.47290   0.03970   0.01267  Uiso   1.00
H83    H     0.36800   0.47150   0.97250   0.01267  Uiso   1.00
H84    H     0.42120   0.53160   0.94200   0.01267  Uiso   1.00
H85    H     0.05120   0.61260   0.00500   0.01267  Uiso   1.00
H86    H     0.94040   0.56010   0.99810   0.01267  Uiso   1.00
H87    H     0.00120   0.51850   0.93970   0.01267  Uiso   1.00
H88    H     0.36990   0.62880   0.79160   0.01267  Uiso   1.00
H89    H     0.53400   0.64840   0.82040   0.01267  Uiso   1.00
H90    H     0.53390   0.63820   0.89020   0.01267  Uiso   1.00
H91    H     0.32060   0.37540   0.63180   0.01267  Uiso   1.00
H92    H     0.40820   0.42940   0.62600   0.01267  Uiso   1.00
H93    H     0.41190   0.45780   0.68880   0.01267  Uiso   1.00
H94    H     0.25570   0.35130   0.86490   0.01267  Uiso   1.00
H95    H     0.40830   0.28740   0.86480   0.01267  Uiso   1.00
H96    H     0.45840   0.25920   0.79820   0.01267  Uiso   1.00
H97    H     0.93520   0.91580   0.81440   0.01267  Uiso   1.00
H98    H     0.95660   0.87230   0.75850   0.01267  Uiso   1.00
H99    H     0.79140   0.87530   0.72170   0.01267  Uiso   1.00
H100   H     0.31630   0.04400   0.79040   0.01267  Uiso   1.00
H101   H     0.26550   0.03790   0.86150   0.01267  Uiso   1.00
H102   H     0.41050   0.99930   0.89730   0.01267  Uiso   1.00
H103   H     0.74650   0.02920   0.79900   0.01267  Uiso   1.00
H104   H     0.64820   0.09620   0.78840   0.01267  Uiso   1.00
H105   H     0.52930   0.13290   0.84490   0.01267  Uiso   1.00
H106   H     0.69820   0.03970   0.02710   0.01267  Uiso   1.00
H107   H     0.65950   0.97250   0.02850   0.01267  Uiso   1.00
H108   H     0.63680   0.94200   0.96840   0.01267  Uiso   1.00
H109   H     0.94380   0.00500   0.88740   0.01267  Uiso   1.00
H110   H     0.06150   0.99810   0.93990   0.01267  Uiso   1.00
H111   H     0.05910   0.93970   0.98150   0.01267  Uiso   1.00
H112   H     0.83850   0.79160   0.87120   0.01267  Uiso   1.00
H113   H     0.64560   0.82040   0.85160   0.01267  Uiso   1.00
H114   H     0.57590   0.89020   0.86180   0.01267  Uiso   1.00
H115   H     0.04760   0.63180   0.12460   0.01267  Uiso   1.00
H116   H     0.96580   0.62600   0.07060   0.01267  Uiso   1.00
H117   H     0.89930   0.68880   0.04220   0.01267  Uiso   1.00
H118   H     0.87940   0.86490   0.14870   0.01267  Uiso   1.00
H119   H     0.72690   0.86480   0.21260   0.01267  Uiso   1.00
H120   H     0.74340   0.79820   0.24080   0.01267  Uiso   1.00
H121   H     0.16540   0.58420   0.68560   0.01267  Uiso   1.00
H122   H     0.08740   0.62770   0.74150   0.01267  Uiso   1.00
H123   H     0.88840   0.62470   0.77830   0.01267  Uiso   1.00
H124   H     0.65070   0.45600   0.70960   0.01267  Uiso   1.00
H125   H     0.66490   0.46210   0.63850   0.01267  Uiso   1.00
H126   H     0.80710   0.50070   0.60270   0.01267  Uiso   1.00
H127   H     0.07470   0.47080   0.70100   0.01267  Uiso   1.00
H128   H     0.03280   0.40380   0.71160   0.01267  Uiso   1.00
H129   H     0.00710   0.36710   0.65510   0.01267  Uiso   1.00
H130   H     0.26500   0.46030   0.47290   0.01267  Uiso   1.00
H131   H     0.16050   0.52750   0.47150   0.01267  Uiso   1.00
H132   H     0.04720   0.55800   0.53160   0.01267  Uiso   1.00
H133   H     0.33620   0.49500   0.61260   0.01267  Uiso   1.00
H134   H     0.49950   0.50190   0.56010   0.01267  Uiso   1.00
H135   H     0.48030   0.56030   0.51850   0.01267  Uiso   1.00
H136   H     0.00130   0.70840   0.62880   0.01267  Uiso   1.00
H137   H     0.81760   0.67960   0.64840   0.01267  Uiso   1.00
H138   H     0.82790   0.60980   0.63820   0.01267  Uiso   1.00
H139   H     0.30400   0.86820   0.37540   0.01267  Uiso   1.00
H140   H     0.16240   0.87400   0.42940   0.01267  Uiso   1.00
H141   H     0.13030   0.81120   0.45780   0.01267  Uiso   1.00
H142   H     0.39300   0.63510   0.35130   0.01267  Uiso   1.00
H143   H     0.30430   0.63520   0.28740   0.01267  Uiso   1.00
H144   H     0.28240   0.70180   0.25920   0.01267  Uiso   1.00
H145   H     0.74960   0.18560   0.41580   0.01267  Uiso   1.00
H146   H     0.71510   0.24150   0.37230   0.01267  Uiso   1.00
H147   H     0.51310   0.27830   0.37530   0.01267  Uiso   1.00
H148   H     0.10670   0.20960   0.54400   0.01267  Uiso   1.00
H149   H     0.12700   0.13850   0.53790   0.01267  Uiso   1.00
H150   H     0.30780   0.10270   0.49930   0.01267  Uiso   1.00
H151   H     0.54550   0.20100   0.52920   0.01267  Uiso   1.00
H152   H     0.43660   0.21160   0.59620   0.01267  Uiso   1.00
H153   H     0.37420   0.15510   0.63290   0.01267  Uiso   1.00
H154   H     0.72530   0.97290   0.53970   0.01267  Uiso   1.00
H155   H     0.68800   0.97150   0.47250   0.01267  Uiso   1.00
H156   H     0.60520   0.03160   0.44200   0.01267  Uiso   1.00
H157   H     0.83120   0.11260   0.50500   0.01267  Uiso   1.00
H158   H     0.00140   0.06010   0.49810   0.01267  Uiso   1.00
H159   H     0.04060   0.01850   0.43970   0.01267  Uiso   1.00
H160   H     0.70970   0.12880   0.29160   0.01267  Uiso   1.00
H161   H     0.49720   0.14840   0.32040   0.01267  Uiso   1.00
H162   H     0.43770   0.13820   0.39020   0.01267  Uiso   1.00
H163   H     0.17220   0.87540   0.13180   0.01267  Uiso   1.00
H164   H     0.03640   0.92940   0.12600   0.01267  Uiso   1.00
H165   H     0.94150   0.95780   0.18880   0.01267  Uiso   1.00
H166   H     0.02810   0.85130   0.36490   0.01267  Uiso   1.00
H167   H     0.93950   0.78740   0.36480   0.01267  Uiso   1.00
H168   H     0.98420   0.75920   0.29820   0.01267  Uiso   1.00
H169   H     0.85100   0.31440   0.08420   0.01267  Uiso   1.00
H170   H     0.82890   0.25850   0.12770   0.01267  Uiso   1.00
H171   H     0.66670   0.22170   0.12470   0.01267  Uiso   1.00
H172   H     0.36030   0.29040   0.95600   0.01267  Uiso   1.00
H173   H     0.30340   0.36150   0.96210   0.01267  Uiso   1.00
H174   H     0.40980   0.39730   0.00070   0.01267  Uiso   1.00
H175   H     0.77570   0.29900   0.97080   0.01267  Uiso   1.00
H176   H     0.74440   0.28840   0.90380   0.01267  Uiso   1.00
H177   H     0.66220   0.34490   0.86710   0.01267  Uiso   1.00
H178   H     0.73790   0.52710   0.96030   0.01267  Uiso   1.00
H179   H     0.63200   0.52850   0.02750   0.01267  Uiso   1.00
H180   H     0.57880   0.46840   0.05800   0.01267  Uiso   1.00
H181   H     0.94880   0.38740   0.99500   0.01267  Uiso   1.00
H182   H     0.05960   0.43990   0.00190   0.01267  Uiso   1.00
H183   H     0.99880   0.48150   0.06030   0.01267  Uiso   1.00
H184   H     0.63010   0.37120   0.20840   0.01267  Uiso   1.00
H185   H     0.46600   0.35160   0.17960   0.01267  Uiso   1.00
H186   H     0.46610   0.36180   0.10980   0.01267  Uiso   1.00
H187   H     0.67940   0.62460   0.36820   0.01267  Uiso   1.00
H188   H     0.59180   0.57060   0.37400   0.01267  Uiso   1.00
H189   H     0.58810   0.54220   0.31120   0.01267  Uiso   1.00
H190   H     0.74430   0.64870   0.13510   0.01267  Uiso   1.00
H191   H     0.59170   0.71260   0.13520   0.01267  Uiso   1.00
H192   H     0.54160   0.74080   0.20180   0.01267  Uiso   1.00
C1     C     0.13180   0.08310   0.20050   0.01267  Uiso   1.00
C2     C     0.48405   0.98916   0.26154   0.01267  Uiso   1.00
C3     C     0.18100   0.24110   0.92990   0.01267  Uiso   1.00
C4     C     0.11850   0.10900   0.23380   0.01267  Uiso   1.00
C5     C     0.21600   0.10710   0.25550   0.01267  Uiso   1.00
C6     C     0.32546   0.07925   0.24383   0.01267  Uiso   1.00
C7     C     0.43481   0.07839   0.26799   0.01267  Uiso   1.00
C8     C     0.33388   0.05377   0.21027   0.01267  Uiso   1.00
C9     C     0.44676   0.02374   0.19334   0.01267  Uiso   1.00
C10    C     0.97720   0.19460   0.90520   0.01267  Uiso   1.00
C11    C     0.52246   0.99714   0.21594   0.01267  Uiso   1.00
C12    C     0.62971   0.97389   0.19489   0.01267  Uiso   1.00
C13    C     0.65830   0.97650   0.15290   0.01267  Uiso   1.00
C14    C     0.57360   0.00050   0.13190   0.01267  Uiso   1.00
C15    C     0.29590   0.95470   0.17810   0.01267  Uiso   1.00
C16    C     0.35670   0.91520   0.18480   0.01267  Uiso   1.00
C17    C     0.42410   0.89340   0.15120   0.01267  Uiso   1.00
C18    C     0.42490   0.90910   0.11170   0.01267  Uiso   1.00
C19    C     0.35290   0.94740   0.10720   0.01267  Uiso   1.00
C20    C     0.34270   0.96820   0.06720   0.01267  Uiso   1.00
C21    C     0.31732   0.94948   0.03288   0.01267  Uiso   1.00
C22    C     0.31659   0.97221   0.99701   0.01267  Uiso   1.00
C23    C     0.33741   0.01224   0.99634   0.01267  Uiso   1.00
C24    C     0.35350   0.03000   0.03180   0.01267  Uiso   1.00
C25    C     0.27572   0.90788   0.03488   0.01267  Uiso   1.00
C26    C     0.51410   0.88560   0.07660   0.01267  Uiso   1.00
C27    C     0.05300   0.01920   0.09640   0.01267  Uiso   1.00
C28    C     0.98470   0.02250   0.06510   0.01267  Uiso   1.00
C29    C     0.98590   0.05730   0.04090   0.01267  Uiso   1.00
C30    C     0.05222   0.08830   0.04846   0.01267  Uiso   1.00
C31    C     0.11011   0.08369   0.08369   0.01267  Uiso   1.00
C32    C     0.17451   0.11460   0.09998   0.01267  Uiso   1.00
C33    C     0.12842   0.15612   0.10544   0.01267  Uiso   1.00
C34    C     0.19365   0.18017   0.12413   0.01267  Uiso   1.00
C35    C     0.30706   0.16318   0.13630   0.01267  Uiso   1.00
C36    C     0.34740   0.12178   0.13002   0.01267  Uiso   1.00
C37    C     0.00542   0.17598   0.09198   0.01267  Uiso   1.00
C38    C     0.06392   0.12275   0.01821   0.01267  Uiso   1.00
C39    C     0.99980   0.34370   0.88370   0.01267  Uiso   1.00
C40    C     0.03770   0.34840   0.91660   0.01267  Uiso   1.00
C41    C     0.08360   0.31200   0.93060   0.01267  Uiso   1.00
C42    C     0.10940   0.27460   0.90920   0.01267  Uiso   1.00
C43    C     0.08010   0.27030   0.87150   0.01267  Uiso   1.00
C44    C     0.11390   0.23250   0.84710   0.01267  Uiso   1.00
C45    C     0.07410   0.19920   0.86440   0.01267  Uiso   1.00
C46    C     0.13830   0.16060   0.84000   0.01267  Uiso   1.00
C47    C     0.22480   0.15900   0.80080   0.01267  Uiso   1.00
C48    C     0.22200   0.19900   0.78720   0.01267  Uiso   1.00
C49    C     0.91540   0.41690   0.29950   0.01267  Uiso   1.00
C50    C     0.23475   0.51084   0.23846   0.01267  Uiso   1.00
C51    C     0.85200   0.25890   0.57010   0.01267  Uiso   1.00
C52    C     0.96130   0.39100   0.26620   0.01267  Uiso   1.00
C53    C     0.07860   0.39290   0.24450   0.01267  Uiso   1.00
C54    C     0.14854   0.42075   0.25617   0.01267  Uiso   1.00
C55    C     0.28119   0.42161   0.23201   0.01267  Uiso   1.00
C56    C     0.09792   0.44623   0.28973   0.01267  Uiso   1.00
C57    C     0.16384   0.47626   0.30666   0.01267  Uiso   1.00
C58    C     0.57700   0.30540   0.59480   0.01267  Uiso   1.00
C59    C     0.23554   0.50286   0.28406   0.01267  Uiso   1.00
C60    C     0.29849   0.52611   0.30511   0.01267  Uiso   1.00
C61    C     0.28770   0.52350   0.34710   0.01267  Uiso   1.00
C62    C     0.20600   0.49950   0.36810   0.01267  Uiso   1.00
C63    C     0.92870   0.54530   0.32190   0.01267  Uiso   1.00
C64    C     0.95670   0.58480   0.31520   0.01267  Uiso   1.00
C65    C     0.96870   0.60660   0.34880   0.01267  Uiso   1.00
C66    C     0.94570   0.59090   0.38830   0.01267  Uiso   1.00
C67    C     0.90750   0.55260   0.39280   0.01267  Uiso   1.00
C68    C     0.87810   0.53180   0.43280   0.01267  Uiso   1.00
C69    C     0.79968   0.55052   0.46712   0.01267  Uiso   1.00
C70    C     0.78581   0.52779   0.50299   0.01267  Uiso   1.00
C71    C     0.84599   0.48776   0.50366   0.01267  Uiso   1.00
C72    C     0.91530   0.47000   0.46820   0.01267  Uiso   1.00
C73    C     0.71848   0.59212   0.46512   0.01267  Uiso   1.00
C74    C     0.97630   0.61440   0.42340   0.01267  Uiso   1.00
C75    C     0.66860   0.48080   0.40360   0.01267  Uiso   1.00
C76    C     0.57230   0.47750   0.43490   0.01267  Uiso   1.00
C77    C     0.58410   0.44270   0.45910   0.01267  Uiso   1.00
C78    C     0.68898   0.41170   0.45154   0.01267  Uiso   1.00
C79    C     0.77749   0.41631   0.41631   0.01267  Uiso   1.00
C80    C     0.88909   0.38540   0.40002   0.01267  Uiso   1.00
C81    C     0.88998   0.34388   0.39456   0.01267  Uiso   1.00
C82    C     0.99795   0.31983   0.37587   0.01267  Uiso   1.00
C83    C     0.10654   0.33682   0.36370   0.01267  Uiso   1.00
C84    C     0.09920   0.37822   0.36998   0.01267  Uiso   1.00
C85    C     0.77338   0.32402   0.40802   0.01267  Uiso   1.00
C86    C     0.70488   0.37725   0.48179   0.01267  Uiso   1.00
C87    C     0.72720   0.15630   0.61630   0.01267  Uiso   1.00
C88    C     0.80270   0.15160   0.58340   0.01267  Uiso   1.00
C89    C     0.82620   0.18800   0.56940   0.01267  Uiso   1.00
C90    C     0.79320   0.22540   0.59080   0.01267  Uiso   1.00
C91    C     0.72190   0.22970   0.62850   0.01267  Uiso   1.00
C92    C     0.69350   0.26750   0.65290   0.01267  Uiso   1.00
C93    C     0.63770   0.30080   0.63560   0.01267  Uiso   1.00
C94    C     0.63890   0.33940   0.66000   0.01267  Uiso   1.00
C95    C     0.68460   0.34100   0.69920   0.01267  Uiso   1.00
C96    C     0.70820   0.30100   0.71280   0.01267  Uiso   1.00
C97    C     0.33230   0.79950   0.58310   0.01267  Uiso   1.00
C98    C     0.74559   0.73846   0.48916   0.01267  Uiso   1.00
C99    C     0.11090   0.07010   0.74110   0.01267  Uiso   1.00
C100   C     0.35230   0.76620   0.60900   0.01267  Uiso   1.00
C101   C     0.47150   0.74450   0.60710   0.01267  Uiso   1.00
C102   C     0.56929   0.75617   0.57925   0.01267  Uiso   1.00
C103   C     0.70280   0.73201   0.57839   0.01267  Uiso   1.00
C104   C     0.54415   0.78973   0.55377   0.01267  Uiso   1.00
C105   C     0.64010   0.80666   0.52374   0.01267  Uiso   1.00
C106   C     0.88240   0.09480   0.69460   0.01267  Uiso   1.00
C107   C     0.73840   0.78406   0.49714   0.01267  Uiso   1.00
C108   C     0.82460   0.80511   0.47389   0.01267  Uiso   1.00
C109   C     0.81120   0.84710   0.47650   0.01267  Uiso   1.00
C110   C     0.70550   0.86810   0.50050   0.01267  Uiso   1.00
C111   C     0.47400   0.82190   0.45470   0.01267  Uiso   1.00
C112   C     0.54150   0.81520   0.41520   0.01267  Uiso   1.00
C113   C     0.57530   0.84880   0.39340   0.01267  Uiso   1.00
C114   C     0.53660   0.88830   0.40910   0.01267  Uiso   1.00
C115   C     0.46010   0.89280   0.44740   0.01267  Uiso   1.00
C116   C     0.40990   0.93280   0.46820   0.01267  Uiso   1.00
C117   C     0.35020   0.96712   0.44948   0.01267  Uiso   1.00
C118   C     0.31360   0.00299   0.47221   0.01267  Uiso   1.00
C119   C     0.33375   0.00366   0.51224   0.01267  Uiso   1.00
C120   C     0.38530   0.96820   0.53000   0.01267  Uiso   1.00
C121   C     0.31060   0.96512   0.40788   0.01267  Uiso   1.00
C122   C     0.59070   0.92340   0.38560   0.01267  Uiso   1.00
C123   C     0.14940   0.90360   0.51920   0.01267  Uiso   1.00
C124   C     0.04980   0.93490   0.52250   0.01267  Uiso   1.00
C125   C     0.02680   0.95910   0.55730   0.01267  Uiso   1.00
C126   C     0.10068   0.95154   0.58830   0.01267  Uiso   1.00
C127   C     0.19380   0.91631   0.58369   0.01267  Uiso   1.00
C128   C     0.27449   0.90002   0.61460   0.01267  Uiso   1.00
C129   C     0.23386   0.89456   0.65612   0.01267  Uiso   1.00
C130   C     0.31778   0.87587   0.68017   0.01267  Uiso   1.00
C131   C     0.44336   0.86370   0.66318   0.01267  Uiso   1.00
C132   C     0.47742   0.86998   0.62178   0.01267  Uiso   1.00
C133   C     0.09740   0.90802   0.67598   0.01267  Uiso   1.00
C134   C     0.08213   0.98179   0.62275   0.01267  Uiso   1.00
C135   C     0.88350   0.11630   0.84370   0.01267  Uiso   1.00
C136   C     0.95430   0.08340   0.84840   0.01267  Uiso   1.00
C137   C     0.01420   0.06940   0.81200   0.01267  Uiso   1.00
C138   C     0.01860   0.09080   0.77460   0.01267  Uiso   1.00
C139   C     0.95160   0.12850   0.77030   0.01267  Uiso   1.00
C140   C     0.96100   0.15290   0.73250   0.01267  Uiso   1.00
C141   C     0.93850   0.13560   0.69920   0.01267  Uiso   1.00
C142   C     0.97830   0.16000   0.66060   0.01267  Uiso   1.00
C143   C     0.02560   0.19920   0.65900   0.01267  Uiso   1.00
C144   C     0.00920   0.21280   0.69900   0.01267  Uiso   1.00
C145   C     0.21490   0.70050   0.91690   0.01267  Uiso   1.00
C146   C     0.47321   0.76154   0.01084   0.01267  Uiso   1.00
C147   C     0.42210   0.42990   0.75890   0.01267  Uiso   1.00
C148   C     0.22750   0.73380   0.89100   0.01267  Uiso   1.00
C149   C     0.32310   0.75550   0.89290   0.01267  Uiso   1.00
C150   C     0.40471   0.74383   0.92075   0.01267  Uiso   1.00
C151   C     0.51320   0.76799   0.92161   0.01267  Uiso   1.00
C152   C     0.38765   0.71027   0.94623   0.01267  Uiso   1.00
C153   C     0.47050   0.69334   0.97626   0.01267  Uiso   1.00
C154   C     0.17180   0.40520   0.80540   0.01267  Uiso   1.00
C155   C     0.51960   0.71594   0.00286   0.01267  Uiso   1.00
C156   C     0.60360   0.69489   0.02611   0.01267  Uiso   1.00
C157   C     0.63480   0.65290   0.02350   0.01267  Uiso   1.00
C158   C     0.57410   0.63190   0.99950   0.01267  Uiso   1.00
C159   C     0.25060   0.67810   0.04530   0.01267  Uiso   1.00
C160   C     0.27190   0.68480   0.08480   0.01267  Uiso   1.00
C161   C     0.31750   0.65120   0.10660   0.01267  Uiso   1.00
C162   C     0.33400   0.61170   0.09090   0.01267  Uiso   1.00
C163   C     0.30030   0.60720   0.05260   0.01267  Uiso   1.00
C164   C     0.31090   0.56720   0.03180   0.01267  Uiso   1.00
C165   C     0.26680   0.53288   0.05052   0.01267  Uiso   1.00
C166   C     0.28880   0.49701   0.02779   0.01267  Uiso   1.00
C167   C     0.34965   0.49634   0.98776   0.01267  Uiso   1.00
C168   C     0.38350   0.53180   0.97000   0.01267  Uiso   1.00
C169   C     0.18360   0.53488   0.09212   0.01267  Uiso   1.00
C170   C     0.39970   0.57660   0.11440   0.01267  Uiso   1.00
C171   C     0.07220   0.59640   0.98080   0.01267  Uiso   1.00
C172   C     0.00720   0.56510   0.97750   0.01267  Uiso   1.00
C173   C     0.04320   0.54090   0.94270   0.01267  Uiso   1.00
C174   C     0.14052   0.54846   0.91170   0.01267  Uiso   1.00
C175   C     0.19380   0.58369   0.91631   0.01267  Uiso   1.00
C176   C     0.28911   0.59998   0.88540   0.01267  Uiso   1.00
C177   C     0.28454   0.60544   0.84388   0.01267  Uiso   1.00
C178   C     0.37382   0.62413   0.81983   0.01267  Uiso   1.00
C179   C     0.47024   0.63630   0.83682   0.01267  Uiso   1.00
C180   C     0.46918   0.63002   0.87822   0.01267  Uiso   1.00
C181   C     0.18140   0.59198   0.82402   0.01267  Uiso   1.00
C182   C     0.18667   0.51821   0.87725   0.01267  Uiso   1.00
C183   C     0.34350   0.38370   0.65630   0.01267  Uiso   1.00
C184   C     0.38610   0.41660   0.65160   0.01267  Uiso   1.00
C185   C     0.39560   0.43060   0.68800   0.01267  Uiso   1.00
C186   C     0.38400   0.40920   0.72540   0.01267  Uiso   1.00
C187   C     0.35040   0.37150   0.72970   0.01267  Uiso   1.00
C188   C     0.34640   0.34710   0.76750   0.01267  Uiso   1.00
C189   C     0.27330   0.36440   0.80080   0.01267  Uiso   1.00
C190   C     0.29890   0.34000   0.83940   0.01267  Uiso   1.00
C191   C     0.38380   0.30080   0.84100   0.01267  Uiso   1.00
C192   C     0.42100   0.28720   0.80100   0.01267  Uiso   1.00
C193   C     0.86820   0.91690   0.79950   0.01267  Uiso   1.00
C194   C     0.51595   0.01084   0.73846   0.01267  Uiso   1.00
C195   C     0.81900   0.75890   0.07010   0.01267  Uiso   1.00
C196   C     0.88150   0.89100   0.76620   0.01267  Uiso   1.00
C197   C     0.78400   0.89290   0.74450   0.01267  Uiso   1.00
C198   C     0.67454   0.92075   0.75617   0.01267  Uiso   1.00
C199   C     0.56519   0.92161   0.73201   0.01267  Uiso   1.00
C200   C     0.66612   0.94623   0.78973   0.01267  Uiso   1.00
C201   C     0.55324   0.97626   0.80666   0.01267  Uiso   1.00
C202   C     0.02280   0.80540   0.09480   0.01267  Uiso   1.00
C203   C     0.47754   0.00286   0.78406   0.01267  Uiso   1.00
C204   C     0.37029   0.02611   0.80511   0.01267  Uiso   1.00
C205   C     0.34170   0.02350   0.84710   0.01267  Uiso   1.00
C206   C     0.42640   0.99950   0.86810   0.01267  Uiso   1.00
C207   C     0.70410   0.04530   0.82190   0.01267  Uiso   1.00
C208   C     0.64330   0.08480   0.81520   0.01267  Uiso   1.00
C209   C     0.57590   0.10660   0.84880   0.01267  Uiso   1.00
C210   C     0.57510   0.09090   0.88830   0.01267  Uiso   1.00
C211   C     0.64710   0.05260   0.89280   0.01267  Uiso   1.00
C212   C     0.65730   0.03180   0.93280   0.01267  Uiso   1.00
C213   C     0.68268   0.05052   0.96712   0.01267  Uiso   1.00
C214   C     0.68341   0.02779   0.00299   0.01267  Uiso   1.00
C215   C     0.66259   0.98776   0.00366   0.01267  Uiso   1.00
C216   C     0.64650   0.97000   0.96820   0.01267  Uiso   1.00
C217   C     0.72428   0.09212   0.96512   0.01267  Uiso   1.00
C218   C     0.48590   0.11440   0.92340   0.01267  Uiso   1.00
C219   C     0.94700   0.98080   0.90360   0.01267  Uiso   1.00
C220   C     0.01530   0.97750   0.93490   0.01267  Uiso   1.00
C221   C     0.01410   0.94270   0.95910   0.01267  Uiso   1.00
C222   C     0.94778   0.91170   0.95154   0.01267  Uiso   1.00
C223   C     0.88989   0.91631   0.91631   0.01267  Uiso   1.00
C224   C     0.82549   0.88540   0.90002   0.01267  Uiso   1.00
C225   C     0.87158   0.84388   0.89456   0.01267  Uiso   1.00
C226   C     0.80635   0.81983   0.87587   0.01267  Uiso   1.00
C227   C     0.69294   0.83682   0.86370   0.01267  Uiso   1.00
C228   C     0.65260   0.87822   0.86998   0.01267  Uiso   1.00
C229   C     0.99458   0.82402   0.90802   0.01267  Uiso   1.00
C230   C     0.93608   0.87725   0.98179   0.01267  Uiso   1.00
C231   C     0.00020   0.65630   0.11630   0.01267  Uiso   1.00
C232   C     0.96230   0.65160   0.08340   0.01267  Uiso   1.00
C233   C     0.91640   0.68800   0.06940   0.01267  Uiso   1.00
C234   C     0.89060   0.72540   0.09080   0.01267  Uiso   1.00
C235   C     0.91990   0.72970   0.12850   0.01267  Uiso   1.00
C236   C     0.88610   0.76750   0.15290   0.01267  Uiso   1.00
C237   C     0.92590   0.80080   0.13560   0.01267  Uiso   1.00
C238   C     0.86170   0.83940   0.16000   0.01267  Uiso   1.00
C239   C     0.77520   0.84100   0.19920   0.01267  Uiso   1.00
C240   C     0.77800   0.80100   0.21280   0.01267  Uiso   1.00
C241   C     0.08460   0.58310   0.70050   0.01267  Uiso   1.00
C242   C     0.76525   0.48916   0.76154   0.01267  Uiso   1.00
C243   C     0.14800   0.74110   0.42990   0.01267  Uiso   1.00
C244   C     0.03870   0.60900   0.73380   0.01267  Uiso   1.00
C245   C     0.92140   0.60710   0.75550   0.01267  Uiso   1.00
C246   C     0.85146   0.57925   0.74383   0.01267  Uiso   1.00
C247   C     0.71881   0.57839   0.76799   0.01267  Uiso   1.00
C248   C     0.90208   0.55377   0.71027   0.01267  Uiso   1.00
C249   C     0.83616   0.52374   0.69334   0.01267  Uiso   1.00
C250   C     0.42300   0.69460   0.40520   0.01267  Uiso   1.00
C251   C     0.76446   0.49714   0.71594   0.01267  Uiso   1.00
C252   C     0.70151   0.47389   0.69489   0.01267  Uiso   1.00
C253   C     0.71230   0.47650   0.65290   0.01267  Uiso   1.00
C254   C     0.79400   0.50050   0.63190   0.01267  Uiso   1.00
C255   C     0.07130   0.45470   0.67810   0.01267  Uiso   1.00
C256   C     0.04330   0.41520   0.68480   0.01267  Uiso   1.00
C257   C     0.03130   0.39340   0.65120   0.01267  Uiso   1.00
C258   C     0.05430   0.40910   0.61170   0.01267  Uiso   1.00
C259   C     0.09250   0.44740   0.60720   0.01267  Uiso   1.00
C260   C     0.12190   0.46820   0.56720   0.01267  Uiso   1.00
C261   C     0.20032   0.44948   0.53288   0.01267  Uiso   1.00
C262   C     0.21419   0.47221   0.49701   0.01267  Uiso   1.00
C263   C     0.15401   0.51224   0.49634   0.01267  Uiso   1.00
C264   C     0.08470   0.53000   0.53180   0.01267  Uiso   1.00
C265   C     0.28152   0.40788   0.53488   0.01267  Uiso   1.00
C266   C     0.02370   0.38560   0.57660   0.01267  Uiso   1.00
C267   C     0.33140   0.51920   0.59640   0.01267  Uiso   1.00
C268   C     0.42770   0.52250   0.56510   0.01267  Uiso   1.00
C269   C     0.41590   0.55730   0.54090   0.01267  Uiso   1.00
C270   C     0.31102   0.58830   0.54846   0.01267  Uiso   1.00
C271   C     0.22251   0.58369   0.58369   0.01267  Uiso   1.00
C272   C     0.11091   0.61460   0.59998   0.01267  Uiso   1.00
C273   C     0.11002   0.65612   0.60544   0.01267  Uiso   1.00
C274   C     0.00205   0.68017   0.62413   0.01267  Uiso   1.00
C275   C     0.89346   0.66318   0.63630   0.01267  Uiso   1.00
C276   C     0.90080   0.62178   0.63002   0.01267  Uiso   1.00
C277   C     0.22662   0.67598   0.59198   0.01267  Uiso   1.00
C278   C     0.29512   0.62275   0.51821   0.01267  Uiso   1.00
C279   C     0.27280   0.84370   0.38370   0.01267  Uiso   1.00
C280   C     0.19730   0.84840   0.41660   0.01267  Uiso   1.00
C281   C     0.17380   0.81200   0.43060   0.01267  Uiso   1.00
C282   C     0.20680   0.77460   0.40920   0.01267  Uiso   1.00
C283   C     0.27810   0.77030   0.37150   0.01267  Uiso   1.00
C284   C     0.30650   0.73250   0.34710   0.01267  Uiso   1.00
C285   C     0.36230   0.69920   0.36440   0.01267  Uiso   1.00
C286   C     0.36110   0.66060   0.34000   0.01267  Uiso   1.00
C287   C     0.31540   0.65900   0.30080   0.01267  Uiso   1.00
C288   C     0.29180   0.69900   0.28720   0.01267  Uiso   1.00
C289   C     0.66770   0.20050   0.41690   0.01267  Uiso   1.00
C290   C     0.25441   0.26154   0.51084   0.01267  Uiso   1.00
C291   C     0.88910   0.92990   0.25890   0.01267  Uiso   1.00
C292   C     0.64770   0.23380   0.39100   0.01267  Uiso   1.00
C293   C     0.52850   0.25550   0.39290   0.01267  Uiso   1.00
C294   C     0.43071   0.24383   0.42075   0.01267  Uiso   1.00
C295   C     0.29720   0.26799   0.42161   0.01267  Uiso   1.00
C296   C     0.45585   0.21027   0.44623   0.01267  Uiso   1.00
C297   C     0.35990   0.19334   0.47626   0.01267  Uiso   1.00
C298   C     0.11760   0.90520   0.30540   0.01267  Uiso   1.00
C299   C     0.26160   0.21594   0.50286   0.01267  Uiso   1.00
C300   C     0.17540   0.19489   0.52611   0.01267  Uiso   1.00
C301   C     0.18880   0.15290   0.52350   0.01267  Uiso   1.00
C302   C     0.29450   0.13190   0.49950   0.01267  Uiso   1.00
C303   C     0.52600   0.17810   0.54530   0.01267  Uiso   1.00
C304   C     0.45850   0.18480   0.58480   0.01267  Uiso   1.00
C305   C     0.42470   0.15120   0.60660   0.01267  Uiso   1.00
C306   C     0.46340   0.11170   0.59090   0.01267  Uiso   1.00
C307   C     0.53990   0.10720   0.55260   0.01267  Uiso   1.00
C308   C     0.59010   0.06720   0.53180   0.01267  Uiso   1.00
C309   C     0.64980   0.03288   0.55052   0.01267  Uiso   1.00
C310   C     0.68640   0.99701   0.52779   0.01267  Uiso   1.00
C311   C     0.66625   0.99634   0.48776   0.01267  Uiso   1.00
C312   C     0.61470   0.03180   0.47000   0.01267  Uiso   1.00
C313   C     0.68940   0.03488   0.59212   0.01267  Uiso   1.00
C314   C     0.40930   0.07660   0.61440   0.01267  Uiso   1.00
C315   C     0.85060   0.09640   0.48080   0.01267  Uiso   1.00
C316   C     0.95020   0.06510   0.47750   0.01267  Uiso   1.00
C317   C     0.97320   0.04090   0.44270   0.01267  Uiso   1.00
C318   C     0.89932   0.04846   0.41170   0.01267  Uiso   1.00
C319   C     0.80620   0.08369   0.41631   0.01267  Uiso   1.00
C320   C     0.72551   0.09998   0.38540   0.01267  Uiso   1.00
C321   C     0.76614   0.10544   0.34388   0.01267  Uiso   1.00
C322   C     0.68222   0.12413   0.31983   0.01267  Uiso   1.00
C323   C     0.55664   0.13630   0.33682   0.01267  Uiso   1.00
C324   C     0.52258   0.13002   0.37822   0.01267  Uiso   1.00
C325   C     0.90260   0.09198   0.32402   0.01267  Uiso   1.00
C326   C     0.91787   0.01821   0.37725   0.01267  Uiso   1.00
C327   C     0.11650   0.88370   0.15630   0.01267  Uiso   1.00
C328   C     0.04570   0.91660   0.15160   0.01267  Uiso   1.00
C329   C     0.98580   0.93060   0.18800   0.01267  Uiso   1.00
C330   C     0.98140   0.90920   0.22540   0.01267  Uiso   1.00
C331   C     0.04840   0.87150   0.22970   0.01267  Uiso   1.00
C332   C     0.03900   0.84710   0.26750   0.01267  Uiso   1.00
C333   C     0.06150   0.86440   0.30080   0.01267  Uiso   1.00
C334   C     0.02170   0.84000   0.33940   0.01267  Uiso   1.00
C335   C     0.97440   0.80080   0.34100   0.01267  Uiso   1.00
C336   C     0.99080   0.78720   0.30100   0.01267  Uiso   1.00
C337   C     0.78510   0.29950   0.08310   0.01267  Uiso   1.00
C338   C     0.52679   0.23846   0.98916   0.01267  Uiso   1.00
C339   C     0.57790   0.57010   0.24110   0.01267  Uiso   1.00
C340   C     0.77250   0.26620   0.10900   0.01267  Uiso   1.00
C341   C     0.67690   0.24450   0.10710   0.01267  Uiso   1.00
C342   C     0.59529   0.25617   0.07925   0.01267  Uiso   1.00
C343   C     0.48680   0.23201   0.07839   0.01267  Uiso   1.00
C344   C     0.61235   0.28973   0.05377   0.01267  Uiso   1.00
C345   C     0.52950   0.30666   0.02374   0.01267  Uiso   1.00
C346   C     0.82820   0.59480   0.19460   0.01267  Uiso   1.00
C347   C     0.48040   0.28406   0.99714   0.01267  Uiso   1.00
C348   C     0.39640   0.30511   0.97389   0.01267  Uiso   1.00
C349   C     0.36520   0.34710   0.97650   0.01267  Uiso   1.00
C350   C     0.42590   0.36810   0.00050   0.01267  Uiso   1.00
C351   C     0.74940   0.32190   0.95470   0.01267  Uiso   1.00
C352   C     0.72810   0.31520   0.91520   0.01267  Uiso   1.00
C353   C     0.68250   0.34880   0.89340   0.01267  Uiso   1.00
C354   C     0.66600   0.38830   0.90910   0.01267  Uiso   1.00
C355   C     0.69970   0.39280   0.94740   0.01267  Uiso   1.00
C356   C     0.68910   0.43280   0.96820   0.01267  Uiso   1.00
C357   C     0.73320   0.46712   0.94948   0.01267  Uiso   1.00
C358   C     0.71120   0.50299   0.97221   0.01267  Uiso   1.00
C359   C     0.65035   0.50366   0.01224   0.01267  Uiso   1.00
C360   C     0.61650   0.46820   0.03000   0.01267  Uiso   1.00
C361   C     0.81640   0.46512   0.90788   0.01267  Uiso   1.00
C362   C     0.60030   0.42340   0.88560   0.01267  Uiso   1.00
C363   C     0.92780   0.40360   0.01920   0.01267  Uiso   1.00
C364   C     0.99280   0.43490   0.02250   0.01267  Uiso   1.00
C365   C     0.95680   0.45910   0.05730   0.01267  Uiso   1.00
C366   C     0.85948   0.45154   0.08830   0.01267  Uiso   1.00
C367   C     0.80620   0.41631   0.08369   0.01267  Uiso   1.00
C368   C     0.71089   0.40002   0.11460   0.01267  Uiso   1.00
C369   C     0.71546   0.39456   0.15612   0.01267  Uiso   1.00
C370   C     0.62618   0.37587   0.18017   0.01267  Uiso   1.00
C371   C     0.52976   0.36370   0.16318   0.01267  Uiso   1.00
C372   C     0.53082   0.36998   0.12178   0.01267  Uiso   1.00
C373   C     0.81860   0.40802   0.17598   0.01267  Uiso   1.00
C374   C     0.81333   0.48179   0.12275   0.01267  Uiso   1.00
C375   C     0.65650   0.61630   0.34370   0.01267  Uiso   1.00
C376   C     0.61390   0.58340   0.34840   0.01267  Uiso   1.00
C377   C     0.60440   0.56940   0.31200   0.01267  Uiso   1.00
C378   C     0.61600   0.59080   0.27460   0.01267  Uiso   1.00
C379   C     0.64960   0.62850   0.27030   0.01267  Uiso   1.00
C380   C     0.65360   0.65290   0.23250   0.01267  Uiso   1.00
C381   C     0.72670   0.63560   0.19920   0.01267  Uiso   1.00
C382   C     0.70110   0.66000   0.16060   0.01267  Uiso   1.00
C383   C     0.61620   0.69920   0.15900   0.01267  Uiso   1.00
C384   C     0.57900   0.71280   0.19900   0.01267  Uiso   1.00
N1     N     0.23873   0.05628   0.18886   0.01267  Uiso   1.00
N2     N     0.46840   0.02379   0.15181   0.01267  Uiso   1.00
N3     N     0.29459   0.97093   0.14049   0.01267  Uiso   1.00
N4     N     0.35572   0.00866   0.06670   0.01267  Uiso   1.00
N5     N     0.11601   0.04865   0.10553   0.01267  Uiso   1.00
N6     N     0.28259   0.09744   0.11278   0.01267  Uiso   1.00
N7     N     0.17790   0.23440   0.80740   0.01267  Uiso   1.00
N8     N     0.00870   0.31210   0.85630   0.01267  Uiso   1.00
N9     N     0.98387   0.44372   0.31114   0.01267  Uiso   1.00
N10    N     0.14400   0.47621   0.34819   0.01267  Uiso   1.00
N11    N     0.90601   0.52907   0.35951   0.01267  Uiso   1.00
N12    N     0.93108   0.49134   0.43330   0.01267  Uiso   1.00
N13    N     0.77019   0.45135   0.39447   0.01267  Uiso   1.00
N14    N     0.99281   0.40256   0.38722   0.01267  Uiso   1.00
N15    N     0.71970   0.26560   0.69260   0.01267  Uiso   1.00
N16    N     0.67710   0.18790   0.64370   0.01267  Uiso   1.00
N17    N     0.42759   0.81114   0.55628   0.01267  Uiso   1.00
N18    N     0.62021   0.84819   0.52379   0.01267  Uiso   1.00
N19    N     0.43508   0.85951   0.47093   0.01267  Uiso   1.00
N20    N     0.42242   0.93330   0.50866   0.01267  Uiso   1.00
N21    N     0.22154   0.89447   0.54865   0.01267  Uiso   1.00
N22    N     0.39537   0.88722   0.59744   0.01267  Uiso   1.00
N23    N     0.98530   0.19260   0.73440   0.01267  Uiso   1.00
N24    N     0.86500   0.14370   0.81210   0.01267  Uiso   1.00
N25    N     0.29501   0.68886   0.94372   0.01267  Uiso   1.00
N26    N     0.49219   0.65181   0.97621   0.01267  Uiso   1.00
N27    N     0.26552   0.64049   0.02907   0.01267  Uiso   1.00
N28    N     0.36438   0.56670   0.99134   0.01267  Uiso   1.00
N29    N     0.16466   0.60553   0.95135   0.01267  Uiso   1.00
N30    N     0.38003   0.61278   0.90256   0.01267  Uiso   1.00
N31    N     0.41230   0.30740   0.76560   0.01267  Uiso   1.00
N32    N     0.32080   0.35630   0.68790   0.01267  Uiso   1.00
N33    N     0.76127   0.94372   0.81114   0.01267  Uiso   1.00
N34    N     0.53160   0.97621   0.84819   0.01267  Uiso   1.00
N35    N     0.70541   0.02907   0.85951   0.01267  Uiso   1.00
N36    N     0.64428   0.99134   0.93330   0.01267  Uiso   1.00
N37    N     0.88399   0.95135   0.89447   0.01267  Uiso   1.00
N38    N     0.71741   0.90256   0.88722   0.01267  Uiso   1.00
N39    N     0.82210   0.76560   0.19260   0.01267  Uiso   1.00
N40    N     0.99130   0.68790   0.14370   0.01267  Uiso   1.00
N41    N     0.01613   0.55628   0.68886   0.01267  Uiso   1.00
N42    N     0.85600   0.52379   0.65181   0.01267  Uiso   1.00
N43    N     0.09399   0.47093   0.64049   0.01267  Uiso   1.00
N44    N     0.06892   0.50866   0.56670   0.01267  Uiso   1.00
N45    N     0.22981   0.54865   0.60553   0.01267  Uiso   1.00
N46    N     0.00719   0.59744   0.61278   0.01267  Uiso   1.00
N47    N     0.28030   0.73440   0.30740   0.01267  Uiso   1.00
N48    N     0.32290   0.81210   0.35630   0.01267  Uiso   1.00
N49    N     0.57241   0.18886   0.44372   0.01267  Uiso   1.00
N50    N     0.37979   0.15181   0.47621   0.01267  Uiso   1.00
N51    N     0.56492   0.14049   0.52907   0.01267  Uiso   1.00
N52    N     0.57758   0.06670   0.49134   0.01267  Uiso   1.00
N53    N     0.77846   0.10553   0.45135   0.01267  Uiso   1.00
N54    N     0.60463   0.11278   0.40256   0.01267  Uiso   1.00
N55    N     0.01470   0.80740   0.26560   0.01267  Uiso   1.00
N56    N     0.13500   0.85630   0.18790   0.01267  Uiso   1.00
N57    N     0.70499   0.31114   0.05628   0.01267  Uiso   1.00
N58    N     0.50781   0.34819   0.02379   0.01267  Uiso   1.00
N59    N     0.73448   0.35951   0.97093   0.01267  Uiso   1.00
N60    N     0.63562   0.43330   0.00866   0.01267  Uiso   1.00
N61    N     0.83534   0.39447   0.04865   0.01267  Uiso   1.00
N62    N     0.61997   0.38722   0.09744   0.01267  Uiso   1.00
N63    N     0.58770   0.69260   0.23440   0.01267  Uiso   1.00
N64    N     0.67920   0.64370   0.31210   0.01267  Uiso   1.00
O1     O     0.40615   0.07796   0.30634   0.01267  Uiso   1.00
O2     O     0.54196   0.07820   0.24768   0.01267  Uiso   1.00
O3     O     0.36670   0.99271   0.27389   0.01267  Uiso   1.00
O4     O     0.56740   0.97802   0.28198   0.01267  Uiso   1.00
O5     O     0.52513   0.84634   0.07820   0.01267  Uiso   1.00
O6     O     0.57807   0.90374   0.04992   0.01267  Uiso   1.00
O7     O     0.33942   0.87856   0.01300   0.01267  Uiso   1.00
O8     O     0.17219   0.90419   0.05663   0.01267  Uiso   1.00
O9     O     0.00613   0.21011   0.07343   0.01267  Uiso   1.00
O10    O     0.91276   0.15705   0.09963   0.01267  Uiso   1.00
O11    O     0.16075   0.13824   0.01486   0.01267  Uiso   1.00
O12    O     0.97858   0.13127   0.99677   0.01267  Uiso   1.00
O13    O     0.97950   0.16270   0.91770   0.01267  Uiso   1.00
O14    O     0.88830   0.22460   0.91500   0.01267  Uiso   1.00
O15    O     0.12926   0.22730   0.96378   0.01267  Uiso   1.00
O16    O     0.29261   0.22641   0.91517   0.01267  Uiso   1.00
O17    O     0.29045   0.42204   0.19366   0.01267  Uiso   1.00
O18    O     0.36784   0.42180   0.25232   0.01267  Uiso   1.00
O19    O     0.13330   0.50729   0.22611   0.01267  Uiso   1.00
O20    O     0.32740   0.52198   0.21802   0.01267  Uiso   1.00
O21    O     0.94967   0.65366   0.42180   0.01267  Uiso   1.00
O22    O     0.03173   0.59626   0.45008   0.01267  Uiso   1.00
O23    O     0.73098   0.62144   0.48700   0.01267  Uiso   1.00
O24    O     0.63301   0.59581   0.44337   0.01267  Uiso   1.00
O25    O     0.78967   0.28989   0.42657   0.01267  Uiso   1.00
O26    O     0.66944   0.34295   0.40037   0.01267  Uiso   1.00
O27    O     0.81385   0.36176   0.48514   0.01267  Uiso   1.00
O28    O     0.60662   0.36873   0.50323   0.01267  Uiso   1.00
O29    O     0.55990   0.33730   0.58230   0.01267  Uiso   1.00
O30    O     0.52790   0.27540   0.58500   0.01267  Uiso   1.00
O31    O     0.82034   0.27270   0.53622   0.01267  Uiso   1.00
O32    O     0.93419   0.27359   0.58483   0.01267  Uiso   1.00
O33    O     0.71249   0.69366   0.57796   0.01267  Uiso   1.00
O34    O     0.78964   0.75232   0.57820   0.01267  Uiso   1.00
O35    O     0.64059   0.72611   0.49271   0.01267  Uiso   1.00
O36    O     0.84938   0.71802   0.47802   0.01267  Uiso   1.00
O37    O     0.60333   0.92180   0.34634   0.01267  Uiso   1.00
O38    O     0.62799   0.95008   0.40374   0.01267  Uiso   1.00
O39    O     0.35242   0.98700   0.37856   0.01267  Uiso   1.00
O40    O     0.22882   0.94337   0.40419   0.01267  Uiso   1.00
O41    O     0.07956   0.92657   0.71011   0.01267  Uiso   1.00
O42    O     0.01239   0.90037   0.65705   0.01267  Uiso   1.00
O43    O     0.17561   0.98514   0.63824   0.01267  Uiso   1.00
O44    O     0.97535   0.00323   0.63127   0.01267  Uiso   1.00
O45    O     0.89720   0.08230   0.66270   0.01267  Uiso   1.00
O46    O     0.80330   0.08500   0.72460   0.01267  Uiso   1.00
O47    O     0.09304   0.03622   0.72730   0.01267  Uiso   1.00
O48    O     0.20778   0.08483   0.72641   0.01267  Uiso   1.00
O49    O     0.48411   0.80634   0.92204   0.01267  Uiso   1.00
O50    O     0.62016   0.74768   0.92180   0.01267  Uiso   1.00
O51    O     0.35941   0.77389   0.00729   0.01267  Uiso   1.00
O52    O     0.54542   0.78198   0.02198   0.01267  Uiso   1.00
O53    O     0.37147   0.57820   0.15366   0.01267  Uiso   1.00
O54    O     0.48181   0.54992   0.09626   0.01267  Uiso   1.00
O55    O     0.21798   0.51300   0.12144   0.01267  Uiso   1.00
O56    O     0.07638   0.55663   0.09581   0.01267  Uiso   1.00
O57    O     0.21624   0.57343   0.78989   0.01267  Uiso   1.00
O58    O     0.06981   0.59963   0.84295   0.01267  Uiso   1.00
O59    O     0.29899   0.51486   0.86176   0.01267  Uiso   1.00
O60    O     0.10985   0.49677   0.86873   0.01267  Uiso   1.00
O61    O     0.14220   0.41770   0.83730   0.01267  Uiso   1.00
O62    O     0.11290   0.41500   0.77540   0.01267  Uiso   1.00
O63    O     0.35656   0.46378   0.77270   0.01267  Uiso   1.00
O64    O     0.51902   0.41517   0.77359   0.01267  Uiso   1.00
O65    O     0.59385   0.92204   0.69366   0.01267  Uiso   1.00
O66    O     0.45804   0.92180   0.75232   0.01267  Uiso   1.00
O67    O     0.63330   0.00729   0.72611   0.01267  Uiso   1.00
O68    O     0.43260   0.02198   0.71802   0.01267  Uiso   1.00
O69    O     0.47487   0.15366   0.92180   0.01267  Uiso   1.00
O70    O     0.42193   0.09626   0.95008   0.01267  Uiso   1.00
O71    O     0.66058   0.12144   0.98700   0.01267  Uiso   1.00
O72    O     0.82781   0.09581   0.94337   0.01267  Uiso   1.00
O73    O     0.99387   0.78989   0.92657   0.01267  Uiso   1.00
O74    O     0.08724   0.84295   0.90037   0.01267  Uiso   1.00
O75    O     0.83925   0.86176   0.98514   0.01267  Uiso   1.00
O76    O     0.02142   0.86873   0.00323   0.01267  Uiso   1.00
O77    O     0.02050   0.83730   0.08230   0.01267  Uiso   1.00
O78    O     0.11170   0.77540   0.08500   0.01267  Uiso   1.00
O79    O     0.87074   0.77270   0.03622   0.01267  Uiso   1.00
O80    O     0.70739   0.77359   0.08483   0.01267  Uiso   1.00
O81    O     0.70955   0.57796   0.80634   0.01267  Uiso   1.00
O82    O     0.63216   0.57820   0.74768   0.01267  Uiso   1.00
O83    O     0.86670   0.49271   0.77389   0.01267  Uiso   1.00
O84    O     0.67260   0.47802   0.78198   0.01267  Uiso   1.00
O85    O     0.05033   0.34634   0.57820   0.01267  Uiso   1.00
O86    O     0.96827   0.40374   0.54992   0.01267  Uiso   1.00
O87    O     0.26902   0.37856   0.51300   0.01267  Uiso   1.00
O88    O     0.36699   0.40419   0.55663   0.01267  Uiso   1.00
O89    O     0.21033   0.71011   0.57343   0.01267  Uiso   1.00
O90    O     0.33056   0.65705   0.59963   0.01267  Uiso   1.00
O91    O     0.18615   0.63824   0.51486   0.01267  Uiso   1.00
O92    O     0.39338   0.63127   0.49677   0.01267  Uiso   1.00
O93    O     0.44010   0.66270   0.41770   0.01267  Uiso   1.00
O94    O     0.47210   0.72460   0.41500   0.01267  Uiso   1.00
O95    O     0.17966   0.72730   0.46378   0.01267  Uiso   1.00
O96    O     0.06581   0.72641   0.41517   0.01267  Uiso   1.00
O97    O     0.28751   0.30634   0.42204   0.01267  Uiso   1.00
O98    O     0.21036   0.24768   0.42180   0.01267  Uiso   1.00
O99    O     0.35941   0.27389   0.50729   0.01267  Uiso   1.00
O100   O     0.15062   0.28198   0.52198   0.01267  Uiso   1.00
O101   O     0.39667   0.07820   0.65366   0.01267  Uiso   1.00
O102   O     0.37201   0.04992   0.59626   0.01267  Uiso   1.00
O103   O     0.64758   0.01300   0.62144   0.01267  Uiso   1.00
O104   O     0.77118   0.05663   0.59581   0.01267  Uiso   1.00
O105   O     0.92044   0.07343   0.28989   0.01267  Uiso   1.00
O106   O     0.98761   0.09963   0.34295   0.01267  Uiso   1.00
O107   O     0.82439   0.01486   0.36176   0.01267  Uiso   1.00
O108   O     0.02465   0.99677   0.36873   0.01267  Uiso   1.00
O109   O     0.10280   0.91770   0.33730   0.01267  Uiso   1.00
O110   O     0.19670   0.91500   0.27540   0.01267  Uiso   1.00
O111   O     0.90696   0.96378   0.27270   0.01267  Uiso   1.00
O112   O     0.79222   0.91517   0.27359   0.01267  Uiso   1.00
O113   O     0.51589   0.19366   0.07796   0.01267  Uiso   1.00
O114   O     0.37984   0.25232   0.07820   0.01267  Uiso   1.00
O115   O     0.64059   0.22611   0.99271   0.01267  Uiso   1.00
O116   O     0.45458   0.21802   0.97802   0.01267  Uiso   1.00
O117   O     0.62853   0.42180   0.84634   0.01267  Uiso   1.00
O118   O     0.51819   0.45008   0.90374   0.01267  Uiso   1.00
O119   O     0.78202   0.48700   0.87856   0.01267  Uiso   1.00
O120   O     0.92362   0.44337   0.90419   0.01267  Uiso   1.00
O121   O     0.78376   0.42657   0.21011   0.01267  Uiso   1.00
O122   O     0.93019   0.40037   0.15705   0.01267  Uiso   1.00
O123   O     0.70101   0.48514   0.13824   0.01267  Uiso   1.00
O124   O     0.89015   0.50323   0.13127   0.01267  Uiso   1.00
O125   O     0.85780   0.58230   0.16270   0.01267  Uiso   1.00
O126   O     0.88710   0.58500   0.22460   0.01267  Uiso   1.00
O127   O     0.64344   0.53622   0.22730   0.01267  Uiso   1.00
O128   O     0.48098   0.58483   0.22641   0.01267  Uiso   1.00
