data_MIFTIG_clean
_audit_creation_date              2014-07-02
_audit_creation_method            'Materials Studio'
_symmetry_space_group_name_H-M    'P1'
_symmetry_Int_Tables_number       1
_symmetry_cell_setting            triclinic
loop_
_symmetry_equiv_pos_as_xyz
  x,y,z
_cell_length_a                    11.1061
_cell_length_b                    32.9123
_cell_length_c                    32.9123
_cell_angle_alpha                 88.3687
_cell_angle_beta                  80.2864
_cell_angle_gamma                 80.2864
loop_
_atom_site_label
_atom_site_type_symbol
_atom_site_fract_x
_atom_site_fract_y
_atom_site_fract_z
_atom_site_U_iso_or_equiv
_atom_site_adp_type
_atom_site_occupancy
Eu1    Eu    0.21288   0.32874   0.97210   0.01267  Uiso   1.00
Eu2    Eu    0.71145   0.32609   0.97443   0.01267  Uiso   1.00
Eu3    Eu    0.01372   0.17126   0.52790   0.01267  Uiso   1.00
Eu4    Eu    0.51197   0.17391   0.52557   0.01267  Uiso   1.00
Eu5    Eu    0.18498   0.02790   0.82874   0.01267  Uiso   1.00
Eu6    Eu    0.68588   0.02557   0.82609   0.01267  Uiso   1.00
Eu7    Eu    0.54163   0.47209   0.67126   0.01267  Uiso   1.00
Eu8    Eu    0.03754   0.47443   0.67391   0.01267  Uiso   1.00
Eu9    Eu    0.78712   0.67126   0.02790   0.01267  Uiso   1.00
Eu10   Eu    0.28855   0.67391   0.02557   0.01267  Uiso   1.00
Eu11   Eu    0.98628   0.82874   0.47210   0.01267  Uiso   1.00
Eu12   Eu    0.48803   0.82609   0.47443   0.01267  Uiso   1.00
Eu13   Eu    0.81502   0.97210   0.17126   0.01267  Uiso   1.00
Eu14   Eu    0.31412   0.97443   0.17391   0.01267  Uiso   1.00
Eu15   Eu    0.45838   0.52790   0.32874   0.01267  Uiso   1.00
Eu16   Eu    0.96246   0.52557   0.32609   0.01267  Uiso   1.00
Co1    Co    0.41824   0.53614   0.87130   0.01267  Uiso   1.00
Co2    Co    0.32568   0.96386   0.62870   0.01267  Uiso   1.00
Co3    Co    0.28954   0.12870   0.03614   0.01267  Uiso   1.00
Co4    Co    0.95438   0.37130   0.46386   0.01267  Uiso   1.00
Co5    Co    0.58176   0.46386   0.12870   0.01267  Uiso   1.00
Co6    Co    0.67432   0.03614   0.37130   0.01267  Uiso   1.00
Co7    Co    0.71046   0.87130   0.96386   0.01267  Uiso   1.00
Co8    Co    0.04562   0.62870   0.53614   0.01267  Uiso   1.00
H1     H     0.60780   0.36690   0.84330   0.01267  Uiso   1.00
H2     H     0.55510   0.40580   0.78740   0.01267  Uiso   1.00
H3     H     0.44700   0.47230   0.79870   0.01267  Uiso   1.00
H4     H     0.39650   0.55800   0.96800   0.01267  Uiso   1.00
H5     H     0.31310   0.52800   0.02800   0.01267  Uiso   1.00
H6     H     0.27440   0.46140   0.02680   0.01267  Uiso   1.00
H7     H     0.03340   0.43810   0.01770   0.01267  Uiso   1.00
H8     H     0.00240   0.49500   0.06200   0.01267  Uiso   1.00
H9     H     0.82980   0.50290   0.11310   0.01267  Uiso   1.00
H10    H     0.44390   0.38850   0.13910   0.01267  Uiso   1.00
H11    H     0.50140   0.31950   0.14850   0.01267  Uiso   1.00
H12    H     0.70800   0.28980   0.12740   0.01267  Uiso   1.00
H13    H     0.67370   0.21010   0.95570   0.01267  Uiso   1.00
H14    H     0.72360   0.13970   0.96170   0.01267  Uiso   1.00
H15    H     0.58100   0.10450   0.00010   0.01267  Uiso   1.00
H16    H     0.06780   0.18750   0.08670   0.01267  Uiso   1.00
H17    H     0.04600   0.24320   0.12900   0.01267  Uiso   1.00
H18    H     0.20980   0.27950   0.12490   0.01267  Uiso   1.00
H19    H     0.93570   0.18710   0.95770   0.01267  Uiso   1.00
H20    H     0.04860   0.12710   0.92810   0.01267  Uiso   1.00
H21    H     0.17260   0.13440   0.87100   0.01267  Uiso   1.00
H22    H     0.96530   0.29620   0.76080   0.01267  Uiso   1.00
H23    H     0.94230   0.36180   0.78760   0.01267  Uiso   1.00
H24    H     0.03520   0.36430   0.84690   0.01267  Uiso   1.00
H25    H     0.31800   0.13310   0.65670   0.01267  Uiso   1.00
H26    H     0.24830   0.09420   0.71260   0.01267  Uiso   1.00
H27    H     0.21800   0.02770   0.70130   0.01267  Uiso   1.00
H28    H     0.42250   0.94200   0.53200   0.01267  Uiso   1.00
H29    H     0.36910   0.97200   0.47200   0.01267  Uiso   1.00
H30    H     0.26260   0.03860   0.47320   0.01267  Uiso   1.00
H31    H     0.98920   0.06190   0.48230   0.01267  Uiso   1.00
H32    H     0.05940   0.00500   0.43800   0.01267  Uiso   1.00
H33    H     0.94580   0.99710   0.38690   0.01267  Uiso   1.00
H34    H     0.47150   0.11150   0.36090   0.01267  Uiso   1.00
H35    H     0.46940   0.18050   0.35150   0.01267  Uiso   1.00
H36    H     0.62520   0.21020   0.37260   0.01267  Uiso   1.00
H37    H     0.33950   0.28990   0.54430   0.01267  Uiso   1.00
H38    H     0.32500   0.36030   0.53830   0.01267  Uiso   1.00
H39    H     0.18560   0.39550   0.49990   0.01267  Uiso   1.00
H40    H     0.84200   0.31250   0.41330   0.01267  Uiso   1.00
H41    H     0.91820   0.25680   0.37100   0.01267  Uiso   1.00
H42    H     0.11420   0.22050   0.37510   0.01267  Uiso   1.00
H43    H     0.58050   0.31290   0.54230   0.01267  Uiso   1.00
H44    H     0.60380   0.37290   0.57190   0.01267  Uiso   1.00
H45    H     0.67800   0.36560   0.62900   0.01267  Uiso   1.00
H46    H     0.52230   0.20380   0.73920   0.01267  Uiso   1.00
H47    H     0.59170   0.13820   0.71240   0.01267  Uiso   1.00
H48    H     0.74640   0.13570   0.65310   0.01267  Uiso   1.00
H49    H     0.45110   0.15670   0.86690   0.01267  Uiso   1.00
H50    H     0.34250   0.21260   0.90580   0.01267  Uiso   1.00
H51    H     0.24570   0.20130   0.97230   0.01267  Uiso   1.00
H52    H     0.36450   0.03200   0.05800   0.01267  Uiso   1.00
H53    H     0.34110   0.97200   0.02800   0.01267  Uiso   1.00
H54    H     0.30120   0.97320   0.96140   0.01267  Uiso   1.00
H55    H     0.05110   0.98230   0.93810   0.01267  Uiso   1.00
H56    H     0.06440   0.93800   0.99500   0.01267  Uiso   1.00
H57    H     0.94290   0.88690   0.00290   0.01267  Uiso   1.00
H58    H     0.58300   0.86090   0.88850   0.01267  Uiso   1.00
H59    H     0.64990   0.85150   0.81950   0.01267  Uiso   1.00
H60    H     0.83540   0.87260   0.78980   0.01267  Uiso   1.00
H61    H     0.62940   0.04430   0.71010   0.01267  Uiso   1.00
H62    H     0.68530   0.03830   0.63970   0.01267  Uiso   1.00
H63    H     0.58110   0.99990   0.60450   0.01267  Uiso   1.00
H64    H     0.15450   0.91330   0.68750   0.01267  Uiso   1.00
H65    H     0.17500   0.87100   0.74320   0.01267  Uiso   1.00
H66    H     0.33470   0.87510   0.77950   0.01267  Uiso   1.00
H67    H     0.89340   0.04230   0.68710   0.01267  Uiso   1.00
H68    H     0.97670   0.07190   0.62710   0.01267  Uiso   1.00
H69    H     0.04360   0.12900   0.63440   0.01267  Uiso   1.00
H70    H     0.72610   0.23920   0.79620   0.01267  Uiso   1.00
H71    H     0.72990   0.21240   0.86180   0.01267  Uiso   1.00
H72    H     0.88210   0.15310   0.86430   0.01267  Uiso   1.00
H73    H     0.97470   0.34330   0.63310   0.01267  Uiso   1.00
H74    H     0.96090   0.28740   0.59420   0.01267  Uiso   1.00
H75    H     0.91930   0.29870   0.52770   0.01267  Uiso   1.00
H76    H     0.95450   0.46800   0.44200   0.01267  Uiso   1.00
H77    H     0.84110   0.52800   0.47200   0.01267  Uiso   1.00
H78    H     0.73580   0.52680   0.53860   0.01267  Uiso   1.00
H79    H     0.47150   0.51770   0.56190   0.01267  Uiso   1.00
H80    H     0.49740   0.56200   0.50500   0.01267  Uiso   1.00
H81    H     0.33270   0.61310   0.49710   0.01267  Uiso   1.00
H82    H     0.83240   0.63910   0.61150   0.01267  Uiso   1.00
H83    H     0.82090   0.64850   0.68050   0.01267  Uiso   1.00
H84    H     0.99780   0.62740   0.71020   0.01267  Uiso   1.00
H85    H     0.88380   0.45570   0.78990   0.01267  Uiso   1.00
H86    H     0.86330   0.46170   0.86030   0.01267  Uiso   1.00
H87    H     0.68550   0.50010   0.89550   0.01267  Uiso   1.00
H88    H     0.25530   0.58670   0.81250   0.01267  Uiso   1.00
H89    H     0.28920   0.62900   0.75680   0.01267  Uiso   1.00
H90    H     0.48930   0.62490   0.72050   0.01267  Uiso   1.00
H91    H     0.12280   0.45770   0.81290   0.01267  Uiso   1.00
H92    H     0.17570   0.42810   0.87290   0.01267  Uiso   1.00
H93    H     0.30700   0.37100   0.86560   0.01267  Uiso   1.00
H94    H     0.26150   0.26080   0.70380   0.01267  Uiso   1.00
H95    H     0.30410   0.28760   0.63820   0.01267  Uiso   1.00
H96    H     0.39950   0.34690   0.63570   0.01267  Uiso   1.00
H97    H     0.39220   0.63310   0.15670   0.01267  Uiso   1.00
H98    H     0.44490   0.59420   0.21260   0.01267  Uiso   1.00
H99    H     0.55300   0.52770   0.20130   0.01267  Uiso   1.00
H100   H     0.60350   0.44200   0.03200   0.01267  Uiso   1.00
H101   H     0.68690   0.47200   0.97200   0.01267  Uiso   1.00
H102   H     0.72560   0.53860   0.97320   0.01267  Uiso   1.00
H103   H     0.96660   0.56190   0.98230   0.01267  Uiso   1.00
H104   H     0.99760   0.50500   0.93800   0.01267  Uiso   1.00
H105   H     0.17020   0.49710   0.88690   0.01267  Uiso   1.00
H106   H     0.55610   0.61150   0.86090   0.01267  Uiso   1.00
H107   H     0.49860   0.68050   0.85150   0.01267  Uiso   1.00
H108   H     0.29200   0.71020   0.87260   0.01267  Uiso   1.00
H109   H     0.32630   0.78990   0.04430   0.01267  Uiso   1.00
H110   H     0.27640   0.86030   0.03830   0.01267  Uiso   1.00
H111   H     0.41900   0.89550   0.99990   0.01267  Uiso   1.00
H112   H     0.93220   0.81250   0.91330   0.01267  Uiso   1.00
H113   H     0.95400   0.75680   0.87100   0.01267  Uiso   1.00
H114   H     0.79020   0.72050   0.87510   0.01267  Uiso   1.00
H115   H     0.06430   0.81290   0.04230   0.01267  Uiso   1.00
H116   H     0.95140   0.87290   0.07190   0.01267  Uiso   1.00
H117   H     0.82740   0.86560   0.12900   0.01267  Uiso   1.00
H118   H     0.03470   0.70380   0.23920   0.01267  Uiso   1.00
H119   H     0.05770   0.63820   0.21240   0.01267  Uiso   1.00
H120   H     0.96480   0.63570   0.15310   0.01267  Uiso   1.00
H121   H     0.68200   0.86690   0.34330   0.01267  Uiso   1.00
H122   H     0.75170   0.90580   0.28740   0.01267  Uiso   1.00
H123   H     0.78200   0.97230   0.29870   0.01267  Uiso   1.00
H124   H     0.57750   0.05800   0.46800   0.01267  Uiso   1.00
H125   H     0.63090   0.02800   0.52800   0.01267  Uiso   1.00
H126   H     0.73740   0.96140   0.52680   0.01267  Uiso   1.00
H127   H     0.01080   0.93810   0.51770   0.01267  Uiso   1.00
H128   H     0.94060   0.99500   0.56200   0.01267  Uiso   1.00
H129   H     0.05420   0.00290   0.61310   0.01267  Uiso   1.00
H130   H     0.52850   0.88850   0.63910   0.01267  Uiso   1.00
H131   H     0.53060   0.81950   0.64850   0.01267  Uiso   1.00
H132   H     0.37480   0.78980   0.62740   0.01267  Uiso   1.00
H133   H     0.66050   0.71010   0.45570   0.01267  Uiso   1.00
H134   H     0.67500   0.63970   0.46170   0.01267  Uiso   1.00
H135   H     0.81440   0.60450   0.50010   0.01267  Uiso   1.00
H136   H     0.15800   0.68750   0.58670   0.01267  Uiso   1.00
H137   H     0.08180   0.74320   0.62900   0.01267  Uiso   1.00
H138   H     0.88580   0.77950   0.62490   0.01267  Uiso   1.00
H139   H     0.41950   0.68710   0.45770   0.01267  Uiso   1.00
H140   H     0.39620   0.62710   0.42810   0.01267  Uiso   1.00
H141   H     0.32200   0.63440   0.37100   0.01267  Uiso   1.00
H142   H     0.47770   0.79620   0.26080   0.01267  Uiso   1.00
H143   H     0.40830   0.86180   0.28760   0.01267  Uiso   1.00
H144   H     0.25360   0.86430   0.34690   0.01267  Uiso   1.00
H145   H     0.54890   0.84330   0.13310   0.01267  Uiso   1.00
H146   H     0.65750   0.78740   0.09420   0.01267  Uiso   1.00
H147   H     0.75430   0.79870   0.02770   0.01267  Uiso   1.00
H148   H     0.63550   0.96800   0.94200   0.01267  Uiso   1.00
H149   H     0.65890   0.02800   0.97200   0.01267  Uiso   1.00
H150   H     0.69880   0.02680   0.03860   0.01267  Uiso   1.00
H151   H     0.94890   0.01770   0.06190   0.01267  Uiso   1.00
H152   H     0.93560   0.06200   0.00500   0.01267  Uiso   1.00
H153   H     0.05710   0.11310   0.99710   0.01267  Uiso   1.00
H154   H     0.41700   0.13910   0.11150   0.01267  Uiso   1.00
H155   H     0.35010   0.14850   0.18050   0.01267  Uiso   1.00
H156   H     0.16460   0.12740   0.21020   0.01267  Uiso   1.00
H157   H     0.37060   0.95570   0.28990   0.01267  Uiso   1.00
H158   H     0.31470   0.96170   0.36030   0.01267  Uiso   1.00
H159   H     0.41890   0.00010   0.39550   0.01267  Uiso   1.00
H160   H     0.84550   0.08670   0.31250   0.01267  Uiso   1.00
H161   H     0.82500   0.12900   0.25680   0.01267  Uiso   1.00
H162   H     0.66530   0.12490   0.22050   0.01267  Uiso   1.00
H163   H     0.10660   0.95770   0.31290   0.01267  Uiso   1.00
H164   H     0.02330   0.92810   0.37290   0.01267  Uiso   1.00
H165   H     0.95640   0.87100   0.36560   0.01267  Uiso   1.00
H166   H     0.27390   0.76080   0.20380   0.01267  Uiso   1.00
H167   H     0.27010   0.78760   0.13820   0.01267  Uiso   1.00
H168   H     0.11790   0.84690   0.13570   0.01267  Uiso   1.00
H169   H     0.02530   0.65670   0.36690   0.01267  Uiso   1.00
H170   H     0.03910   0.71260   0.40580   0.01267  Uiso   1.00
H171   H     0.08070   0.70130   0.47230   0.01267  Uiso   1.00
H172   H     0.04550   0.53200   0.55800   0.01267  Uiso   1.00
H173   H     0.15890   0.47200   0.52800   0.01267  Uiso   1.00
H174   H     0.26420   0.47320   0.46140   0.01267  Uiso   1.00
H175   H     0.52850   0.48230   0.43810   0.01267  Uiso   1.00
H176   H     0.50260   0.43800   0.49500   0.01267  Uiso   1.00
H177   H     0.66730   0.38690   0.50290   0.01267  Uiso   1.00
H178   H     0.16760   0.36090   0.38850   0.01267  Uiso   1.00
H179   H     0.17910   0.35150   0.31950   0.01267  Uiso   1.00
H180   H     0.00220   0.37260   0.28980   0.01267  Uiso   1.00
H181   H     0.11620   0.54430   0.21010   0.01267  Uiso   1.00
H182   H     0.13670   0.53830   0.13970   0.01267  Uiso   1.00
H183   H     0.31450   0.49990   0.10450   0.01267  Uiso   1.00
H184   H     0.74470   0.41330   0.18750   0.01267  Uiso   1.00
H185   H     0.71080   0.37100   0.24320   0.01267  Uiso   1.00
H186   H     0.51070   0.37510   0.27950   0.01267  Uiso   1.00
H187   H     0.87720   0.54230   0.18710   0.01267  Uiso   1.00
H188   H     0.82430   0.57190   0.12710   0.01267  Uiso   1.00
H189   H     0.69300   0.62900   0.13440   0.01267  Uiso   1.00
H190   H     0.73850   0.73920   0.29620   0.01267  Uiso   1.00
H191   H     0.69590   0.71240   0.36180   0.01267  Uiso   1.00
H192   H     0.60050   0.65310   0.36430   0.01267  Uiso   1.00
C1     C     0.58150   0.38650   0.92190   0.01267  Uiso   1.00
C2     C     0.52829   0.40988   0.88754   0.01267  Uiso   1.00
C3     C     0.56330   0.39350   0.84730   0.01267  Uiso   1.00
C4     C     0.53250   0.41640   0.81400   0.01267  Uiso   1.00
C5     C     0.46603   0.45618   0.82116   0.01267  Uiso   1.00
C6     C     0.45514   0.44869   0.89183   0.01267  Uiso   1.00
C7     C     0.40632   0.46899   0.93217   0.01267  Uiso   1.00
C8     C     0.38536   0.53060   0.96768   0.01267  Uiso   1.00
C9     C     0.33327   0.51303   0.00363   0.01267  Uiso   1.00
C10    C     0.31154   0.47317   0.00295   0.01267  Uiso   1.00
C11    C     0.34558   0.45020   0.96624   0.01267  Uiso   1.00
C12    C     0.30460   0.40885   0.96475   0.01267  Uiso   1.00
C13    C     0.91254   0.37650   0.01742   0.01267  Uiso   1.00
C14    C     0.89654   0.41044   0.04868   0.01267  Uiso   1.00
C15    C     0.97030   0.44080   0.04040   0.01267  Uiso   1.00
C16    C     0.95040   0.47530   0.06590   0.01267  Uiso   1.00
C17    C     0.84930   0.47900   0.09740   0.01267  Uiso   1.00
C18    C     0.80478   0.41489   0.08355   0.01267  Uiso   1.00
C19    C     0.72475   0.38383   0.10027   0.01267  Uiso   1.00
C20    C     0.52618   0.37669   0.13075   0.01267  Uiso   1.00
C21    C     0.55935   0.33551   0.13639   0.01267  Uiso   1.00
C22    C     0.68233   0.31782   0.12352   0.01267  Uiso   1.00
C23    C     0.76657   0.34221   0.10485   0.01267  Uiso   1.00
C24    C     0.89972   0.32210   0.09066   0.01267  Uiso   1.00
C25    C     0.47693   0.26286   0.98888   0.01267  Uiso   1.00
C26    C     0.51473   0.21715   0.99679   0.01267  Uiso   1.00
C27    C     0.62114   0.19576   0.97336   0.01267  Uiso   1.00
C28    C     0.64960   0.15390   0.97590   0.01267  Uiso   1.00
C29    C     0.56590   0.13310   0.00010   0.01267  Uiso   1.00
C30    C     0.44037   0.19441   0.02385   0.01267  Uiso   1.00
C31    C     0.33053   0.21179   0.05435   0.01267  Uiso   1.00
C32    C     0.13266   0.20232   0.08496   0.01267  Uiso   1.00
C33    C     0.11881   0.23540   0.11038   0.01267  Uiso   1.00
C34    C     0.21639   0.25715   0.10767   0.01267  Uiso   1.00
C35    C     0.32306   0.24581   0.07967   0.01267  Uiso   1.00
C36    C     0.43023   0.26986   0.07808   0.01267  Uiso   1.00
C37    C     0.88380   0.26060   0.93000   0.01267  Uiso   1.00
C38    C     0.97600   0.22560   0.91000   0.01267  Uiso   1.00
C39    C     0.98160   0.18780   0.93140   0.01267  Uiso   1.00
C40    C     0.05030   0.15270   0.91530   0.01267  Uiso   1.00
C41    C     0.11800   0.15790   0.88090   0.01267  Uiso   1.00
C42    C     0.04640   0.22830   0.87230   0.01267  Uiso   1.00
C43    C     0.03430   0.26700   0.84700   0.01267  Uiso   1.00
C44    C     0.98070   0.29900   0.78740   0.01267  Uiso   1.00
C45    C     0.97510   0.33840   0.80100   0.01267  Uiso   1.00
C46    C     0.02440   0.33910   0.83730   0.01267  Uiso   1.00
C47    C     0.05950   0.30220   0.86040   0.01267  Uiso   1.00
C48    C     0.11790   0.30680   0.90020   0.01267  Uiso   1.00
C49    C     0.38990   0.11350   0.57810   0.01267  Uiso   1.00
C50    C     0.32571   0.09012   0.61246   0.01267  Uiso   1.00
C51    C     0.30410   0.10650   0.65270   0.01267  Uiso   1.00
C52    C     0.26290   0.08360   0.68600   0.01267  Uiso   1.00
C53    C     0.24337   0.04382   0.67884   0.01267  Uiso   1.00
C54    C     0.29566   0.05131   0.60817   0.01267  Uiso   1.00
C55    C     0.30748   0.03101   0.56783   0.01267  Uiso   1.00
C56    C     0.38364   0.96940   0.53232   0.01267  Uiso   1.00
C57    C     0.34993   0.98697   0.49637   0.01267  Uiso   1.00
C58    C     0.28766   0.02683   0.49705   0.01267  Uiso   1.00
C59    C     0.26202   0.04980   0.53376   0.01267  Uiso   1.00
C60    C     0.17820   0.09115   0.53525   0.01267  Uiso   1.00
C61    C     0.80646   0.12350   0.48258   0.01267  Uiso   1.00
C62    C     0.85566   0.08956   0.45132   0.01267  Uiso   1.00
C63    C     0.95150   0.05920   0.45960   0.01267  Uiso   1.00
C64    C     0.99160   0.02470   0.43410   0.01267  Uiso   1.00
C65    C     0.92570   0.02100   0.40260   0.01267  Uiso   1.00
C66    C     0.80322   0.08511   0.41645   0.01267  Uiso   1.00
C67    C     0.70885   0.11617   0.39973   0.01267  Uiso   1.00
C68    C     0.53362   0.12331   0.36925   0.01267  Uiso   1.00
C69    C     0.53125   0.16449   0.36361   0.01267  Uiso   1.00
C70    C     0.62367   0.18218   0.37648   0.01267  Uiso   1.00
C71    C     0.71363   0.15779   0.39515   0.01267  Uiso   1.00
C72    C     0.81248   0.17790   0.40934   0.01267  Uiso   1.00
C73    C     0.22867   0.23714   0.51112   0.01267  Uiso   1.00
C74    C     0.22867   0.28285   0.50321   0.01267  Uiso   1.00
C75    C     0.29026   0.30424   0.52664   0.01267  Uiso   1.00
C76    C     0.27940   0.34610   0.52410   0.01267  Uiso   1.00
C77    C     0.19910   0.36690   0.49990   0.01267  Uiso   1.00
C78    C     0.15863   0.30559   0.47615   0.01267  Uiso   1.00
C79    C     0.09667   0.28821   0.44565   0.01267  Uiso   1.00
C80    C     0.91994   0.29768   0.41504   0.01267  Uiso   1.00
C81    C     0.96459   0.26460   0.38962   0.01267  Uiso   1.00
C82    C     0.08121   0.24285   0.39233   0.01267  Uiso   1.00
C83    C     0.14854   0.25419   0.42033   0.01267  Uiso   1.00
C84    C     0.27817   0.23014   0.42192   0.01267  Uiso   1.00
C85    C     0.57440   0.23940   0.57000   0.01267  Uiso   1.00
C86    C     0.61160   0.27440   0.59000   0.01267  Uiso   1.00
C87    C     0.60080   0.31220   0.56860   0.01267  Uiso   1.00
C88    C     0.61830   0.34730   0.58470   0.01267  Uiso   1.00
C89    C     0.65680   0.34210   0.61910   0.01267  Uiso   1.00
C90    C     0.64700   0.27170   0.62770   0.01267  Uiso   1.00
C91    C     0.64830   0.23300   0.65300   0.01267  Uiso   1.00
C92    C     0.56710   0.20100   0.71260   0.01267  Uiso   1.00
C93    C     0.61450   0.16160   0.69900   0.01267  Uiso   1.00
C94    C     0.70080   0.16090   0.66270   0.01267  Uiso   1.00
C95    C     0.72210   0.19780   0.63960   0.01267  Uiso   1.00
C96    C     0.82490   0.19320   0.59980   0.01267  Uiso   1.00
C97    C     0.50340   0.07810   0.88650   0.01267  Uiso   1.00
C98    C     0.41583   0.11246   0.90988   0.01267  Uiso   1.00
C99    C     0.41060   0.15270   0.89350   0.01267  Uiso   1.00
C100   C     0.34650   0.18600   0.91640   0.01267  Uiso   1.00
C101   C     0.28719   0.17884   0.95618   0.01267  Uiso   1.00
C102   C     0.34697   0.10817   0.94869   0.01267  Uiso   1.00
C103   C     0.33849   0.06783   0.96899   0.01267  Uiso   1.00
C104   C     0.35304   0.03232   0.03060   0.01267  Uiso   1.00
C105   C     0.33690   0.99637   0.01303   0.01267  Uiso   1.00
C106   C     0.31449   0.99705   0.97317   0.01267  Uiso   1.00
C107   C     0.31182   0.03376   0.95020   0.01267  Uiso   1.00
C108   C     0.26935   0.03525   0.90885   0.01267  Uiso   1.00
C109   C     0.92996   0.98258   0.87650   0.01267  Uiso   1.00
C110   C     0.94522   0.95132   0.91044   0.01267  Uiso   1.00
C111   C     0.01070   0.95960   0.94080   0.01267  Uiso   1.00
C112   C     0.01630   0.93410   0.97530   0.01267  Uiso   1.00
C113   C     0.94670   0.90260   0.97900   0.01267  Uiso   1.00
C114   C     0.88833   0.91645   0.91489   0.01267  Uiso   1.00
C115   C     0.82502   0.89973   0.88383   0.01267  Uiso   1.00
C116   C     0.65693   0.86925   0.87669   0.01267  Uiso   1.00
C117   C     0.69574   0.86361   0.83551   0.01267  Uiso   1.00
C118   C     0.80585   0.87648   0.81782   0.01267  Uiso   1.00
C119   C     0.87142   0.89515   0.84221   0.01267  Uiso   1.00
C120   C     0.99038   0.90934   0.82210   0.01267  Uiso   1.00
C121   C     0.46581   0.01112   0.76286   0.01267  Uiso   1.00
C122   C     0.51152   0.00321   0.71715   0.01267  Uiso   1.00
C123   C     0.59450   0.02664   0.69576   0.01267  Uiso   1.00
C124   C     0.62550   0.02410   0.65390   0.01267  Uiso   1.00
C125   C     0.56600   0.99990   0.63310   0.01267  Uiso   1.00
C126   C     0.46422   0.97615   0.69441   0.01267  Uiso   1.00
C127   C     0.38488   0.94565   0.71179   0.01267  Uiso   1.00
C128   C     0.21762   0.91504   0.70232   0.01267  Uiso   1.00
C129   C     0.22919   0.88962   0.73540   0.01267  Uiso   1.00
C130   C     0.32406   0.89233   0.75715   0.01267  Uiso   1.00
C131   C     0.40273   0.92033   0.74581   0.01267  Uiso   1.00
C132   C     0.50831   0.92192   0.76986   0.01267  Uiso   1.00
C133   C     0.81380   0.07000   0.76060   0.01267  Uiso   1.00
C134   C     0.88600   0.09000   0.72560   0.01267  Uiso   1.00
C135   C     0.91300   0.06860   0.68780   0.01267  Uiso   1.00
C136   C     0.96560   0.08470   0.65270   0.01267  Uiso   1.00
C137   C     0.99890   0.11910   0.65790   0.01267  Uiso   1.00
C138   C     0.91870   0.12770   0.72830   0.01267  Uiso   1.00
C139   C     0.88130   0.15300   0.76700   0.01267  Uiso   1.00
C140   C     0.76810   0.21260   0.79900   0.01267  Uiso   1.00
C141   C     0.77610   0.19900   0.83840   0.01267  Uiso   1.00
C142   C     0.86170   0.16270   0.83910   0.01267  Uiso   1.00
C143   C     0.91990   0.13960   0.80220   0.01267  Uiso   1.00
C144   C     0.01810   0.09980   0.80680   0.01267  Uiso   1.00
C145   C     0.96800   0.42190   0.61350   0.01267  Uiso   1.00
C146   C     0.93817   0.38754   0.59012   0.01267  Uiso   1.00
C147   C     0.95680   0.34730   0.60650   0.01267  Uiso   1.00
C148   C     0.94890   0.31400   0.58360   0.01267  Uiso   1.00
C149   C     0.92221   0.32116   0.54382   0.01267  Uiso   1.00
C150   C     0.90383   0.39183   0.55131   0.01267  Uiso   1.00
C151   C     0.87531   0.43217   0.53101   0.01267  Uiso   1.00
C152   C     0.91596   0.46768   0.46940   0.01267  Uiso   1.00
C153   C     0.84630   0.50363   0.48697   0.01267  Uiso   1.00
C154   C     0.78471   0.50295   0.52683   0.01267  Uiso   1.00
C155   C     0.79578   0.46624   0.54980   0.01267  Uiso   1.00
C156   C     0.71345   0.46475   0.59115   0.01267  Uiso   1.00
C157   C     0.28904   0.51742   0.62350   0.01267  Uiso   1.00
C158   C     0.30698   0.54868   0.58956   0.01267  Uiso   1.00
C159   C     0.41110   0.54040   0.55920   0.01267  Uiso   1.00
C160   C     0.42570   0.56590   0.52470   0.01267  Uiso   1.00
C161   C     0.32830   0.59740   0.52100   0.01267  Uiso   1.00
C162   C     0.21967   0.58355   0.58511   0.01267  Uiso   1.00
C163   C     0.10858   0.60027   0.61617   0.01267  Uiso   1.00
C164   C     0.90287   0.63075   0.62331   0.01267  Uiso   1.00
C165   C     0.89486   0.63639   0.66449   0.01267  Uiso   1.00
C166   C     0.00015   0.62352   0.68218   0.01267  Uiso   1.00
C167   C     0.10878   0.60485   0.65779   0.01267  Uiso   1.00
C168   C     0.22182   0.59066   0.67790   0.01267  Uiso   1.00
C169   C     0.73979   0.48888   0.73714   0.01267  Uiso   1.00
C170   C     0.73188   0.49679   0.78285   0.01267  Uiso   1.00
C171   C     0.81690   0.47336   0.80424   0.01267  Uiso   1.00
C172   C     0.80350   0.47590   0.84610   0.01267  Uiso   1.00
C173   C     0.69900   0.50010   0.86690   0.01267  Uiso   1.00
C174   C     0.63478   0.52385   0.80559   0.01267  Uiso   1.00
C175   C     0.54232   0.55435   0.78821   0.01267  Uiso   1.00
C176   C     0.33498   0.58496   0.79768   0.01267  Uiso   1.00
C177   C     0.35421   0.61038   0.76460   0.01267  Uiso   1.00
C178   C     0.47354   0.60767   0.74285   0.01267  Uiso   1.00
C179   C     0.56887   0.57967   0.75419   0.01267  Uiso   1.00
C180   C     0.70009   0.57808   0.73014   0.01267  Uiso   1.00
C181   C     0.14440   0.43000   0.73940   0.01267  Uiso   1.00
C182   C     0.20160   0.41000   0.77440   0.01267  Uiso   1.00
C183   C     0.16940   0.43140   0.81220   0.01267  Uiso   1.00
C184   C     0.20300   0.41530   0.84730   0.01267  Uiso   1.00
C185   C     0.27590   0.38090   0.84210   0.01267  Uiso   1.00
C186   C     0.27470   0.37230   0.77170   0.01267  Uiso   1.00
C187   C     0.30130   0.34700   0.73300   0.01267  Uiso   1.00
C188   C     0.27970   0.28740   0.70100   0.01267  Uiso   1.00
C189   C     0.31350   0.30100   0.66160   0.01267  Uiso   1.00
C190   C     0.36350   0.33730   0.66090   0.01267  Uiso   1.00
C191   C     0.36170   0.36040   0.69780   0.01267  Uiso   1.00
C192   C     0.42470   0.40020   0.69320   0.01267  Uiso   1.00
C193   C     0.41850   0.61350   0.07810   0.01267  Uiso   1.00
C194   C     0.47171   0.59012   0.11246   0.01267  Uiso   1.00
C195   C     0.43670   0.60650   0.15270   0.01267  Uiso   1.00
C196   C     0.46750   0.58360   0.18600   0.01267  Uiso   1.00
C197   C     0.53397   0.54382   0.17884   0.01267  Uiso   1.00
C198   C     0.54486   0.55131   0.10817   0.01267  Uiso   1.00
C199   C     0.59368   0.53101   0.06783   0.01267  Uiso   1.00
C200   C     0.61464   0.46940   0.03232   0.01267  Uiso   1.00
C201   C     0.66673   0.48697   0.99637   0.01267  Uiso   1.00
C202   C     0.68846   0.52683   0.99705   0.01267  Uiso   1.00
C203   C     0.65442   0.54980   0.03376   0.01267  Uiso   1.00
C204   C     0.69540   0.59115   0.03525   0.01267  Uiso   1.00
C205   C     0.08746   0.62350   0.98258   0.01267  Uiso   1.00
C206   C     0.10346   0.58956   0.95132   0.01267  Uiso   1.00
C207   C     0.02970   0.55920   0.95960   0.01267  Uiso   1.00
C208   C     0.04960   0.52470   0.93410   0.01267  Uiso   1.00
C209   C     0.15070   0.52100   0.90260   0.01267  Uiso   1.00
C210   C     0.19522   0.58511   0.91645   0.01267  Uiso   1.00
C211   C     0.27525   0.61617   0.89973   0.01267  Uiso   1.00
C212   C     0.47382   0.62331   0.86925   0.01267  Uiso   1.00
C213   C     0.44065   0.66449   0.86361   0.01267  Uiso   1.00
C214   C     0.31767   0.68218   0.87648   0.01267  Uiso   1.00
C215   C     0.23343   0.65779   0.89515   0.01267  Uiso   1.00
C216   C     0.10028   0.67790   0.90934   0.01267  Uiso   1.00
C217   C     0.52307   0.73714   0.01112   0.01267  Uiso   1.00
C218   C     0.48527   0.78285   0.00321   0.01267  Uiso   1.00
C219   C     0.37886   0.80424   0.02664   0.01267  Uiso   1.00
C220   C     0.35040   0.84610   0.02410   0.01267  Uiso   1.00
C221   C     0.43410   0.86690   0.99990   0.01267  Uiso   1.00
C222   C     0.55963   0.80559   0.97615   0.01267  Uiso   1.00
C223   C     0.66947   0.78821   0.94565   0.01267  Uiso   1.00
C224   C     0.86734   0.79768   0.91504   0.01267  Uiso   1.00
C225   C     0.88119   0.76460   0.88962   0.01267  Uiso   1.00
C226   C     0.78361   0.74285   0.89233   0.01267  Uiso   1.00
C227   C     0.67694   0.75419   0.92033   0.01267  Uiso   1.00
C228   C     0.56977   0.73014   0.92192   0.01267  Uiso   1.00
C229   C     0.11620   0.73940   0.07000   0.01267  Uiso   1.00
C230   C     0.02400   0.77440   0.09000   0.01267  Uiso   1.00
C231   C     0.01840   0.81220   0.06860   0.01267  Uiso   1.00
C232   C     0.94970   0.84730   0.08470   0.01267  Uiso   1.00
C233   C     0.88200   0.84210   0.11910   0.01267  Uiso   1.00
C234   C     0.95360   0.77170   0.12770   0.01267  Uiso   1.00
C235   C     0.96570   0.73300   0.15300   0.01267  Uiso   1.00
C236   C     0.01930   0.70100   0.21260   0.01267  Uiso   1.00
C237   C     0.02490   0.66160   0.19900   0.01267  Uiso   1.00
C238   C     0.97560   0.66090   0.16270   0.01267  Uiso   1.00
C239   C     0.94050   0.69780   0.13960   0.01267  Uiso   1.00
C240   C     0.88210   0.69320   0.09980   0.01267  Uiso   1.00
C241   C     0.61010   0.88650   0.42190   0.01267  Uiso   1.00
C242   C     0.67429   0.90988   0.38754   0.01267  Uiso   1.00
C243   C     0.69590   0.89350   0.34730   0.01267  Uiso   1.00
C244   C     0.73710   0.91640   0.31400   0.01267  Uiso   1.00
C245   C     0.75663   0.95618   0.32116   0.01267  Uiso   1.00
C246   C     0.70434   0.94869   0.39183   0.01267  Uiso   1.00
C247   C     0.69252   0.96899   0.43217   0.01267  Uiso   1.00
C248   C     0.61636   0.03060   0.46768   0.01267  Uiso   1.00
C249   C     0.65007   0.01303   0.50363   0.01267  Uiso   1.00
C250   C     0.71234   0.97317   0.50295   0.01267  Uiso   1.00
C251   C     0.73798   0.95020   0.46624   0.01267  Uiso   1.00
C252   C     0.82180   0.90885   0.46475   0.01267  Uiso   1.00
C253   C     0.19354   0.87650   0.51742   0.01267  Uiso   1.00
C254   C     0.14434   0.91044   0.54868   0.01267  Uiso   1.00
C255   C     0.04850   0.94080   0.54040   0.01267  Uiso   1.00
C256   C     0.00840   0.97530   0.56590   0.01267  Uiso   1.00
C257   C     0.07430   0.97900   0.59740   0.01267  Uiso   1.00
C258   C     0.19678   0.91489   0.58355   0.01267  Uiso   1.00
C259   C     0.29115   0.88383   0.60027   0.01267  Uiso   1.00
C260   C     0.46638   0.87669   0.63075   0.01267  Uiso   1.00
C261   C     0.46875   0.83551   0.63639   0.01267  Uiso   1.00
C262   C     0.37633   0.81782   0.62352   0.01267  Uiso   1.00
C263   C     0.28637   0.84221   0.60485   0.01267  Uiso   1.00
C264   C     0.18752   0.82210   0.59066   0.01267  Uiso   1.00
C265   C     0.77133   0.76286   0.48888   0.01267  Uiso   1.00
C266   C     0.77133   0.71715   0.49679   0.01267  Uiso   1.00
C267   C     0.70974   0.69576   0.47336   0.01267  Uiso   1.00
C268   C     0.72060   0.65390   0.47590   0.01267  Uiso   1.00
C269   C     0.80090   0.63310   0.50010   0.01267  Uiso   1.00
C270   C     0.84137   0.69441   0.52385   0.01267  Uiso   1.00
C271   C     0.90333   0.71179   0.55435   0.01267  Uiso   1.00
C272   C     0.08006   0.70232   0.58496   0.01267  Uiso   1.00
C273   C     0.03541   0.73540   0.61038   0.01267  Uiso   1.00
C274   C     0.91879   0.75715   0.60767   0.01267  Uiso   1.00
C275   C     0.85146   0.74581   0.57967   0.01267  Uiso   1.00
C276   C     0.72183   0.76986   0.57808   0.01267  Uiso   1.00
C277   C     0.42560   0.76060   0.43000   0.01267  Uiso   1.00
C278   C     0.38840   0.72560   0.41000   0.01267  Uiso   1.00
C279   C     0.39920   0.68780   0.43140   0.01267  Uiso   1.00
C280   C     0.38170   0.65270   0.41530   0.01267  Uiso   1.00
C281   C     0.34320   0.65790   0.38090   0.01267  Uiso   1.00
C282   C     0.35300   0.72830   0.37230   0.01267  Uiso   1.00
C283   C     0.35170   0.76700   0.34700   0.01267  Uiso   1.00
C284   C     0.43290   0.79900   0.28740   0.01267  Uiso   1.00
C285   C     0.38550   0.83840   0.30100   0.01267  Uiso   1.00
C286   C     0.29920   0.83910   0.33730   0.01267  Uiso   1.00
C287   C     0.27790   0.80220   0.36040   0.01267  Uiso   1.00
C288   C     0.17510   0.80680   0.40020   0.01267  Uiso   1.00
C289   C     0.49660   0.92190   0.11350   0.01267  Uiso   1.00
C290   C     0.58417   0.88754   0.09012   0.01267  Uiso   1.00
C291   C     0.58940   0.84730   0.10650   0.01267  Uiso   1.00
C292   C     0.65350   0.81400   0.08360   0.01267  Uiso   1.00
C293   C     0.71281   0.82116   0.04382   0.01267  Uiso   1.00
C294   C     0.65303   0.89183   0.05131   0.01267  Uiso   1.00
C295   C     0.66151   0.93217   0.03101   0.01267  Uiso   1.00
C296   C     0.64696   0.96768   0.96940   0.01267  Uiso   1.00
C297   C     0.66310   0.00363   0.98697   0.01267  Uiso   1.00
C298   C     0.68551   0.00295   0.02683   0.01267  Uiso   1.00
C299   C     0.68818   0.96624   0.04980   0.01267  Uiso   1.00
C300   C     0.73065   0.96475   0.09115   0.01267  Uiso   1.00
C301   C     0.07004   0.01742   0.12350   0.01267  Uiso   1.00
C302   C     0.05478   0.04868   0.08956   0.01267  Uiso   1.00
C303   C     0.98930   0.04040   0.05920   0.01267  Uiso   1.00
C304   C     0.98370   0.06590   0.02470   0.01267  Uiso   1.00
C305   C     0.05330   0.09740   0.02100   0.01267  Uiso   1.00
C306   C     0.11167   0.08355   0.08511   0.01267  Uiso   1.00
C307   C     0.17498   0.10027   0.11617   0.01267  Uiso   1.00
C308   C     0.34307   0.13075   0.12331   0.01267  Uiso   1.00
C309   C     0.30426   0.13639   0.16449   0.01267  Uiso   1.00
C310   C     0.19415   0.12352   0.18218   0.01267  Uiso   1.00
C311   C     0.12858   0.10485   0.15779   0.01267  Uiso   1.00
C312   C     0.00962   0.09066   0.17790   0.01267  Uiso   1.00
C313   C     0.53419   0.98888   0.23714   0.01267  Uiso   1.00
C314   C     0.48848   0.99679   0.28285   0.01267  Uiso   1.00
C315   C     0.40550   0.97336   0.30424   0.01267  Uiso   1.00
C316   C     0.37450   0.97590   0.34610   0.01267  Uiso   1.00
C317   C     0.43400   0.00010   0.36690   0.01267  Uiso   1.00
C318   C     0.53578   0.02385   0.30559   0.01267  Uiso   1.00
C319   C     0.61512   0.05435   0.28821   0.01267  Uiso   1.00
C320   C     0.78238   0.08496   0.29768   0.01267  Uiso   1.00
C321   C     0.77081   0.11038   0.26460   0.01267  Uiso   1.00
C322   C     0.67594   0.10767   0.24285   0.01267  Uiso   1.00
C323   C     0.59727   0.07967   0.25419   0.01267  Uiso   1.00
C324   C     0.49169   0.07808   0.23014   0.01267  Uiso   1.00
C325   C     0.18620   0.93000   0.23940   0.01267  Uiso   1.00
C326   C     0.11400   0.91000   0.27440   0.01267  Uiso   1.00
C327   C     0.08700   0.93140   0.31220   0.01267  Uiso   1.00
C328   C     0.03440   0.91530   0.34730   0.01267  Uiso   1.00
C329   C     0.00110   0.88090   0.34210   0.01267  Uiso   1.00
C330   C     0.08130   0.87230   0.27170   0.01267  Uiso   1.00
C331   C     0.11870   0.84700   0.23300   0.01267  Uiso   1.00
C332   C     0.23190   0.78740   0.20100   0.01267  Uiso   1.00
C333   C     0.22390   0.80100   0.16160   0.01267  Uiso   1.00
C334   C     0.13830   0.83730   0.16090   0.01267  Uiso   1.00
C335   C     0.08010   0.86040   0.19780   0.01267  Uiso   1.00
C336   C     0.98190   0.90020   0.19320   0.01267  Uiso   1.00
C337   C     0.03200   0.57810   0.38650   0.01267  Uiso   1.00
C338   C     0.06183   0.61246   0.40988   0.01267  Uiso   1.00
C339   C     0.04320   0.65270   0.39350   0.01267  Uiso   1.00
C340   C     0.05110   0.68600   0.41640   0.01267  Uiso   1.00
C341   C     0.07779   0.67884   0.45618   0.01267  Uiso   1.00
C342   C     0.09617   0.60817   0.44869   0.01267  Uiso   1.00
C343   C     0.12469   0.56783   0.46899   0.01267  Uiso   1.00
C344   C     0.08404   0.53232   0.53060   0.01267  Uiso   1.00
C345   C     0.15370   0.49637   0.51303   0.01267  Uiso   1.00
C346   C     0.21529   0.49705   0.47317   0.01267  Uiso   1.00
C347   C     0.20422   0.53376   0.45020   0.01267  Uiso   1.00
C348   C     0.28655   0.53525   0.40885   0.01267  Uiso   1.00
C349   C     0.71096   0.48258   0.37650   0.01267  Uiso   1.00
C350   C     0.69302   0.45132   0.41044   0.01267  Uiso   1.00
C351   C     0.58890   0.45960   0.44080   0.01267  Uiso   1.00
C352   C     0.57430   0.43410   0.47530   0.01267  Uiso   1.00
C353   C     0.67170   0.40260   0.47900   0.01267  Uiso   1.00
C354   C     0.78033   0.41645   0.41489   0.01267  Uiso   1.00
C355   C     0.89142   0.39973   0.38383   0.01267  Uiso   1.00
C356   C     0.09713   0.36925   0.37669   0.01267  Uiso   1.00
C357   C     0.10514   0.36361   0.33551   0.01267  Uiso   1.00
C358   C     0.99985   0.37648   0.31782   0.01267  Uiso   1.00
C359   C     0.89122   0.39515   0.34221   0.01267  Uiso   1.00
C360   C     0.77818   0.40934   0.32210   0.01267  Uiso   1.00
C361   C     0.26021   0.51112   0.26286   0.01267  Uiso   1.00
C362   C     0.26812   0.50321   0.21715   0.01267  Uiso   1.00
C363   C     0.18310   0.52664   0.19576   0.01267  Uiso   1.00
C364   C     0.19650   0.52410   0.15390   0.01267  Uiso   1.00
C365   C     0.30100   0.49990   0.13310   0.01267  Uiso   1.00
C366   C     0.36522   0.47615   0.19441   0.01267  Uiso   1.00
C367   C     0.45768   0.44565   0.21179   0.01267  Uiso   1.00
C368   C     0.66502   0.41504   0.20232   0.01267  Uiso   1.00
C369   C     0.64579   0.38962   0.23540   0.01267  Uiso   1.00
C370   C     0.52646   0.39233   0.25715   0.01267  Uiso   1.00
C371   C     0.43113   0.42033   0.24581   0.01267  Uiso   1.00
C372   C     0.29991   0.42192   0.26986   0.01267  Uiso   1.00
C373   C     0.85560   0.57000   0.26060   0.01267  Uiso   1.00
C374   C     0.79840   0.59000   0.22560   0.01267  Uiso   1.00
C375   C     0.83060   0.56860   0.18780   0.01267  Uiso   1.00
C376   C     0.79700   0.58470   0.15270   0.01267  Uiso   1.00
C377   C     0.72410   0.61910   0.15790   0.01267  Uiso   1.00
C378   C     0.72530   0.62770   0.22830   0.01267  Uiso   1.00
C379   C     0.69870   0.65300   0.26700   0.01267  Uiso   1.00
C380   C     0.72030   0.71260   0.29900   0.01267  Uiso   1.00
C381   C     0.68650   0.69900   0.33840   0.01267  Uiso   1.00
C382   C     0.63650   0.66270   0.33910   0.01267  Uiso   1.00
C383   C     0.63830   0.63960   0.30220   0.01267  Uiso   1.00
C384   C     0.57530   0.59980   0.30680   0.01267  Uiso   1.00
N1     N     0.00640   0.26390   0.80910   0.01267  Uiso   1.00
N2     N     0.12600   0.19210   0.85530   0.01267  Uiso   1.00
N3     N     0.23587   0.19021   0.05745   0.01267  Uiso   1.00
N4     N     0.46273   0.15274   0.02380   0.01267  Uiso   1.00
N5     N     0.42020   0.50914   0.93246   0.01267  Uiso   1.00
N6     N     0.42890   0.47197   0.85883   0.01267  Uiso   1.00
N7     N     0.77881   0.44989   0.10609   0.01267  Uiso   1.00
N8     N     0.60580   0.40103   0.11377   0.01267  Uiso   1.00
N9     N     0.57940   0.23610   0.69090   0.01267  Uiso   1.00
N10    N     0.67340   0.30790   0.64470   0.01267  Uiso   1.00
N11    N     0.98353   0.30979   0.44255   0.01267  Uiso   1.00
N12    N     0.13927   0.34726   0.47620   0.01267  Uiso   1.00
N13    N     0.36180   0.99086   0.56754   0.01267  Uiso   1.00
N14    N     0.25970   0.02803   0.64117   0.01267  Uiso   1.00
N15    N     0.83479   0.05011   0.39391   0.01267  Uiso   1.00
N16    N     0.62060   0.09897   0.38623   0.01267  Uiso   1.00
N17    N     0.81550   0.19090   0.76390   0.01267  Uiso   1.00
N18    N     0.98130   0.14470   0.69210   0.01267  Uiso   1.00
N19    N     0.29332   0.94255   0.69021   0.01267  Uiso   1.00
N20    N     0.48653   0.97620   0.65274   0.01267  Uiso   1.00
N21    N     0.35266   0.06754   0.00914   0.01267  Uiso   1.00
N22    N     0.28773   0.14117   0.97197   0.01267  Uiso   1.00
N23    N     0.88490   0.89391   0.94989   0.01267  Uiso   1.00
N24    N     0.71957   0.88623   0.90103   0.01267  Uiso   1.00
N25    N     0.27030   0.30910   0.73610   0.01267  Uiso   1.00
N26    N     0.31810   0.35530   0.80790   0.01267  Uiso   1.00
N27    N     0.42608   0.55745   0.80979   0.01267  Uiso   1.00
N28    N     0.61547   0.52380   0.84726   0.01267  Uiso   1.00
N29    N     0.92934   0.43246   0.49086   0.01267  Uiso   1.00
N30    N     0.90087   0.35883   0.52803   0.01267  Uiso   1.00
N31    N     0.22870   0.60609   0.55011   0.01267  Uiso   1.00
N32    N     0.00683   0.61377   0.59897   0.01267  Uiso   1.00
N33    N     0.99360   0.73610   0.19090   0.01267  Uiso   1.00
N34    N     0.87400   0.80790   0.14470   0.01267  Uiso   1.00
N35    N     0.76413   0.80979   0.94255   0.01267  Uiso   1.00
N36    N     0.53727   0.84726   0.97620   0.01267  Uiso   1.00
N37    N     0.57980   0.49086   0.06754   0.01267  Uiso   1.00
N38    N     0.57110   0.52803   0.14117   0.01267  Uiso   1.00
N39    N     0.22119   0.55011   0.89391   0.01267  Uiso   1.00
N40    N     0.39420   0.59897   0.88623   0.01267  Uiso   1.00
N41    N     0.42060   0.76390   0.30910   0.01267  Uiso   1.00
N42    N     0.32660   0.69210   0.35530   0.01267  Uiso   1.00
N43    N     0.01647   0.69021   0.55745   0.01267  Uiso   1.00
N44    N     0.86073   0.65274   0.52380   0.01267  Uiso   1.00
N45    N     0.63820   0.00914   0.43246   0.01267  Uiso   1.00
N46    N     0.74030   0.97197   0.35883   0.01267  Uiso   1.00
N47    N     0.16521   0.94989   0.60609   0.01267  Uiso   1.00
N48    N     0.37940   0.90103   0.61377   0.01267  Uiso   1.00
N49    N     0.18450   0.80910   0.23610   0.01267  Uiso   1.00
N50    N     0.01870   0.85530   0.30790   0.01267  Uiso   1.00
N51    N     0.70668   0.05745   0.30979   0.01267  Uiso   1.00
N52    N     0.51347   0.02380   0.34726   0.01267  Uiso   1.00
N53    N     0.64734   0.93246   0.99086   0.01267  Uiso   1.00
N54    N     0.71227   0.85883   0.02803   0.01267  Uiso   1.00
N55    N     0.11510   0.10609   0.05011   0.01267  Uiso   1.00
N56    N     0.28043   0.11377   0.09897   0.01267  Uiso   1.00
N57    N     0.72970   0.69090   0.26390   0.01267  Uiso   1.00
N58    N     0.68190   0.64470   0.19210   0.01267  Uiso   1.00
N59    N     0.57392   0.44255   0.19021   0.01267  Uiso   1.00
N60    N     0.38453   0.47620   0.15274   0.01267  Uiso   1.00
N61    N     0.07066   0.56754   0.50914   0.01267  Uiso   1.00
N62    N     0.09913   0.64117   0.47197   0.01267  Uiso   1.00
N63    N     0.77130   0.39391   0.44989   0.01267  Uiso   1.00
N64    N     0.99317   0.38623   0.40103   0.01267  Uiso   1.00
O1     O     0.53571   0.25020   0.07858   0.01267  Uiso   1.00
O2     O     0.40197   0.30839   0.07647   0.01267  Uiso   1.00
O3     O     0.61275   0.40456   0.94954   0.01267  Uiso   1.00
O4     O     0.59770   0.34682   0.91918   0.01267  Uiso   1.00
O5     O     0.56016   0.28333   0.97775   0.01267  Uiso   1.00
O6     O     0.36207   0.27537   0.99209   0.01267  Uiso   1.00
O7     O     0.22159   0.40585   0.94417   0.01267  Uiso   1.00
O8     O     0.35015   0.37934   0.98536   0.01267  Uiso   1.00
O9     O     0.18861   0.27724   0.91274   0.01267  Uiso   1.00
O10    O     0.09718   0.33972   0.91492   0.01267  Uiso   1.00
O11    O     0.01664   0.36726   0.99586   0.01267  Uiso   1.00
O12    O     0.81723   0.36195   0.01459   0.01267  Uiso   1.00
O13    O     0.91807   0.28910   0.07096   0.01267  Uiso   1.00
O14    O     0.98373   0.33987   0.09967   0.01267  Uiso   1.00
O15    O     0.90656   0.27662   0.96146   0.01267  Uiso   1.00
O16    O     0.78862   0.27360   0.91556   0.01267  Uiso   1.00
O17    O     0.36449   0.24980   0.42142   0.01267  Uiso   1.00
O18    O     0.28683   0.19161   0.42353   0.01267  Uiso   1.00
O19    O     0.46685   0.09544   0.55046   0.01267  Uiso   1.00
O20    O     0.36370   0.15318   0.58082   0.01267  Uiso   1.00
O21    O     0.32124   0.21667   0.52225   0.01267  Uiso   1.00
O22    O     0.12953   0.22463   0.50791   0.01267  Uiso   1.00
O23    O     0.07161   0.09415   0.55583   0.01267  Uiso   1.00
O24    O     0.21485   0.12066   0.51464   0.01267  Uiso   1.00
O25    O     0.87859   0.22276   0.58726   0.01267  Uiso   1.00
O26    O     0.85182   0.16028   0.58508   0.01267  Uiso   1.00
O27    O     0.87976   0.13274   0.50414   0.01267  Uiso   1.00
O28    O     0.69377   0.13805   0.48541   0.01267  Uiso   1.00
O29    O     0.77813   0.21090   0.42904   0.01267  Uiso   1.00
O30    O     0.92327   0.16013   0.40033   0.01267  Uiso   1.00
O31    O     0.64464   0.22338   0.53854   0.01267  Uiso   1.00
O32    O     0.47778   0.22640   0.58444   0.01267  Uiso   1.00
O33    O     0.61429   0.92142   0.75020   0.01267  Uiso   1.00
O34    O     0.47844   0.92353   0.80839   0.01267  Uiso   1.00
O35    O     0.56229   0.05046   0.90456   0.01267  Uiso   1.00
O36    O     0.51688   0.08082   0.84682   0.01267  Uiso   1.00
O37    O     0.53791   0.02225   0.78333   0.01267  Uiso   1.00
O38    O     0.35416   0.00791   0.77537   0.01267  Uiso   1.00
O39    O     0.16576   0.05583   0.90585   0.01267  Uiso   1.00
O40    O     0.33551   0.01464   0.87934   0.01267  Uiso   1.00
O41    O     0.10135   0.08726   0.77724   0.01267  Uiso   1.00
O42    O     0.01210   0.08508   0.83972   0.01267  Uiso   1.00
O43    O     0.01250   0.00414   0.86726   0.01267  Uiso   1.00
O44    O     0.83182   0.98541   0.86195   0.01267  Uiso   1.00
O45    O     0.98903   0.92904   0.78910   0.01267  Uiso   1.00
O46    O     0.08340   0.90033   0.83987   0.01267  Uiso   1.00
O47    O     0.86802   0.03854   0.77662   0.01267  Uiso   1.00
O48    O     0.70418   0.08444   0.77360   0.01267  Uiso   1.00
O49    O     0.78591   0.57858   0.74980   0.01267  Uiso   1.00
O50    O     0.71036   0.57647   0.69161   0.01267  Uiso   1.00
O51    O     0.01731   0.44954   0.59544   0.01267  Uiso   1.00
O52    O     0.94452   0.41918   0.65318   0.01267  Uiso   1.00
O53    O     0.84349   0.47775   0.71667   0.01267  Uiso   1.00
O54    O     0.63744   0.49209   0.72463   0.01267  Uiso   1.00
O55    O     0.62744   0.44417   0.59415   0.01267  Uiso   1.00
O56    O     0.72949   0.48536   0.62066   0.01267  Uiso   1.00
O57    O     0.46585   0.41274   0.72276   0.01267  Uiso   1.00
O58    O     0.43690   0.41492   0.66028   0.01267  Uiso   1.00
O59    O     0.38390   0.49586   0.63274   0.01267  Uiso   1.00
O60    O     0.17918   0.51459   0.63805   0.01267  Uiso   1.00
O61    O     0.20717   0.57096   0.71090   0.01267  Uiso   1.00
O62    O     0.32360   0.59967   0.66013   0.01267  Uiso   1.00
O63    O     0.18318   0.46146   0.72338   0.01267  Uiso   1.00
O64    O     0.06222   0.41556   0.72640   0.01267  Uiso   1.00
O65    O     0.46429   0.74980   0.92142   0.01267  Uiso   1.00
O66    O     0.59803   0.69161   0.92353   0.01267  Uiso   1.00
O67    O     0.38725   0.59544   0.05046   0.01267  Uiso   1.00
O68    O     0.40230   0.65318   0.08082   0.01267  Uiso   1.00
O69    O     0.43984   0.71667   0.02225   0.01267  Uiso   1.00
O70    O     0.63793   0.72463   0.00791   0.01267  Uiso   1.00
O71    O     0.77841   0.59415   0.05583   0.01267  Uiso   1.00
O72    O     0.64985   0.62066   0.01464   0.01267  Uiso   1.00
O73    O     0.81139   0.72276   0.08726   0.01267  Uiso   1.00
O74    O     0.90282   0.66028   0.08508   0.01267  Uiso   1.00
O75    O     0.98336   0.63274   0.00414   0.01267  Uiso   1.00
O76    O     0.18277   0.63805   0.98541   0.01267  Uiso   1.00
O77    O     0.08193   0.71090   0.92904   0.01267  Uiso   1.00
O78    O     0.01627   0.66013   0.90033   0.01267  Uiso   1.00
O79    O     0.09344   0.72338   0.03854   0.01267  Uiso   1.00
O80    O     0.21138   0.72640   0.08444   0.01267  Uiso   1.00
O81    O     0.63551   0.75020   0.57858   0.01267  Uiso   1.00
O82    O     0.71317   0.80839   0.57647   0.01267  Uiso   1.00
O83    O     0.53315   0.90456   0.44954   0.01267  Uiso   1.00
O84    O     0.63630   0.84682   0.41918   0.01267  Uiso   1.00
O85    O     0.67876   0.78333   0.47775   0.01267  Uiso   1.00
O86    O     0.87047   0.77537   0.49209   0.01267  Uiso   1.00
O87    O     0.92839   0.90585   0.44417   0.01267  Uiso   1.00
O88    O     0.78515   0.87934   0.48536   0.01267  Uiso   1.00
O89    O     0.12141   0.77724   0.41274   0.01267  Uiso   1.00
O90    O     0.14818   0.83972   0.41492   0.01267  Uiso   1.00
O91    O     0.12024   0.86726   0.49586   0.01267  Uiso   1.00
O92    O     0.30623   0.86195   0.51459   0.01267  Uiso   1.00
O93    O     0.22187   0.78910   0.57096   0.01267  Uiso   1.00
O94    O     0.07673   0.83987   0.59967   0.01267  Uiso   1.00
O95    O     0.35536   0.77662   0.46146   0.01267  Uiso   1.00
O96    O     0.52222   0.77360   0.41556   0.01267  Uiso   1.00
O97    O     0.38571   0.07858   0.24980   0.01267  Uiso   1.00
O98    O     0.52156   0.07647   0.19161   0.01267  Uiso   1.00
O99    O     0.43771   0.94954   0.09544   0.01267  Uiso   1.00
O100   O     0.48312   0.91918   0.15318   0.01267  Uiso   1.00
O101   O     0.46209   0.97775   0.21667   0.01267  Uiso   1.00
O102   O     0.64584   0.99209   0.22463   0.01267  Uiso   1.00
O103   O     0.83424   0.94417   0.09415   0.01267  Uiso   1.00
O104   O     0.66449   0.98536   0.12066   0.01267  Uiso   1.00
O105   O     0.89865   0.91274   0.22276   0.01267  Uiso   1.00
O106   O     0.98790   0.91492   0.16028   0.01267  Uiso   1.00
O107   O     0.98750   0.99586   0.13274   0.01267  Uiso   1.00
O108   O     0.16818   0.01459   0.13805   0.01267  Uiso   1.00
O109   O     0.01097   0.07096   0.21090   0.01267  Uiso   1.00
O110   O     0.91660   0.09967   0.16013   0.01267  Uiso   1.00
O111   O     0.13198   0.96146   0.22338   0.01267  Uiso   1.00
O112   O     0.29582   0.91556   0.22640   0.01267  Uiso   1.00
O113   O     0.21409   0.42142   0.25020   0.01267  Uiso   1.00
O114   O     0.28964   0.42353   0.30839   0.01267  Uiso   1.00
O115   O     0.98269   0.55046   0.40456   0.01267  Uiso   1.00
O116   O     0.05548   0.58082   0.34682   0.01267  Uiso   1.00
O117   O     0.15651   0.52225   0.28333   0.01267  Uiso   1.00
O118   O     0.36256   0.50791   0.27537   0.01267  Uiso   1.00
O119   O     0.37256   0.55583   0.40585   0.01267  Uiso   1.00
O120   O     0.27051   0.51464   0.37934   0.01267  Uiso   1.00
O121   O     0.53415   0.58726   0.27724   0.01267  Uiso   1.00
O122   O     0.56310   0.58508   0.33972   0.01267  Uiso   1.00
O123   O     0.61610   0.50414   0.36726   0.01267  Uiso   1.00
O124   O     0.82082   0.48541   0.36195   0.01267  Uiso   1.00
O125   O     0.79283   0.42904   0.28910   0.01267  Uiso   1.00
O126   O     0.67640   0.40033   0.33987   0.01267  Uiso   1.00
O127   O     0.81682   0.53854   0.27662   0.01267  Uiso   1.00
O128   O     0.93778   0.58444   0.27360   0.01267  Uiso   1.00
