data_MIFTEC_clean
_audit_creation_date              2014-07-02
_audit_creation_method            'Materials Studio'
_symmetry_space_group_name_H-M    'P1'
_symmetry_Int_Tables_number       1
_symmetry_cell_setting            triclinic
loop_
_symmetry_equiv_pos_as_xyz
  x,y,z
_cell_length_a                    11.1834
_cell_length_b                    32.9829
_cell_length_c                    32.9829
_cell_angle_alpha                 88.3530
_cell_angle_beta                  80.2393
_cell_angle_gamma                 80.2393
loop_
_atom_site_label
_atom_site_type_symbol
_atom_site_fract_x
_atom_site_fract_y
_atom_site_fract_z
_atom_site_U_iso_or_equiv
_atom_site_adp_type
_atom_site_occupancy
Sm1    Sm    0.31814   0.97477   0.17363   0.01267  Uiso   1.00
Sm2    Sm    0.81794   0.97200   0.17079   0.01267  Uiso   1.00
Sm3    Sm    0.96654   0.52523   0.32637   0.01267  Uiso   1.00
Sm4    Sm    0.46073   0.52800   0.32920   0.01267  Uiso   1.00
Sm5    Sm    0.49177   0.82637   0.47477   0.01267  Uiso   1.00
Sm6    Sm    0.98872   0.82921   0.47201   0.01267  Uiso   1.00
Sm7    Sm    0.29291   0.67363   0.02523   0.01267  Uiso   1.00
Sm8    Sm    0.78994   0.67079   0.02800   0.01267  Uiso   1.00
Sm9    Sm    0.68186   0.02523   0.82637   0.01267  Uiso   1.00
Sm10   Sm    0.18207   0.02800   0.82920   0.01267  Uiso   1.00
Sm11   Sm    0.03346   0.47477   0.67363   0.01267  Uiso   1.00
Sm12   Sm    0.53928   0.47200   0.67079   0.01267  Uiso   1.00
Sm13   Sm    0.50823   0.17363   0.52523   0.01267  Uiso   1.00
Sm14   Sm    0.01128   0.17079   0.52799   0.01267  Uiso   1.00
Sm15   Sm    0.70709   0.32637   0.97477   0.01267  Uiso   1.00
Sm16   Sm    0.21006   0.32921   0.97201   0.01267  Uiso   1.00
Co1    Co    0.71162   0.87094   0.96391   0.01267  Uiso   1.00
Co2    Co    0.04646   0.62906   0.53610   0.01267  Uiso   1.00
Co3    Co    0.67553   0.03609   0.37094   0.01267  Uiso   1.00
Co4    Co    0.58256   0.46391   0.12905   0.01267  Uiso   1.00
Co5    Co    0.28838   0.12906   0.03610   0.01267  Uiso   1.00
Co6    Co    0.95354   0.37094   0.46391   0.01267  Uiso   1.00
Co7    Co    0.32448   0.96391   0.62905   0.01267  Uiso   1.00
Co8    Co    0.41744   0.53609   0.87095   0.01267  Uiso   1.00
H1     H     0.16820   0.12710   0.20950   0.01267  Uiso   1.00
H2     H     0.35040   0.14840   0.18000   0.01267  Uiso   1.00
H3     H     0.41670   0.13940   0.11100   0.01267  Uiso   1.00
H4     H     0.05400   0.11430   0.99870   0.01267  Uiso   1.00
H5     H     0.93670   0.06310   0.00630   0.01267  Uiso   1.00
H6     H     0.94670   0.01940   0.06300   0.01267  Uiso   1.00
H7     H     0.69810   0.02620   0.03780   0.01267  Uiso   1.00
H8     H     0.65570   0.02710   0.97190   0.01267  Uiso   1.00
H9     H     0.63460   0.96730   0.94270   0.01267  Uiso   1.00
H10    H     0.75740   0.79870   0.02790   0.01267  Uiso   1.00
H11    H     0.65960   0.78800   0.09380   0.01267  Uiso   1.00
H12    H     0.54890   0.84310   0.13170   0.01267  Uiso   1.00
H13    H     0.11450   0.84610   0.13750   0.01267  Uiso   1.00
H14    H     0.25950   0.78630   0.14170   0.01267  Uiso   1.00
H15    H     0.28020   0.76350   0.20810   0.01267  Uiso   1.00
H16    H     0.96010   0.86630   0.36470   0.01267  Uiso   1.00
H17    H     0.01570   0.92730   0.37170   0.01267  Uiso   1.00
H18    H     0.10670   0.95840   0.31360   0.01267  Uiso   1.00
H19    H     0.37520   0.95560   0.28940   0.01267  Uiso   1.00
H20    H     0.32230   0.96130   0.35970   0.01267  Uiso   1.00
H21    H     0.42460   0.99910   0.39450   0.01267  Uiso   1.00
H22    H     0.84510   0.08640   0.31220   0.01267  Uiso   1.00
H23    H     0.82530   0.12840   0.25700   0.01267  Uiso   1.00
H24    H     0.66770   0.12500   0.22080   0.01267  Uiso   1.00
H25    H     0.00480   0.37290   0.29050   0.01267  Uiso   1.00
H26    H     0.17880   0.35160   0.32000   0.01267  Uiso   1.00
H27    H     0.16710   0.36060   0.38900   0.01267  Uiso   1.00
H28    H     0.66700   0.38570   0.50130   0.01267  Uiso   1.00
H29    H     0.50610   0.43690   0.49370   0.01267  Uiso   1.00
H30    H     0.52910   0.48060   0.43700   0.01267  Uiso   1.00
H31    H     0.26210   0.47380   0.46220   0.01267  Uiso   1.00
H32    H     0.15470   0.47290   0.52810   0.01267  Uiso   1.00
H33    H     0.04460   0.53270   0.55730   0.01267  Uiso   1.00
H34    H     0.08400   0.70130   0.47210   0.01267  Uiso   1.00
H35    H     0.04140   0.71200   0.40620   0.01267  Uiso   1.00
H36    H     0.02370   0.65690   0.36830   0.01267  Uiso   1.00
H37    H     0.59810   0.65390   0.36250   0.01267  Uiso   1.00
H38    H     0.68750   0.71370   0.35830   0.01267  Uiso   1.00
H39    H     0.75180   0.73650   0.29190   0.01267  Uiso   1.00
H40    H     0.69110   0.63370   0.13530   0.01267  Uiso   1.00
H41    H     0.81470   0.57270   0.12830   0.01267  Uiso   1.00
H42    H     0.87870   0.54160   0.18640   0.01267  Uiso   1.00
H43    H     0.12020   0.54440   0.21060   0.01267  Uiso   1.00
H44    H     0.14330   0.53870   0.14030   0.01267  Uiso   1.00
H45    H     0.31820   0.50090   0.10550   0.01267  Uiso   1.00
H46    H     0.74370   0.41360   0.18780   0.01267  Uiso   1.00
H47    H     0.71070   0.37160   0.24300   0.01267  Uiso   1.00
H48    H     0.51350   0.37500   0.27920   0.01267  Uiso   1.00
H49    H     0.37770   0.79050   0.62710   0.01267  Uiso   1.00
H50    H     0.53040   0.82000   0.64840   0.01267  Uiso   1.00
H51    H     0.52770   0.88900   0.63940   0.01267  Uiso   1.00
H52    H     0.05270   0.00130   0.61430   0.01267  Uiso   1.00
H53    H     0.94300   0.99370   0.56310   0.01267  Uiso   1.00
H54    H     0.00970   0.93700   0.51940   0.01267  Uiso   1.00
H55    H     0.73590   0.96220   0.52620   0.01267  Uiso   1.00
H56    H     0.62760   0.02810   0.52710   0.01267  Uiso   1.00
H57    H     0.57730   0.05730   0.46730   0.01267  Uiso   1.00
H58    H     0.78530   0.97210   0.29870   0.01267  Uiso   1.00
H59    H     0.75340   0.90620   0.28800   0.01267  Uiso   1.00
H60    H     0.68060   0.86830   0.34310   0.01267  Uiso   1.00
H61    H     0.25200   0.86250   0.34610   0.01267  Uiso   1.00
H62    H     0.40120   0.85830   0.28630   0.01267  Uiso   1.00
H63    H     0.48830   0.79190   0.26350   0.01267  Uiso   1.00
H64    H     0.32480   0.63530   0.36630   0.01267  Uiso   1.00
H65    H     0.38740   0.62830   0.42730   0.01267  Uiso   1.00
H66    H     0.42030   0.68640   0.45840   0.01267  Uiso   1.00
H67    H     0.66460   0.71060   0.45560   0.01267  Uiso   1.00
H68    H     0.68200   0.64030   0.46130   0.01267  Uiso   1.00
H69    H     0.81910   0.60550   0.49910   0.01267  Uiso   1.00
H70    H     0.15730   0.68780   0.58640   0.01267  Uiso   1.00
H71    H     0.08230   0.74300   0.62840   0.01267  Uiso   1.00
H72    H     0.88850   0.77920   0.62500   0.01267  Uiso   1.00
H73    H     0.29530   0.70950   0.87290   0.01267  Uiso   1.00
H74    H     0.49880   0.68000   0.85160   0.01267  Uiso   1.00
H75    H     0.55610   0.61100   0.86060   0.01267  Uiso   1.00
H76    H     0.16830   0.49870   0.88570   0.01267  Uiso   1.00
H77    H     0.99980   0.50630   0.93690   0.01267  Uiso   1.00
H78    H     0.96610   0.56300   0.98060   0.01267  Uiso   1.00
H79    H     0.72430   0.53780   0.97380   0.01267  Uiso   1.00
H80    H     0.68280   0.47190   0.97290   0.01267  Uiso   1.00
H81    H     0.60190   0.44270   0.03270   0.01267  Uiso   1.00
H82    H     0.55610   0.52790   0.20130   0.01267  Uiso   1.00
H83    H     0.44760   0.59380   0.21200   0.01267  Uiso   1.00
H84    H     0.39200   0.63170   0.15690   0.01267  Uiso   1.00
H85    H     0.96060   0.63750   0.15390   0.01267  Uiso   1.00
H86    H     0.04580   0.64170   0.21370   0.01267  Uiso   1.00
H87    H     0.04370   0.70810   0.23650   0.01267  Uiso   1.00
H88    H     0.82640   0.86470   0.13370   0.01267  Uiso   1.00
H89    H     0.94300   0.87170   0.07270   0.01267  Uiso   1.00
H90    H     0.06510   0.81360   0.04160   0.01267  Uiso   1.00
H91    H     0.33080   0.78940   0.04440   0.01267  Uiso   1.00
H92    H     0.28360   0.85970   0.03870   0.01267  Uiso   1.00
H93    H     0.42370   0.89450   0.00090   0.01267  Uiso   1.00
H94    H     0.93150   0.81220   0.91360   0.01267  Uiso   1.00
H95    H     0.95370   0.75700   0.87160   0.01267  Uiso   1.00
H96    H     0.79270   0.72080   0.87500   0.01267  Uiso   1.00
H97    H     0.83180   0.87290   0.79050   0.01267  Uiso   1.00
H98    H     0.64960   0.85160   0.82000   0.01267  Uiso   1.00
H99    H     0.58330   0.86060   0.88900   0.01267  Uiso   1.00
H100   H     0.94600   0.88570   0.00130   0.01267  Uiso   1.00
H101   H     0.06330   0.93690   0.99370   0.01267  Uiso   1.00
H102   H     0.05330   0.98060   0.93700   0.01267  Uiso   1.00
H103   H     0.30190   0.97380   0.96220   0.01267  Uiso   1.00
H104   H     0.34430   0.97290   0.02810   0.01267  Uiso   1.00
H105   H     0.36540   0.03270   0.05730   0.01267  Uiso   1.00
H106   H     0.24260   0.20130   0.97210   0.01267  Uiso   1.00
H107   H     0.34040   0.21200   0.90620   0.01267  Uiso   1.00
H108   H     0.45110   0.15690   0.86830   0.01267  Uiso   1.00
H109   H     0.88550   0.15390   0.86250   0.01267  Uiso   1.00
H110   H     0.74050   0.21370   0.85830   0.01267  Uiso   1.00
H111   H     0.71980   0.23650   0.79190   0.01267  Uiso   1.00
H112   H     0.03990   0.13370   0.63530   0.01267  Uiso   1.00
H113   H     0.98430   0.07270   0.62830   0.01267  Uiso   1.00
H114   H     0.89330   0.04160   0.68640   0.01267  Uiso   1.00
H115   H     0.62480   0.04440   0.71060   0.01267  Uiso   1.00
H116   H     0.67770   0.03870   0.64030   0.01267  Uiso   1.00
H117   H     0.57540   0.00090   0.60550   0.01267  Uiso   1.00
H118   H     0.15490   0.91360   0.68780   0.01267  Uiso   1.00
H119   H     0.17470   0.87160   0.74300   0.01267  Uiso   1.00
H120   H     0.33230   0.87500   0.77920   0.01267  Uiso   1.00
H121   H     0.99520   0.62710   0.70950   0.01267  Uiso   1.00
H122   H     0.82120   0.64840   0.68000   0.01267  Uiso   1.00
H123   H     0.83290   0.63940   0.61100   0.01267  Uiso   1.00
H124   H     0.33300   0.61430   0.49870   0.01267  Uiso   1.00
H125   H     0.49390   0.56310   0.50630   0.01267  Uiso   1.00
H126   H     0.47090   0.51940   0.56300   0.01267  Uiso   1.00
H127   H     0.73790   0.52620   0.53780   0.01267  Uiso   1.00
H128   H     0.84530   0.52710   0.47190   0.01267  Uiso   1.00
H129   H     0.95540   0.46730   0.44270   0.01267  Uiso   1.00
H130   H     0.91600   0.29870   0.52790   0.01267  Uiso   1.00
H131   H     0.95860   0.28800   0.59380   0.01267  Uiso   1.00
H132   H     0.97630   0.34310   0.63170   0.01267  Uiso   1.00
H133   H     0.40190   0.34610   0.63750   0.01267  Uiso   1.00
H134   H     0.31250   0.28630   0.64170   0.01267  Uiso   1.00
H135   H     0.24820   0.26350   0.70810   0.01267  Uiso   1.00
H136   H     0.30890   0.36630   0.86470   0.01267  Uiso   1.00
H137   H     0.18530   0.42730   0.87170   0.01267  Uiso   1.00
H138   H     0.12130   0.45840   0.81360   0.01267  Uiso   1.00
H139   H     0.87980   0.45560   0.78940   0.01267  Uiso   1.00
H140   H     0.85670   0.46130   0.85970   0.01267  Uiso   1.00
H141   H     0.68180   0.49910   0.89450   0.01267  Uiso   1.00
H142   H     0.25630   0.58640   0.81220   0.01267  Uiso   1.00
H143   H     0.28930   0.62840   0.75700   0.01267  Uiso   1.00
H144   H     0.48650   0.62500   0.72080   0.01267  Uiso   1.00
H145   H     0.62230   0.20950   0.37290   0.01267  Uiso   1.00
H146   H     0.46960   0.18000   0.35160   0.01267  Uiso   1.00
H147   H     0.47230   0.11100   0.36060   0.01267  Uiso   1.00
H148   H     0.94730   0.99870   0.38570   0.01267  Uiso   1.00
H149   H     0.05700   0.00630   0.43690   0.01267  Uiso   1.00
H150   H     0.99030   0.06300   0.48060   0.01267  Uiso   1.00
H151   H     0.26410   0.03780   0.47380   0.01267  Uiso   1.00
H152   H     0.37240   0.97190   0.47290   0.01267  Uiso   1.00
H153   H     0.42270   0.94270   0.53270   0.01267  Uiso   1.00
H154   H     0.21470   0.02790   0.70130   0.01267  Uiso   1.00
H155   H     0.24660   0.09380   0.71200   0.01267  Uiso   1.00
H156   H     0.31940   0.13170   0.65690   0.01267  Uiso   1.00
H157   H     0.74800   0.13750   0.65390   0.01267  Uiso   1.00
H158   H     0.59880   0.14170   0.71370   0.01267  Uiso   1.00
H159   H     0.51170   0.20810   0.73650   0.01267  Uiso   1.00
H160   H     0.67520   0.36470   0.63370   0.01267  Uiso   1.00
H161   H     0.61260   0.37170   0.57270   0.01267  Uiso   1.00
H162   H     0.57970   0.31360   0.54160   0.01267  Uiso   1.00
H163   H     0.33540   0.28940   0.54440   0.01267  Uiso   1.00
H164   H     0.31800   0.35970   0.53870   0.01267  Uiso   1.00
H165   H     0.18090   0.39450   0.50090   0.01267  Uiso   1.00
H166   H     0.84270   0.31220   0.41360   0.01267  Uiso   1.00
H167   H     0.91770   0.25700   0.37160   0.01267  Uiso   1.00
H168   H     0.11150   0.22080   0.37500   0.01267  Uiso   1.00
H169   H     0.70470   0.29050   0.12710   0.01267  Uiso   1.00
H170   H     0.50120   0.32000   0.14840   0.01267  Uiso   1.00
H171   H     0.44390   0.38900   0.13940   0.01267  Uiso   1.00
H172   H     0.83170   0.50130   0.11430   0.01267  Uiso   1.00
H173   H     0.00020   0.49370   0.06310   0.01267  Uiso   1.00
H174   H     0.03390   0.43700   0.01940   0.01267  Uiso   1.00
H175   H     0.27570   0.46220   0.02620   0.01267  Uiso   1.00
H176   H     0.31720   0.52810   0.02710   0.01267  Uiso   1.00
H177   H     0.39810   0.55730   0.96730   0.01267  Uiso   1.00
H178   H     0.44390   0.47210   0.79870   0.01267  Uiso   1.00
H179   H     0.55240   0.40620   0.78800   0.01267  Uiso   1.00
H180   H     0.60800   0.36830   0.84310   0.01267  Uiso   1.00
H181   H     0.03940   0.36250   0.84610   0.01267  Uiso   1.00
H182   H     0.95420   0.35830   0.78630   0.01267  Uiso   1.00
H183   H     0.95630   0.29190   0.76350   0.01267  Uiso   1.00
H184   H     0.17360   0.13530   0.86630   0.01267  Uiso   1.00
H185   H     0.05700   0.12830   0.92730   0.01267  Uiso   1.00
H186   H     0.93490   0.18640   0.95840   0.01267  Uiso   1.00
H187   H     0.66920   0.21060   0.95560   0.01267  Uiso   1.00
H188   H     0.71640   0.14030   0.96130   0.01267  Uiso   1.00
H189   H     0.57630   0.10550   0.99910   0.01267  Uiso   1.00
H190   H     0.06850   0.18780   0.08640   0.01267  Uiso   1.00
H191   H     0.04630   0.24300   0.12840   0.01267  Uiso   1.00
H192   H     0.20730   0.27920   0.12500   0.01267  Uiso   1.00
C1     C     0.01196   0.09109   0.17819   0.01267  Uiso   1.00
C2     C     0.13064   0.10529   0.15783   0.01267  Uiso   1.00
C3     C     0.19673   0.12347   0.18147   0.01267  Uiso   1.00
C4     C     0.30495   0.13630   0.16400   0.01267  Uiso   1.00
C5     C     0.34364   0.13084   0.12288   0.01267  Uiso   1.00
C6     C     0.17709   0.10011   0.11611   0.01267  Uiso   1.00
C7     C     0.11275   0.08385   0.08525   0.01267  Uiso   1.00
C8     C     0.05200   0.09819   0.02241   0.01267  Uiso   1.00
C9     C     0.98415   0.06712   0.02598   0.01267  Uiso   1.00
C10    C     0.98879   0.04163   0.06019   0.01267  Uiso   1.00
C11    C     0.05592   0.04915   0.09001   0.01267  Uiso   1.00
C12    C     0.07363   0.01792   0.12322   0.01267  Uiso   1.00
C13    C     0.73291   0.96475   0.09023   0.01267  Uiso   1.00
C14    C     0.68947   0.96604   0.04902   0.01267  Uiso   1.00
C15    C     0.68497   0.00225   0.02621   0.01267  Uiso   1.00
C16    C     0.66143   0.00280   0.98694   0.01267  Uiso   1.00
C17    C     0.64648   0.96712   0.96992   0.01267  Uiso   1.00
C18    C     0.66371   0.93176   0.03082   0.01267  Uiso   1.00
C19    C     0.65536   0.89171   0.05117   0.01267  Uiso   1.00
C20    C     0.71522   0.82116   0.04380   0.01267  Uiso   1.00
C21    C     0.65563   0.81445   0.08309   0.01267  Uiso   1.00
C22    C     0.59106   0.84729   0.10559   0.01267  Uiso   1.00
C23    C     0.58717   0.88675   0.09031   0.01267  Uiso   1.00
C24    C     0.49888   0.92156   0.11348   0.01267  Uiso   1.00
C25    C     0.98605   0.89987   0.19283   0.01267  Uiso   1.00
C26    C     0.08332   0.86162   0.19774   0.01267  Uiso   1.00
C27    C     0.13560   0.83760   0.16280   0.01267  Uiso   1.00
C28    C     0.21820   0.80120   0.16500   0.01267  Uiso   1.00
C29    C     0.23380   0.78920   0.20480   0.01267  Uiso   1.00
C30    C     0.11890   0.84813   0.23367   0.01267  Uiso   1.00
C31    C     0.08300   0.87313   0.27187   0.01267  Uiso   1.00
C32    C     0.00070   0.87780   0.34140   0.01267  Uiso   1.00
C33    C     0.03160   0.91445   0.34615   0.01267  Uiso   1.00
C34    C     0.08760   0.93225   0.31195   0.01267  Uiso   1.00
C35    C     0.11678   0.91112   0.27392   0.01267  Uiso   1.00
C36    C     0.18744   0.93040   0.23852   0.01267  Uiso   1.00
C37    C     0.53822   0.98848   0.23688   0.01267  Uiso   1.00
C38    C     0.49239   0.99654   0.28228   0.01267  Uiso   1.00
C39    C     0.41041   0.97312   0.30366   0.01267  Uiso   1.00
C40    C     0.38115   0.97565   0.34545   0.01267  Uiso   1.00
C41    C     0.43942   0.99941   0.36595   0.01267  Uiso   1.00
C42    C     0.53899   0.02349   0.30513   0.01267  Uiso   1.00
C43    C     0.61747   0.05453   0.28793   0.01267  Uiso   1.00
C44    C     0.78253   0.08461   0.29733   0.01267  Uiso   1.00
C45    C     0.77124   0.10990   0.26462   0.01267  Uiso   1.00
C46    C     0.67807   0.10757   0.24309   0.01267  Uiso   1.00
C47    C     0.59900   0.07938   0.25422   0.01267  Uiso   1.00
C48    C     0.49596   0.07841   0.22947   0.01267  Uiso   1.00
C49    C     0.78124   0.40891   0.32181   0.01267  Uiso   1.00
C50    C     0.89376   0.39471   0.34217   0.01267  Uiso   1.00
C51    C     0.00167   0.37653   0.31853   0.01267  Uiso   1.00
C52    C     0.10525   0.36370   0.33600   0.01267  Uiso   1.00
C53    C     0.09736   0.36916   0.37712   0.01267  Uiso   1.00
C54    C     0.89331   0.39989   0.38389   0.01267  Uiso   1.00
C55    C     0.78185   0.41615   0.41475   0.01267  Uiso   1.00
C56    C     0.67260   0.40181   0.47759   0.01267  Uiso   1.00
C57    C     0.57725   0.43288   0.47402   0.01267  Uiso   1.00
C58    C     0.59061   0.45837   0.43981   0.01267  Uiso   1.00
C59    C     0.69508   0.45085   0.40999   0.01267  Uiso   1.00
C60    C     0.71477   0.48208   0.37678   0.01267  Uiso   1.00
C61    C     0.28789   0.53525   0.40977   0.01267  Uiso   1.00
C62    C     0.20453   0.53396   0.45098   0.01267  Uiso   1.00
C63    C     0.21343   0.49775   0.47379   0.01267  Uiso   1.00
C64    C     0.15117   0.49720   0.51306   0.01267  Uiso   1.00
C65    C     0.08352   0.53288   0.53008   0.01267  Uiso   1.00
C66    C     0.12629   0.56824   0.46918   0.01267  Uiso   1.00
C67    C     0.09824   0.60829   0.44883   0.01267  Uiso   1.00
C68    C     0.08018   0.67884   0.45620   0.01267  Uiso   1.00
C69    C     0.05317   0.68555   0.41691   0.01267  Uiso   1.00
C70    C     0.04394   0.65271   0.39441   0.01267  Uiso   1.00
C71    C     0.06423   0.61325   0.40969   0.01267  Uiso   1.00
C72    C     0.03392   0.57844   0.38652   0.01267  Uiso   1.00
C73    C     0.57875   0.60013   0.30717   0.01267  Uiso   1.00
C74    C     0.64268   0.63838   0.30226   0.01267  Uiso   1.00
C75    C     0.63600   0.66240   0.33720   0.01267  Uiso   1.00
C76    C     0.68440   0.69880   0.33500   0.01267  Uiso   1.00
C77    C     0.72780   0.71080   0.29520   0.01267  Uiso   1.00
C78    C     0.70070   0.65187   0.26633   0.01267  Uiso   1.00
C79    C     0.72800   0.62687   0.22813   0.01267  Uiso   1.00
C80    C     0.71990   0.62220   0.15860   0.01267  Uiso   1.00
C81    C     0.79220   0.58555   0.15385   0.01267  Uiso   1.00
C82    C     0.83180   0.56775   0.18805   0.01267  Uiso   1.00
C83    C     0.80182   0.58888   0.22608   0.01267  Uiso   1.00
C84    C     0.85636   0.56960   0.26148   0.01267  Uiso   1.00
C85    C     0.26358   0.51152   0.26312   0.01267  Uiso   1.00
C86    C     0.27121   0.50346   0.21772   0.01267  Uiso   1.00
C87    C     0.18719   0.52688   0.19634   0.01267  Uiso   1.00
C88    C     0.20225   0.52435   0.15455   0.01267  Uiso   1.00
C89    C     0.30478   0.50059   0.13405   0.01267  Uiso   1.00
C90    C     0.36761   0.47651   0.19487   0.01267  Uiso   1.00
C91    C     0.45993   0.44547   0.21207   0.01267  Uiso   1.00
C92    C     0.66447   0.41539   0.20267   0.01267  Uiso   1.00
C93    C     0.64576   0.39010   0.23538   0.01267  Uiso   1.00
C94    C     0.52873   0.39243   0.25691   0.01267  Uiso   1.00
C95    C     0.43260   0.42062   0.24578   0.01267  Uiso   1.00
C96    C     0.30384   0.42159   0.27053   0.01267  Uiso   1.00
C97    C     0.19015   0.82181   0.59109   0.01267  Uiso   1.00
C98    C     0.28847   0.84217   0.60529   0.01267  Uiso   1.00
C99    C     0.37820   0.81853   0.62347   0.01267  Uiso   1.00
C100   C     0.46895   0.83600   0.63630   0.01267  Uiso   1.00
C101   C     0.46652   0.87712   0.63084   0.01267  Uiso   1.00
C102   C     0.29320   0.88389   0.60011   0.01267  Uiso   1.00
C103   C     0.19800   0.91475   0.58385   0.01267  Uiso   1.00
C104   C     0.07441   0.97759   0.59819   0.01267  Uiso   1.00
C105   C     0.01013   0.97402   0.56712   0.01267  Uiso   1.00
C106   C     0.04898   0.93981   0.54163   0.01267  Uiso   1.00
C107   C     0.14593   0.90999   0.54915   0.01267  Uiso   1.00
C108   C     0.19685   0.87678   0.51792   0.01267  Uiso   1.00
C109   C     0.82314   0.90977   0.46475   0.01267  Uiso   1.00
C110   C     0.73849   0.95098   0.46604   0.01267  Uiso   1.00
C111   C     0.71118   0.97379   0.50225   0.01267  Uiso   1.00
C112   C     0.64837   0.01306   0.50280   0.01267  Uiso   1.00
C113   C     0.61640   0.03008   0.46712   0.01267  Uiso   1.00
C114   C     0.69453   0.96918   0.43176   0.01267  Uiso   1.00
C115   C     0.70653   0.94883   0.39171   0.01267  Uiso   1.00
C116   C     0.75902   0.95620   0.32116   0.01267  Uiso   1.00
C117   C     0.73872   0.91691   0.31445   0.01267  Uiso   1.00
C118   C     0.69665   0.89441   0.34729   0.01267  Uiso   1.00
C119   C     0.67748   0.90969   0.38675   0.01267  Uiso   1.00
C120   C     0.61236   0.88652   0.42156   0.01267  Uiso   1.00
C121   C     0.17888   0.80717   0.39987   0.01267  Uiso   1.00
C122   C     0.28106   0.80226   0.36162   0.01267  Uiso   1.00
C123   C     0.29840   0.83720   0.33760   0.01267  Uiso   1.00
C124   C     0.38320   0.83500   0.30120   0.01267  Uiso   1.00
C125   C     0.43860   0.79520   0.28920   0.01267  Uiso   1.00
C126   C     0.35257   0.76633   0.34813   0.01267  Uiso   1.00
C127   C     0.35487   0.72813   0.37313   0.01267  Uiso   1.00
C128   C     0.34210   0.65860   0.37780   0.01267  Uiso   1.00
C129   C     0.37775   0.65385   0.41445   0.01267  Uiso   1.00
C130   C     0.39955   0.68805   0.43225   0.01267  Uiso   1.00
C131   C     0.39070   0.72608   0.41112   0.01267  Uiso   1.00
C132   C     0.42596   0.76148   0.43040   0.01267  Uiso   1.00
C133   C     0.77510   0.76312   0.48848   0.01267  Uiso   1.00
C134   C     0.77467   0.71772   0.49654   0.01267  Uiso   1.00
C135   C     0.71407   0.69634   0.47312   0.01267  Uiso   1.00
C136   C     0.72660   0.65455   0.47565   0.01267  Uiso   1.00
C137   C     0.80537   0.63405   0.49941   0.01267  Uiso   1.00
C138   C     0.84412   0.69487   0.52349   0.01267  Uiso   1.00
C139   C     0.90540   0.71207   0.55453   0.01267  Uiso   1.00
C140   C     0.07986   0.70267   0.58461   0.01267  Uiso   1.00
C141   C     0.03586   0.73538   0.60990   0.01267  Uiso   1.00
C142   C     0.92116   0.75691   0.60757   0.01267  Uiso   1.00
C143   C     0.85322   0.74578   0.57938   0.01267  Uiso   1.00
C144   C     0.72543   0.77053   0.57841   0.01267  Uiso   1.00
C145   C     0.10305   0.67819   0.90891   0.01267  Uiso   1.00
C146   C     0.23593   0.65783   0.89471   0.01267  Uiso   1.00
C147   C     0.32020   0.68147   0.87653   0.01267  Uiso   1.00
C148   C     0.44125   0.66400   0.86370   0.01267  Uiso   1.00
C149   C     0.47448   0.62288   0.86916   0.01267  Uiso   1.00
C150   C     0.27720   0.61611   0.89989   0.01267  Uiso   1.00
C151   C     0.19660   0.58525   0.91615   0.01267  Uiso   1.00
C152   C     0.15019   0.52241   0.90181   0.01267  Uiso   1.00
C153   C     0.05127   0.52598   0.93288   0.01267  Uiso   1.00
C154   C     0.03042   0.56019   0.95837   0.01267  Uiso   1.00
C155   C     0.10507   0.59001   0.95085   0.01267  Uiso   1.00
C156   C     0.09155   0.62322   0.98208   0.01267  Uiso   1.00
C157   C     0.69766   0.59023   0.03525   0.01267  Uiso   1.00
C158   C     0.65551   0.54902   0.03396   0.01267  Uiso   1.00
C159   C     0.68722   0.52621   0.99775   0.01267  Uiso   1.00
C160   C     0.66423   0.48694   0.99720   0.01267  Uiso   1.00
C161   C     0.61360   0.46992   0.03288   0.01267  Uiso   1.00
C162   C     0.59547   0.53082   0.06824   0.01267  Uiso   1.00
C163   C     0.54707   0.55117   0.10829   0.01267  Uiso   1.00
C164   C     0.53638   0.54380   0.17884   0.01267  Uiso   1.00
C165   C     0.47008   0.58309   0.18555   0.01267  Uiso   1.00
C166   C     0.43835   0.60559   0.15271   0.01267  Uiso   1.00
C167   C     0.47392   0.59031   0.11325   0.01267  Uiso   1.00
C168   C     0.42044   0.61348   0.07844   0.01267  Uiso   1.00
C169   C     0.88592   0.69283   0.10013   0.01267  Uiso   1.00
C170   C     0.94494   0.69774   0.13838   0.01267  Uiso   1.00
C171   C     0.97320   0.66280   0.16240   0.01267  Uiso   1.00
C172   C     0.01940   0.66500   0.19880   0.01267  Uiso   1.00
C173   C     0.02300   0.70480   0.21080   0.01267  Uiso   1.00
C174   C     0.96703   0.73367   0.15187   0.01267  Uiso   1.00
C175   C     0.95613   0.77187   0.12687   0.01267  Uiso   1.00
C176   C     0.87850   0.84140   0.12220   0.01267  Uiso   1.00
C177   C     0.94605   0.84615   0.08555   0.01267  Uiso   1.00
C178   C     0.01985   0.81195   0.06775   0.01267  Uiso   1.00
C179   C     0.02790   0.77392   0.08888   0.01267  Uiso   1.00
C180   C     0.11784   0.73852   0.06960   0.01267  Uiso   1.00
C181   C     0.52670   0.73688   0.01152   0.01267  Uiso   1.00
C182   C     0.48893   0.78228   0.00346   0.01267  Uiso   1.00
C183   C     0.38353   0.80366   0.02688   0.01267  Uiso   1.00
C184   C     0.35680   0.84545   0.02435   0.01267  Uiso   1.00
C185   C     0.43883   0.86595   0.00059   0.01267  Uiso   1.00
C186   C     0.56248   0.80513   0.97651   0.01267  Uiso   1.00
C187   C     0.67200   0.78793   0.94547   0.01267  Uiso   1.00
C188   C     0.86714   0.79733   0.91539   0.01267  Uiso   1.00
C189   C     0.88114   0.76462   0.89010   0.01267  Uiso   1.00
C190   C     0.78564   0.74309   0.89243   0.01267  Uiso   1.00
C191   C     0.67838   0.75422   0.92062   0.01267  Uiso   1.00
C192   C     0.57437   0.72947   0.92159   0.01267  Uiso   1.00
C193   C     0.98804   0.90891   0.82181   0.01267  Uiso   1.00
C194   C     0.86936   0.89471   0.84217   0.01267  Uiso   1.00
C195   C     0.80327   0.87653   0.81853   0.01267  Uiso   1.00
C196   C     0.69505   0.86370   0.83600   0.01267  Uiso   1.00
C197   C     0.65636   0.86916   0.87712   0.01267  Uiso   1.00
C198   C     0.82291   0.89989   0.88389   0.01267  Uiso   1.00
C199   C     0.88725   0.91615   0.91475   0.01267  Uiso   1.00
C200   C     0.94800   0.90181   0.97759   0.01267  Uiso   1.00
C201   C     0.01585   0.93288   0.97402   0.01267  Uiso   1.00
C202   C     0.01121   0.95837   0.93981   0.01267  Uiso   1.00
C203   C     0.94408   0.95085   0.90999   0.01267  Uiso   1.00
C204   C     0.92637   0.98208   0.87678   0.01267  Uiso   1.00
C205   C     0.26709   0.03525   0.90977   0.01267  Uiso   1.00
C206   C     0.31053   0.03396   0.95098   0.01267  Uiso   1.00
C207   C     0.31503   0.99775   0.97379   0.01267  Uiso   1.00
C208   C     0.33857   0.99720   0.01306   0.01267  Uiso   1.00
C209   C     0.35352   0.03288   0.03008   0.01267  Uiso   1.00
C210   C     0.33629   0.06824   0.96918   0.01267  Uiso   1.00
C211   C     0.34464   0.10829   0.94883   0.01267  Uiso   1.00
C212   C     0.28478   0.17884   0.95620   0.01267  Uiso   1.00
C213   C     0.34437   0.18555   0.91691   0.01267  Uiso   1.00
C214   C     0.40894   0.15271   0.89441   0.01267  Uiso   1.00
C215   C     0.41283   0.11325   0.90969   0.01267  Uiso   1.00
C216   C     0.50112   0.07844   0.88652   0.01267  Uiso   1.00
C217   C     0.01395   0.10013   0.80717   0.01267  Uiso   1.00
C218   C     0.91668   0.13838   0.80226   0.01267  Uiso   1.00
C219   C     0.86440   0.16240   0.83720   0.01267  Uiso   1.00
C220   C     0.78180   0.19880   0.83500   0.01267  Uiso   1.00
C221   C     0.76620   0.21080   0.79520   0.01267  Uiso   1.00
C222   C     0.88110   0.15187   0.76633   0.01267  Uiso   1.00
C223   C     0.91700   0.12687   0.72813   0.01267  Uiso   1.00
C224   C     0.99930   0.12220   0.65860   0.01267  Uiso   1.00
C225   C     0.96840   0.08555   0.65385   0.01267  Uiso   1.00
C226   C     0.91240   0.06775   0.68805   0.01267  Uiso   1.00
C227   C     0.88322   0.08888   0.72608   0.01267  Uiso   1.00
C228   C     0.81256   0.06960   0.76148   0.01267  Uiso   1.00
C229   C     0.46178   0.01152   0.76312   0.01267  Uiso   1.00
C230   C     0.50761   0.00346   0.71772   0.01267  Uiso   1.00
C231   C     0.58959   0.02688   0.69634   0.01267  Uiso   1.00
C232   C     0.61885   0.02435   0.65455   0.01267  Uiso   1.00
C233   C     0.56058   0.00059   0.63405   0.01267  Uiso   1.00
C234   C     0.46101   0.97651   0.69487   0.01267  Uiso   1.00
C235   C     0.38253   0.94547   0.71207   0.01267  Uiso   1.00
C236   C     0.21747   0.91539   0.70267   0.01267  Uiso   1.00
C237   C     0.22876   0.89010   0.73538   0.01267  Uiso   1.00
C238   C     0.32193   0.89243   0.75691   0.01267  Uiso   1.00
C239   C     0.40100   0.92062   0.74578   0.01267  Uiso   1.00
C240   C     0.50404   0.92159   0.77053   0.01267  Uiso   1.00
C241   C     0.21876   0.59109   0.67819   0.01267  Uiso   1.00
C242   C     0.10624   0.60529   0.65783   0.01267  Uiso   1.00
C243   C     0.99833   0.62347   0.68147   0.01267  Uiso   1.00
C244   C     0.89475   0.63630   0.66400   0.01267  Uiso   1.00
C245   C     0.90264   0.63084   0.62288   0.01267  Uiso   1.00
C246   C     0.10669   0.60011   0.61611   0.01267  Uiso   1.00
C247   C     0.21815   0.58385   0.58525   0.01267  Uiso   1.00
C248   C     0.32740   0.59819   0.52241   0.01267  Uiso   1.00
C249   C     0.42275   0.56712   0.52598   0.01267  Uiso   1.00
C250   C     0.40939   0.54163   0.56019   0.01267  Uiso   1.00
C251   C     0.30492   0.54915   0.59001   0.01267  Uiso   1.00
C252   C     0.28523   0.51792   0.62322   0.01267  Uiso   1.00
C253   C     0.71211   0.46475   0.59023   0.01267  Uiso   1.00
C254   C     0.79547   0.46604   0.54902   0.01267  Uiso   1.00
C255   C     0.78657   0.50225   0.52621   0.01267  Uiso   1.00
C256   C     0.84883   0.50280   0.48694   0.01267  Uiso   1.00
C257   C     0.91648   0.46712   0.46992   0.01267  Uiso   1.00
C258   C     0.87371   0.43176   0.53082   0.01267  Uiso   1.00
C259   C     0.90176   0.39171   0.55117   0.01267  Uiso   1.00
C260   C     0.91982   0.32116   0.54380   0.01267  Uiso   1.00
C261   C     0.94683   0.31445   0.58309   0.01267  Uiso   1.00
C262   C     0.95606   0.34729   0.60559   0.01267  Uiso   1.00
C263   C     0.93577   0.38675   0.59031   0.01267  Uiso   1.00
C264   C     0.96608   0.42156   0.61348   0.01267  Uiso   1.00
C265   C     0.42125   0.39987   0.69283   0.01267  Uiso   1.00
C266   C     0.35732   0.36162   0.69774   0.01267  Uiso   1.00
C267   C     0.36400   0.33760   0.66280   0.01267  Uiso   1.00
C268   C     0.31560   0.30120   0.66500   0.01267  Uiso   1.00
C269   C     0.27220   0.28920   0.70480   0.01267  Uiso   1.00
C270   C     0.29930   0.34813   0.73367   0.01267  Uiso   1.00
C271   C     0.27200   0.37313   0.77187   0.01267  Uiso   1.00
C272   C     0.28010   0.37780   0.84140   0.01267  Uiso   1.00
C273   C     0.20780   0.41445   0.84615   0.01267  Uiso   1.00
C274   C     0.16820   0.43225   0.81195   0.01267  Uiso   1.00
C275   C     0.19818   0.41112   0.77392   0.01267  Uiso   1.00
C276   C     0.14364   0.43040   0.73852   0.01267  Uiso   1.00
C277   C     0.73642   0.48848   0.73688   0.01267  Uiso   1.00
C278   C     0.72879   0.49654   0.78228   0.01267  Uiso   1.00
C279   C     0.81281   0.47312   0.80366   0.01267  Uiso   1.00
C280   C     0.79775   0.47565   0.84545   0.01267  Uiso   1.00
C281   C     0.69522   0.49941   0.86595   0.01267  Uiso   1.00
C282   C     0.63239   0.52349   0.80513   0.01267  Uiso   1.00
C283   C     0.54007   0.55453   0.78793   0.01267  Uiso   1.00
C284   C     0.33553   0.58461   0.79733   0.01267  Uiso   1.00
C285   C     0.35424   0.60990   0.76462   0.01267  Uiso   1.00
C286   C     0.47127   0.60757   0.74309   0.01267  Uiso   1.00
C287   C     0.56740   0.57938   0.75422   0.01267  Uiso   1.00
C288   C     0.69616   0.57841   0.72947   0.01267  Uiso   1.00
C289   C     0.80985   0.17819   0.40891   0.01267  Uiso   1.00
C290   C     0.71153   0.15783   0.39471   0.01267  Uiso   1.00
C291   C     0.62180   0.18147   0.37653   0.01267  Uiso   1.00
C292   C     0.53105   0.16400   0.36370   0.01267  Uiso   1.00
C293   C     0.53348   0.12288   0.36916   0.01267  Uiso   1.00
C294   C     0.70680   0.11611   0.39989   0.01267  Uiso   1.00
C295   C     0.80200   0.08525   0.41615   0.01267  Uiso   1.00
C296   C     0.92559   0.02241   0.40181   0.01267  Uiso   1.00
C297   C     0.98987   0.02598   0.43288   0.01267  Uiso   1.00
C298   C     0.95102   0.06019   0.45837   0.01267  Uiso   1.00
C299   C     0.85407   0.09001   0.45085   0.01267  Uiso   1.00
C300   C     0.80315   0.12322   0.48208   0.01267  Uiso   1.00
C301   C     0.17686   0.09023   0.53525   0.01267  Uiso   1.00
C302   C     0.26151   0.04902   0.53396   0.01267  Uiso   1.00
C303   C     0.28882   0.02621   0.49775   0.01267  Uiso   1.00
C304   C     0.35163   0.98694   0.49720   0.01267  Uiso   1.00
C305   C     0.38360   0.96992   0.53288   0.01267  Uiso   1.00
C306   C     0.30547   0.03082   0.56824   0.01267  Uiso   1.00
C307   C     0.29347   0.05117   0.60829   0.01267  Uiso   1.00
C308   C     0.24098   0.04380   0.67884   0.01267  Uiso   1.00
C309   C     0.26128   0.08309   0.68555   0.01267  Uiso   1.00
C310   C     0.30335   0.10559   0.65271   0.01267  Uiso   1.00
C311   C     0.32252   0.09031   0.61325   0.01267  Uiso   1.00
C312   C     0.38764   0.11348   0.57844   0.01267  Uiso   1.00
C313   C     0.82112   0.19283   0.60013   0.01267  Uiso   1.00
C314   C     0.71894   0.19774   0.63838   0.01267  Uiso   1.00
C315   C     0.70160   0.16280   0.66240   0.01267  Uiso   1.00
C316   C     0.61680   0.16500   0.69880   0.01267  Uiso   1.00
C317   C     0.56140   0.20480   0.71080   0.01267  Uiso   1.00
C318   C     0.64743   0.23367   0.65187   0.01267  Uiso   1.00
C319   C     0.64513   0.27187   0.62687   0.01267  Uiso   1.00
C320   C     0.65790   0.34140   0.62220   0.01267  Uiso   1.00
C321   C     0.62225   0.34615   0.58555   0.01267  Uiso   1.00
C322   C     0.60045   0.31195   0.56775   0.01267  Uiso   1.00
C323   C     0.60930   0.27392   0.58888   0.01267  Uiso   1.00
C324   C     0.57404   0.23852   0.56960   0.01267  Uiso   1.00
C325   C     0.22490   0.23688   0.51152   0.01267  Uiso   1.00
C326   C     0.22533   0.28228   0.50346   0.01267  Uiso   1.00
C327   C     0.28593   0.30366   0.52688   0.01267  Uiso   1.00
C328   C     0.27340   0.34545   0.52435   0.01267  Uiso   1.00
C329   C     0.19463   0.36595   0.50059   0.01267  Uiso   1.00
C330   C     0.15588   0.30513   0.47651   0.01267  Uiso   1.00
C331   C     0.09460   0.28793   0.44547   0.01267  Uiso   1.00
C332   C     0.92014   0.29733   0.41539   0.01267  Uiso   1.00
C333   C     0.96414   0.26462   0.39010   0.01267  Uiso   1.00
C334   C     0.07884   0.24309   0.39243   0.01267  Uiso   1.00
C335   C     0.14678   0.25422   0.42062   0.01267  Uiso   1.00
C336   C     0.27457   0.22947   0.42159   0.01267  Uiso   1.00
C337   C     0.89695   0.32181   0.09109   0.01267  Uiso   1.00
C338   C     0.76407   0.34217   0.10529   0.01267  Uiso   1.00
C339   C     0.67980   0.31853   0.12347   0.01267  Uiso   1.00
C340   C     0.55875   0.33600   0.13630   0.01267  Uiso   1.00
C341   C     0.52552   0.37712   0.13084   0.01267  Uiso   1.00
C342   C     0.72280   0.38389   0.10011   0.01267  Uiso   1.00
C343   C     0.80340   0.41475   0.08385   0.01267  Uiso   1.00
C344   C     0.84981   0.47759   0.09819   0.01267  Uiso   1.00
C345   C     0.94873   0.47402   0.06712   0.01267  Uiso   1.00
C346   C     0.96958   0.43981   0.04163   0.01267  Uiso   1.00
C347   C     0.89493   0.40999   0.04915   0.01267  Uiso   1.00
C348   C     0.90845   0.37678   0.01792   0.01267  Uiso   1.00
C349   C     0.30234   0.40977   0.96475   0.01267  Uiso   1.00
C350   C     0.34449   0.45098   0.96604   0.01267  Uiso   1.00
C351   C     0.31278   0.47379   0.00225   0.01267  Uiso   1.00
C352   C     0.33577   0.51306   0.00280   0.01267  Uiso   1.00
C353   C     0.38640   0.53008   0.96712   0.01267  Uiso   1.00
C354   C     0.40453   0.46918   0.93176   0.01267  Uiso   1.00
C355   C     0.45293   0.44883   0.89171   0.01267  Uiso   1.00
C356   C     0.46362   0.45620   0.82116   0.01267  Uiso   1.00
C357   C     0.52992   0.41691   0.81445   0.01267  Uiso   1.00
C358   C     0.56165   0.39441   0.84729   0.01267  Uiso   1.00
C359   C     0.52608   0.40969   0.88675   0.01267  Uiso   1.00
C360   C     0.57956   0.38652   0.92156   0.01267  Uiso   1.00
C361   C     0.11408   0.30717   0.89987   0.01267  Uiso   1.00
C362   C     0.05506   0.30226   0.86162   0.01267  Uiso   1.00
C363   C     0.02680   0.33720   0.83760   0.01267  Uiso   1.00
C364   C     0.98060   0.33500   0.80120   0.01267  Uiso   1.00
C365   C     0.97700   0.29520   0.78920   0.01267  Uiso   1.00
C366   C     0.03297   0.26633   0.84813   0.01267  Uiso   1.00
C367   C     0.04387   0.22813   0.87313   0.01267  Uiso   1.00
C368   C     0.12150   0.15860   0.87780   0.01267  Uiso   1.00
C369   C     0.05395   0.15385   0.91445   0.01267  Uiso   1.00
C370   C     0.98015   0.18805   0.93225   0.01267  Uiso   1.00
C371   C     0.97210   0.22608   0.91112   0.01267  Uiso   1.00
C372   C     0.88216   0.26148   0.93040   0.01267  Uiso   1.00
C373   C     0.47330   0.26312   0.98848   0.01267  Uiso   1.00
C374   C     0.51107   0.21772   0.99654   0.01267  Uiso   1.00
C375   C     0.61647   0.19634   0.97312   0.01267  Uiso   1.00
C376   C     0.64320   0.15455   0.97565   0.01267  Uiso   1.00
C377   C     0.56117   0.13405   0.99941   0.01267  Uiso   1.00
C378   C     0.43752   0.19487   0.02349   0.01267  Uiso   1.00
C379   C     0.32800   0.21207   0.05453   0.01267  Uiso   1.00
C380   C     0.13286   0.20267   0.08461   0.01267  Uiso   1.00
C381   C     0.11886   0.23538   0.10990   0.01267  Uiso   1.00
C382   C     0.21436   0.25691   0.10757   0.01267  Uiso   1.00
C383   C     0.32162   0.24578   0.07938   0.01267  Uiso   1.00
C384   C     0.42563   0.27053   0.07841   0.01267  Uiso   1.00
N1     N     0.70835   0.05722   0.30948   0.01267  Uiso   1.00
N2     N     0.51719   0.02332   0.34670   0.01267  Uiso   1.00
N3     N     0.02230   0.85555   0.30605   0.01267  Uiso   1.00
N4     N     0.18771   0.81148   0.23850   0.01267  Uiso   1.00
N5     N     0.11537   0.10678   0.05088   0.01267  Uiso   1.00
N6     N     0.28097   0.11367   0.09879   0.01267  Uiso   1.00
N7     N     0.64840   0.93194   0.99106   0.01267  Uiso   1.00
N8     N     0.71431   0.85865   0.02793   0.01267  Uiso   1.00
N9     N     0.57505   0.44278   0.19052   0.01267  Uiso   1.00
N10    N     0.38721   0.47668   0.15330   0.01267  Uiso   1.00
N11    N     0.68390   0.64445   0.19395   0.01267  Uiso   1.00
N12    N     0.73769   0.68852   0.26150   0.01267  Uiso   1.00
N13    N     0.77303   0.39322   0.44912   0.01267  Uiso   1.00
N14    N     0.99343   0.38633   0.40121   0.01267  Uiso   1.00
N15    N     0.07140   0.56806   0.50894   0.01267  Uiso   1.00
N16    N     0.10089   0.64135   0.47207   0.01267  Uiso   1.00
N17    N     0.01783   0.69052   0.55722   0.01267  Uiso   1.00
N18    N     0.86389   0.65330   0.52332   0.01267  Uiso   1.00
N19    N     0.32835   0.69395   0.35555   0.01267  Uiso   1.00
N20    N     0.42621   0.76150   0.31148   0.01267  Uiso   1.00
N21    N     0.16625   0.94912   0.60678   0.01267  Uiso   1.00
N22    N     0.37976   0.90121   0.61367   0.01267  Uiso   1.00
N23    N     0.63946   0.00894   0.43194   0.01267  Uiso   1.00
N24    N     0.74224   0.97207   0.35865   0.01267  Uiso   1.00
N25    N     0.76557   0.80948   0.94278   0.01267  Uiso   1.00
N26    N     0.54051   0.84670   0.97668   0.01267  Uiso   1.00
N27    N     0.87785   0.80605   0.14445   0.01267  Uiso   1.00
N28    N     0.99919   0.73850   0.18852   0.01267  Uiso   1.00
N29    N     0.22215   0.55088   0.89322   0.01267  Uiso   1.00
N30    N     0.39464   0.59879   0.88633   0.01267  Uiso   1.00
N31    N     0.58034   0.49106   0.06806   0.01267  Uiso   1.00
N32    N     0.57296   0.52793   0.14135   0.01267  Uiso   1.00
N33    N     0.29165   0.94278   0.69052   0.01267  Uiso   1.00
N34    N     0.48281   0.97668   0.65330   0.01267  Uiso   1.00
N35    N     0.97770   0.14445   0.69395   0.01267  Uiso   1.00
N36    N     0.81229   0.18852   0.76150   0.01267  Uiso   1.00
N37    N     0.88463   0.89322   0.94912   0.01267  Uiso   1.00
N38    N     0.71903   0.88633   0.90121   0.01267  Uiso   1.00
N39    N     0.35160   0.06806   0.00894   0.01267  Uiso   1.00
N40    N     0.28569   0.14135   0.97207   0.01267  Uiso   1.00
N41    N     0.42495   0.55722   0.80948   0.01267  Uiso   1.00
N42    N     0.61279   0.52332   0.84670   0.01267  Uiso   1.00
N43    N     0.31610   0.35555   0.80605   0.01267  Uiso   1.00
N44    N     0.26231   0.31148   0.73850   0.01267  Uiso   1.00
N45    N     0.22697   0.60678   0.55088   0.01267  Uiso   1.00
N46    N     0.00657   0.61367   0.59879   0.01267  Uiso   1.00
N47    N     0.92860   0.43194   0.49106   0.01267  Uiso   1.00
N48    N     0.89911   0.35865   0.52793   0.01267  Uiso   1.00
N49    N     0.98217   0.30948   0.44278   0.01267  Uiso   1.00
N50    N     0.13611   0.34670   0.47668   0.01267  Uiso   1.00
N51    N     0.67165   0.30605   0.64445   0.01267  Uiso   1.00
N52    N     0.57379   0.23850   0.68852   0.01267  Uiso   1.00
N53    N     0.83375   0.05088   0.39322   0.01267  Uiso   1.00
N54    N     0.62024   0.09879   0.38633   0.01267  Uiso   1.00
N55    N     0.36054   0.99106   0.56806   0.01267  Uiso   1.00
N56    N     0.25776   0.02793   0.64135   0.01267  Uiso   1.00
N57    N     0.23443   0.19052   0.05722   0.01267  Uiso   1.00
N58    N     0.45949   0.15330   0.02332   0.01267  Uiso   1.00
N59    N     0.12215   0.19395   0.85555   0.01267  Uiso   1.00
N60    N     0.00081   0.26150   0.81148   0.01267  Uiso   1.00
N61    N     0.77785   0.44912   0.10678   0.01267  Uiso   1.00
N62    N     0.60536   0.40121   0.11367   0.01267  Uiso   1.00
N63    N     0.41966   0.50894   0.93194   0.01267  Uiso   1.00
N64    N     0.42704   0.47207   0.85865   0.01267  Uiso   1.00
O1     O     0.92012   0.09988   0.16088   0.01267  Uiso   1.00
O2     O     0.01645   0.07143   0.21087   0.01267  Uiso   1.00
O3     O     0.99129   0.99629   0.13293   0.01267  Uiso   1.00
O4     O     0.17186   0.01462   0.13726   0.01267  Uiso   1.00
O5     O     0.13476   0.96232   0.22296   0.01267  Uiso   1.00
O6     O     0.29640   0.91611   0.22569   0.01267  Uiso   1.00
O7     O     0.44268   0.94936   0.09508   0.01267  Uiso   1.00
O8     O     0.48562   0.91923   0.15253   0.01267  Uiso   1.00
O9     O     0.46603   0.97745   0.21649   0.01267  Uiso   1.00
O10    O     0.64796   0.99229   0.22419   0.01267  Uiso   1.00
O11    O     0.83419   0.94411   0.09351   0.01267  Uiso   1.00
O12    O     0.66905   0.98615   0.11955   0.01267  Uiso   1.00
O13    O     0.90461   0.91304   0.22214   0.01267  Uiso   1.00
O14    O     0.99057   0.91492   0.15874   0.01267  Uiso   1.00
O15    O     0.39068   0.07830   0.24954   0.01267  Uiso   1.00
O16    O     0.52626   0.07698   0.19150   0.01267  Uiso   1.00
O17    O     0.68088   0.40012   0.33912   0.01267  Uiso   1.00
O18    O     0.79875   0.42857   0.28913   0.01267  Uiso   1.00
O19    O     0.62051   0.50371   0.36707   0.01267  Uiso   1.00
O20    O     0.82374   0.48538   0.36274   0.01267  Uiso   1.00
O21    O     0.82004   0.53768   0.27704   0.01267  Uiso   1.00
O22    O     0.93820   0.58389   0.27431   0.01267  Uiso   1.00
O23    O     0.98712   0.55064   0.40492   0.01267  Uiso   1.00
O24    O     0.05738   0.58077   0.34747   0.01267  Uiso   1.00
O25    O     0.15997   0.52255   0.28351   0.01267  Uiso   1.00
O26    O     0.36444   0.50771   0.27581   0.01267  Uiso   1.00
O27    O     0.37181   0.55589   0.40649   0.01267  Uiso   1.00
O28    O     0.27475   0.51385   0.38045   0.01267  Uiso   1.00
O29    O     0.53979   0.58696   0.27786   0.01267  Uiso   1.00
O30    O     0.56423   0.58508   0.34126   0.01267  Uiso   1.00
O31    O     0.21852   0.42170   0.25046   0.01267  Uiso   1.00
O32    O     0.29474   0.42302   0.30850   0.01267  Uiso   1.00
O33    O     0.08100   0.83912   0.59988   0.01267  Uiso   1.00
O34    O     0.22732   0.78913   0.57143   0.01267  Uiso   1.00
O35    O     0.12422   0.86707   0.49629   0.01267  Uiso   1.00
O36    O     0.30912   0.86274   0.51462   0.01267  Uiso   1.00
O37    O     0.35772   0.77704   0.46232   0.01267  Uiso   1.00
O38    O     0.52209   0.77431   0.41611   0.01267  Uiso   1.00
O39    O     0.53776   0.90492   0.44936   0.01267  Uiso   1.00
O40    O     0.63815   0.84747   0.41923   0.01267  Uiso   1.00
O41    O     0.68252   0.78351   0.47745   0.01267  Uiso   1.00
O42    O     0.87215   0.77581   0.49229   0.01267  Uiso   1.00
O43    O     0.92770   0.90649   0.44411   0.01267  Uiso   1.00
O44    O     0.78860   0.88045   0.48615   0.01267  Uiso   1.00
O45    O     0.12675   0.77786   0.41304   0.01267  Uiso   1.00
O46    O     0.14931   0.84126   0.41492   0.01267  Uiso   1.00
O47    O     0.64022   0.75046   0.57830   0.01267  Uiso   1.00
O48    O     0.71776   0.80850   0.57698   0.01267  Uiso   1.00
O49    O     0.02000   0.66088   0.90012   0.01267  Uiso   1.00
O50    O     0.08788   0.71087   0.92857   0.01267  Uiso   1.00
O51    O     0.98758   0.63293   0.00371   0.01267  Uiso   1.00
O52    O     0.18648   0.63726   0.98538   0.01267  Uiso   1.00
O53    O     0.09708   0.72296   0.03768   0.01267  Uiso   1.00
O54    O     0.21251   0.72569   0.08389   0.01267  Uiso   1.00
O55    O     0.39204   0.59508   0.05064   0.01267  Uiso   1.00
O56    O     0.40485   0.65253   0.08077   0.01267  Uiso   1.00
O57    O     0.44348   0.71649   0.02255   0.01267  Uiso   1.00
O58    O     0.64025   0.72419   0.00771   0.01267  Uiso   1.00
O59    O     0.77830   0.59351   0.05589   0.01267  Uiso   1.00
O60    O     0.65520   0.61955   0.01385   0.01267  Uiso   1.00
O61    O     0.81765   0.72214   0.08696   0.01267  Uiso   1.00
O62    O     0.90549   0.65874   0.08508   0.01267  Uiso   1.00
O63    O     0.46898   0.74954   0.92170   0.01267  Uiso   1.00
O64    O     0.60324   0.69150   0.92302   0.01267  Uiso   1.00
O65    O     0.07988   0.90012   0.83912   0.01267  Uiso   1.00
O66    O     0.98355   0.92857   0.78913   0.01267  Uiso   1.00
O67    O     0.00871   0.00371   0.86707   0.01267  Uiso   1.00
O68    O     0.82814   0.98538   0.86274   0.01267  Uiso   1.00
O69    O     0.86524   0.03768   0.77704   0.01267  Uiso   1.00
O70    O     0.70360   0.08389   0.77431   0.01267  Uiso   1.00
O71    O     0.55732   0.05064   0.90492   0.01267  Uiso   1.00
O72    O     0.51438   0.08077   0.84747   0.01267  Uiso   1.00
O73    O     0.53397   0.02255   0.78351   0.01267  Uiso   1.00
O74    O     0.35204   0.00771   0.77581   0.01267  Uiso   1.00
O75    O     0.16581   0.05589   0.90649   0.01267  Uiso   1.00
O76    O     0.33095   0.01385   0.88045   0.01267  Uiso   1.00
O77    O     0.09539   0.08696   0.77786   0.01267  Uiso   1.00
O78    O     0.00943   0.08508   0.84126   0.01267  Uiso   1.00
O79    O     0.60932   0.92170   0.75046   0.01267  Uiso   1.00
O80    O     0.47374   0.92302   0.80850   0.01267  Uiso   1.00
O81    O     0.31912   0.59988   0.66088   0.01267  Uiso   1.00
O82    O     0.20125   0.57143   0.71087   0.01267  Uiso   1.00
O83    O     0.37949   0.49629   0.63293   0.01267  Uiso   1.00
O84    O     0.17626   0.51462   0.63726   0.01267  Uiso   1.00
O85    O     0.17996   0.46232   0.72296   0.01267  Uiso   1.00
O86    O     0.06180   0.41611   0.72569   0.01267  Uiso   1.00
O87    O     0.01288   0.44936   0.59508   0.01267  Uiso   1.00
O88    O     0.94262   0.41923   0.65253   0.01267  Uiso   1.00
O89    O     0.84003   0.47745   0.71649   0.01267  Uiso   1.00
O90    O     0.63556   0.49229   0.72419   0.01267  Uiso   1.00
O91    O     0.62819   0.44411   0.59351   0.01267  Uiso   1.00
O92    O     0.72525   0.48615   0.61955   0.01267  Uiso   1.00
O93    O     0.46021   0.41304   0.72214   0.01267  Uiso   1.00
O94    O     0.43577   0.41492   0.65874   0.01267  Uiso   1.00
O95    O     0.78148   0.57830   0.74954   0.01267  Uiso   1.00
O96    O     0.70526   0.57698   0.69150   0.01267  Uiso   1.00
O97    O     0.91900   0.16088   0.40012   0.01267  Uiso   1.00
O98    O     0.77268   0.21087   0.42857   0.01267  Uiso   1.00
O99    O     0.87578   0.13293   0.50371   0.01267  Uiso   1.00
O100   O     0.69088   0.13726   0.48538   0.01267  Uiso   1.00
O101   O     0.64228   0.22296   0.53768   0.01267  Uiso   1.00
O102   O     0.47791   0.22569   0.58389   0.01267  Uiso   1.00
O103   O     0.46224   0.09508   0.55064   0.01267  Uiso   1.00
O104   O     0.36185   0.15253   0.58077   0.01267  Uiso   1.00
O105   O     0.31748   0.21649   0.52255   0.01267  Uiso   1.00
O106   O     0.12785   0.22419   0.50771   0.01267  Uiso   1.00
O107   O     0.07230   0.09351   0.55589   0.01267  Uiso   1.00
O108   O     0.21140   0.11955   0.51385   0.01267  Uiso   1.00
O109   O     0.87325   0.22214   0.58696   0.01267  Uiso   1.00
O110   O     0.85069   0.15874   0.58508   0.01267  Uiso   1.00
O111   O     0.35978   0.24954   0.42170   0.01267  Uiso   1.00
O112   O     0.28224   0.19150   0.42302   0.01267  Uiso   1.00
O113   O     0.98000   0.33912   0.09988   0.01267  Uiso   1.00
O114   O     0.91212   0.28913   0.07143   0.01267  Uiso   1.00
O115   O     0.01242   0.36707   0.99629   0.01267  Uiso   1.00
O116   O     0.81352   0.36274   0.01462   0.01267  Uiso   1.00
O117   O     0.90292   0.27704   0.96232   0.01267  Uiso   1.00
O118   O     0.78749   0.27431   0.91611   0.01267  Uiso   1.00
O119   O     0.60796   0.40492   0.94936   0.01267  Uiso   1.00
O120   O     0.59515   0.34747   0.91923   0.01267  Uiso   1.00
O121   O     0.55652   0.28351   0.97745   0.01267  Uiso   1.00
O122   O     0.35975   0.27581   0.99229   0.01267  Uiso   1.00
O123   O     0.22170   0.40649   0.94411   0.01267  Uiso   1.00
O124   O     0.34480   0.38045   0.98615   0.01267  Uiso   1.00
O125   O     0.18235   0.27786   0.91304   0.01267  Uiso   1.00
O126   O     0.09451   0.34126   0.91492   0.01267  Uiso   1.00
O127   O     0.53102   0.25046   0.07830   0.01267  Uiso   1.00
O128   O     0.39676   0.30850   0.07698   0.01267  Uiso   1.00
