data_MIFVEE_clean
_audit_creation_date              2014-07-02
_audit_creation_method            'Materials Studio'
_symmetry_space_group_name_H-M    'P1'
_symmetry_Int_Tables_number       1
_symmetry_cell_setting            triclinic
loop_
_symmetry_equiv_pos_as_xyz
  x,y,z
_cell_length_a                    11.0046
_cell_length_b                    32.8649
_cell_length_c                    32.8649
_cell_angle_alpha                 88.3938
_cell_angle_beta                  80.3620
_cell_angle_gamma                 80.3620
loop_
_atom_site_label
_atom_site_type_symbol
_atom_site_fract_x
_atom_site_fract_y
_atom_site_fract_z
_atom_site_U_iso_or_equiv
_atom_site_adp_type
_atom_site_occupancy
Tb1    Tb    0.71517   0.32868   0.97304   0.01267  Uiso   1.00
Tb2    Tb    0.21509   0.32502   0.97529   0.01267  Uiso   1.00
Tb3    Tb    0.51689   0.17132   0.52696   0.01267  Uiso   1.00
Tb4    Tb    0.01541   0.17498   0.52470   0.01267  Uiso   1.00
Tb5    Tb    0.68821   0.02696   0.82868   0.01267  Uiso   1.00
Tb6    Tb    0.19038   0.02471   0.82502   0.01267  Uiso   1.00
Tb7    Tb    0.04385   0.47304   0.67132   0.01267  Uiso   1.00
Tb8    Tb    0.54011   0.47529   0.67499   0.01267  Uiso   1.00
Tb9    Tb    0.28483   0.67132   0.02696   0.01267  Uiso   1.00
Tb10   Tb    0.78491   0.67498   0.02470   0.01267  Uiso   1.00
Tb11   Tb    0.48311   0.82868   0.47304   0.01267  Uiso   1.00
Tb12   Tb    0.98459   0.82502   0.47529   0.01267  Uiso   1.00
Tb13   Tb    0.31179   0.97304   0.17132   0.01267  Uiso   1.00
Tb14   Tb    0.80962   0.97529   0.17498   0.01267  Uiso   1.00
Tb15   Tb    0.95615   0.52696   0.32868   0.01267  Uiso   1.00
Tb16   Tb    0.45988   0.52471   0.32502   0.01267  Uiso   1.00
Co1    Co    0.78980   0.12864   0.03624   0.01267  Uiso   1.00
Co2    Co    0.45468   0.37136   0.46376   0.01267  Uiso   1.00
Co3    Co    0.82604   0.96376   0.62864   0.01267  Uiso   1.00
Co4    Co    0.91844   0.53624   0.87136   0.01267  Uiso   1.00
Co5    Co    0.21020   0.87136   0.96376   0.01267  Uiso   1.00
Co6    Co    0.54532   0.62864   0.53624   0.01267  Uiso   1.00
Co7    Co    0.17396   0.03624   0.37136   0.01267  Uiso   1.00
Co8    Co    0.08156   0.46376   0.12864   0.01267  Uiso   1.00
H1     H     0.53860   0.43820   0.01780   0.01267  Uiso   1.00
H2     H     0.50210   0.49540   0.06080   0.01267  Uiso   1.00
H3     H     0.33190   0.50270   0.11370   0.01267  Uiso   1.00
H4     H     0.94150   0.38820   0.13960   0.01267  Uiso   1.00
H5     H     0.00170   0.31900   0.14940   0.01267  Uiso   1.00
H6     H     0.20960   0.28960   0.12940   0.01267  Uiso   1.00
H7     H     0.70950   0.27930   0.12590   0.01267  Uiso   1.00
H8     H     0.54520   0.24290   0.12990   0.01267  Uiso   1.00
H9     H     0.56620   0.18710   0.08650   0.01267  Uiso   1.00
H10    H     0.08290   0.10420   0.00100   0.01267  Uiso   1.00
H11    H     0.22670   0.13900   0.96220   0.01267  Uiso   1.00
H12    H     0.17970   0.20990   0.95690   0.01267  Uiso   1.00
H13    H     0.77320   0.46090   0.02710   0.01267  Uiso   1.00
H14    H     0.81150   0.52870   0.02830   0.01267  Uiso   1.00
H15    H     0.89600   0.55820   0.96820   0.01267  Uiso   1.00
H16    H     0.95010   0.47180   0.79860   0.01267  Uiso   1.00
H17    H     0.06190   0.40500   0.78800   0.01267  Uiso   1.00
H18    H     0.11780   0.36720   0.84460   0.01267  Uiso   1.00
H19    H     0.54460   0.36230   0.84830   0.01267  Uiso   1.00
H20    H     0.43440   0.36450   0.78870   0.01267  Uiso   1.00
H21    H     0.46540   0.29630   0.76170   0.01267  Uiso   1.00
H22    H     0.66600   0.13230   0.87390   0.01267  Uiso   1.00
H23    H     0.54760   0.12660   0.93160   0.01267  Uiso   1.00
H24    H     0.43550   0.18770   0.95830   0.01267  Uiso   1.00
H25    H     0.49460   0.06180   0.48220   0.01267  Uiso   1.00
H26    H     0.55830   0.00460   0.43920   0.01267  Uiso   1.00
H27    H     0.44830   0.99730   0.38630   0.01267  Uiso   1.00
H28    H     0.96930   0.11180   0.36040   0.01267  Uiso   1.00
H29    H     0.97010   0.18100   0.35060   0.01267  Uiso   1.00
H30    H     0.12860   0.21040   0.37060   0.01267  Uiso   1.00
H31    H     0.61470   0.22070   0.37410   0.01267  Uiso   1.00
H32    H     0.41800   0.25710   0.37010   0.01267  Uiso   1.00
H33    H     0.33980   0.31290   0.41350   0.01267  Uiso   1.00
H34    H     0.68810   0.39580   0.49900   0.01267  Uiso   1.00
H35    H     0.82790   0.36100   0.53780   0.01267  Uiso   1.00
H36    H     0.84650   0.29010   0.54310   0.01267  Uiso   1.00
H37    H     0.76120   0.03910   0.47290   0.01267  Uiso   1.00
H38    H     0.86850   0.97130   0.47170   0.01267  Uiso   1.00
H39    H     0.92240   0.94180   0.53180   0.01267  Uiso   1.00
H40    H     0.72050   0.02820   0.70140   0.01267  Uiso   1.00
H41    H     0.75490   0.09500   0.71200   0.01267  Uiso   1.00
H42    H     0.82960   0.13280   0.65540   0.01267  Uiso   1.00
H43    H     0.25520   0.13770   0.65170   0.01267  Uiso   1.00
H44    H     0.08760   0.13550   0.71130   0.01267  Uiso   1.00
H45    H     0.02340   0.20370   0.73830   0.01267  Uiso   1.00
H46    H     0.17220   0.36770   0.62610   0.01267  Uiso   1.00
H47    H     0.10580   0.37340   0.56840   0.01267  Uiso   1.00
H48    H     0.08150   0.31230   0.54170   0.01267  Uiso   1.00
H49    H     0.55640   0.98220   0.93820   0.01267  Uiso   1.00
H50    H     0.56290   0.93920   0.99540   0.01267  Uiso   1.00
H51    H     0.44560   0.88630   0.00270   0.01267  Uiso   1.00
H52    H     0.08110   0.86040   0.88820   0.01267  Uiso   1.00
H53    H     0.15110   0.85060   0.81900   0.01267  Uiso   1.00
H54    H     0.33900   0.87060   0.78960   0.01267  Uiso   1.00
H55    H     0.83540   0.87410   0.77930   0.01267  Uiso   1.00
H56    H     0.67510   0.87010   0.74290   0.01267  Uiso   1.00
H57    H     0.65270   0.91350   0.68710   0.01267  Uiso   1.00
H58    H     0.08390   0.99900   0.60420   0.01267  Uiso   1.00
H59    H     0.18890   0.03780   0.63900   0.01267  Uiso   1.00
H60    H     0.13660   0.04310   0.70990   0.01267  Uiso   1.00
H61    H     0.80030   0.97290   0.96090   0.01267  Uiso   1.00
H62    H     0.83980   0.97170   0.02870   0.01267  Uiso   1.00
H63    H     0.86420   0.03180   0.05820   0.01267  Uiso   1.00
H64    H     0.74870   0.20140   0.97180   0.01267  Uiso   1.00
H65    H     0.84990   0.21200   0.90500   0.01267  Uiso   1.00
H66    H     0.96240   0.15540   0.86720   0.01267  Uiso   1.00
H67    H     0.39290   0.15170   0.86230   0.01267  Uiso   1.00
H68    H     0.22310   0.21130   0.86450   0.01267  Uiso   1.00
H69    H     0.22710   0.23830   0.79630   0.01267  Uiso   1.00
H70    H     0.53990   0.12610   0.63230   0.01267  Uiso   1.00
H71    H     0.47920   0.06840   0.62660   0.01267  Uiso   1.00
H72    H     0.39380   0.04170   0.68770   0.01267  Uiso   1.00
H73    H     0.97680   0.51780   0.56180   0.01267  Uiso   1.00
H74    H     0.99750   0.56080   0.50460   0.01267  Uiso   1.00
H75    H     0.83460   0.61370   0.49730   0.01267  Uiso   1.00
H76    H     0.32970   0.63960   0.61180   0.01267  Uiso   1.00
H77    H     0.32070   0.64940   0.68100   0.01267  Uiso   1.00
H78    H     0.49920   0.62940   0.71040   0.01267  Uiso   1.00
H79    H     0.98880   0.62590   0.72070   0.01267  Uiso   1.00
H80    H     0.78810   0.62990   0.75710   0.01267  Uiso   1.00
H81    H     0.75330   0.58650   0.81290   0.01267  Uiso   1.00
H82    H     0.18710   0.50100   0.89580   0.01267  Uiso   1.00
H83    H     0.36570   0.46220   0.86100   0.01267  Uiso   1.00
H84    H     0.38960   0.45690   0.79010   0.01267  Uiso   1.00
H85    H     0.23410   0.52710   0.53910   0.01267  Uiso   1.00
H86    H     0.34020   0.52830   0.47130   0.01267  Uiso   1.00
H87    H     0.45420   0.46820   0.44180   0.01267  Uiso   1.00
H88    H     0.42190   0.29860   0.52820   0.01267  Uiso   1.00
H89    H     0.46690   0.28800   0.59500   0.01267  Uiso   1.00
H90    H     0.48500   0.34460   0.63280   0.01267  Uiso   1.00
H91    H     0.90690   0.34830   0.63770   0.01267  Uiso   1.00
H92    H     0.79890   0.28870   0.63550   0.01267  Uiso   1.00
H93    H     0.76170   0.26170   0.70370   0.01267  Uiso   1.00
H94    H     0.79830   0.37390   0.86770   0.01267  Uiso   1.00
H95    H     0.67420   0.43160   0.87340   0.01267  Uiso   1.00
H96    H     0.62320   0.45830   0.81230   0.01267  Uiso   1.00
H97    H     0.46140   0.56180   0.98220   0.01267  Uiso   1.00
H98    H     0.49790   0.50460   0.93920   0.01267  Uiso   1.00
H99    H     0.66810   0.49730   0.88630   0.01267  Uiso   1.00
H100   H     0.05850   0.61180   0.86040   0.01267  Uiso   1.00
H101   H     0.99830   0.68100   0.85060   0.01267  Uiso   1.00
H102   H     0.79040   0.71040   0.87060   0.01267  Uiso   1.00
H103   H     0.29050   0.72070   0.87410   0.01267  Uiso   1.00
H104   H     0.45480   0.75710   0.87010   0.01267  Uiso   1.00
H105   H     0.43380   0.81290   0.91350   0.01267  Uiso   1.00
H106   H     0.91710   0.89580   0.99900   0.01267  Uiso   1.00
H107   H     0.77330   0.86100   0.03780   0.01267  Uiso   1.00
H108   H     0.82030   0.79010   0.04310   0.01267  Uiso   1.00
H109   H     0.22680   0.53910   0.97290   0.01267  Uiso   1.00
H110   H     0.18850   0.47130   0.97170   0.01267  Uiso   1.00
H111   H     0.10400   0.44180   0.03180   0.01267  Uiso   1.00
H112   H     0.04990   0.52820   0.20140   0.01267  Uiso   1.00
H113   H     0.93810   0.59500   0.21200   0.01267  Uiso   1.00
H114   H     0.88220   0.63280   0.15540   0.01267  Uiso   1.00
H115   H     0.45540   0.63770   0.15170   0.01267  Uiso   1.00
H116   H     0.56560   0.63550   0.21130   0.01267  Uiso   1.00
H117   H     0.53460   0.70370   0.23830   0.01267  Uiso   1.00
H118   H     0.33400   0.86770   0.12610   0.01267  Uiso   1.00
H119   H     0.45240   0.87340   0.06840   0.01267  Uiso   1.00
H120   H     0.56450   0.81230   0.04170   0.01267  Uiso   1.00
H121   H     0.50540   0.93820   0.51780   0.01267  Uiso   1.00
H122   H     0.44170   0.99540   0.56080   0.01267  Uiso   1.00
H123   H     0.55170   0.00270   0.61370   0.01267  Uiso   1.00
H124   H     0.03070   0.88820   0.63960   0.01267  Uiso   1.00
H125   H     0.02990   0.81900   0.64940   0.01267  Uiso   1.00
H126   H     0.87140   0.78960   0.62940   0.01267  Uiso   1.00
H127   H     0.38530   0.77930   0.62590   0.01267  Uiso   1.00
H128   H     0.58200   0.74290   0.62990   0.01267  Uiso   1.00
H129   H     0.66020   0.68710   0.58650   0.01267  Uiso   1.00
H130   H     0.31190   0.60420   0.50100   0.01267  Uiso   1.00
H131   H     0.17210   0.63900   0.46220   0.01267  Uiso   1.00
H132   H     0.15350   0.70990   0.45690   0.01267  Uiso   1.00
H133   H     0.23880   0.96090   0.52710   0.01267  Uiso   1.00
H134   H     0.13150   0.02870   0.52830   0.01267  Uiso   1.00
H135   H     0.07760   0.05820   0.46820   0.01267  Uiso   1.00
H136   H     0.27950   0.97180   0.29860   0.01267  Uiso   1.00
H137   H     0.24510   0.90500   0.28800   0.01267  Uiso   1.00
H138   H     0.17040   0.86720   0.34460   0.01267  Uiso   1.00
H139   H     0.74480   0.86230   0.34830   0.01267  Uiso   1.00
H140   H     0.91240   0.86450   0.28870   0.01267  Uiso   1.00
H141   H     0.97660   0.79630   0.26170   0.01267  Uiso   1.00
H142   H     0.82780   0.63230   0.37390   0.01267  Uiso   1.00
H143   H     0.89420   0.62660   0.43160   0.01267  Uiso   1.00
H144   H     0.91850   0.68770   0.45830   0.01267  Uiso   1.00
H145   H     0.44360   0.01780   0.06180   0.01267  Uiso   1.00
H146   H     0.43710   0.06080   0.00460   0.01267  Uiso   1.00
H147   H     0.55440   0.11370   0.99730   0.01267  Uiso   1.00
H148   H     0.91890   0.13960   0.11180   0.01267  Uiso   1.00
H149   H     0.84890   0.14940   0.18100   0.01267  Uiso   1.00
H150   H     0.66100   0.12940   0.21040   0.01267  Uiso   1.00
H151   H     0.16460   0.12590   0.22070   0.01267  Uiso   1.00
H152   H     0.32490   0.12990   0.25710   0.01267  Uiso   1.00
H153   H     0.34730   0.08650   0.31290   0.01267  Uiso   1.00
H154   H     0.91610   0.00100   0.39580   0.01267  Uiso   1.00
H155   H     0.81110   0.96220   0.36100   0.01267  Uiso   1.00
H156   H     0.86340   0.95690   0.29010   0.01267  Uiso   1.00
H157   H     0.19970   0.02710   0.03910   0.01267  Uiso   1.00
H158   H     0.16020   0.02830   0.97130   0.01267  Uiso   1.00
H159   H     0.13580   0.96820   0.94180   0.01267  Uiso   1.00
H160   H     0.25130   0.79860   0.02820   0.01267  Uiso   1.00
H161   H     0.15010   0.78800   0.09500   0.01267  Uiso   1.00
H162   H     0.03760   0.84460   0.13280   0.01267  Uiso   1.00
H163   H     0.60710   0.84830   0.13770   0.01267  Uiso   1.00
H164   H     0.77690   0.78870   0.13550   0.01267  Uiso   1.00
H165   H     0.77290   0.76170   0.20370   0.01267  Uiso   1.00
H166   H     0.46010   0.87390   0.36770   0.01267  Uiso   1.00
H167   H     0.52080   0.93160   0.37340   0.01267  Uiso   1.00
H168   H     0.60620   0.95830   0.31230   0.01267  Uiso   1.00
H169   H     0.02320   0.48220   0.43820   0.01267  Uiso   1.00
H170   H     0.00250   0.43920   0.49540   0.01267  Uiso   1.00
H171   H     0.16540   0.38630   0.50270   0.01267  Uiso   1.00
H172   H     0.67030   0.36040   0.38820   0.01267  Uiso   1.00
H173   H     0.67930   0.35060   0.31900   0.01267  Uiso   1.00
H174   H     0.50080   0.37060   0.28960   0.01267  Uiso   1.00
H175   H     0.01120   0.37410   0.27930   0.01267  Uiso   1.00
H176   H     0.21190   0.37010   0.24290   0.01267  Uiso   1.00
H177   H     0.24670   0.41350   0.18710   0.01267  Uiso   1.00
H178   H     0.81290   0.49900   0.10420   0.01267  Uiso   1.00
H179   H     0.63430   0.53780   0.13900   0.01267  Uiso   1.00
H180   H     0.61040   0.54310   0.20990   0.01267  Uiso   1.00
H181   H     0.76590   0.47290   0.46090   0.01267  Uiso   1.00
H182   H     0.65980   0.47170   0.52870   0.01267  Uiso   1.00
H183   H     0.54580   0.53180   0.55820   0.01267  Uiso   1.00
H184   H     0.57810   0.70140   0.47180   0.01267  Uiso   1.00
H185   H     0.53310   0.71200   0.40500   0.01267  Uiso   1.00
H186   H     0.51500   0.65540   0.36720   0.01267  Uiso   1.00
H187   H     0.09310   0.65170   0.36230   0.01267  Uiso   1.00
H188   H     0.20110   0.71130   0.36450   0.01267  Uiso   1.00
H189   H     0.23830   0.73830   0.29630   0.01267  Uiso   1.00
H190   H     0.20170   0.62610   0.13230   0.01267  Uiso   1.00
H191   H     0.32580   0.56840   0.12660   0.01267  Uiso   1.00
H192   H     0.37680   0.54170   0.18770   0.01267  Uiso   1.00
C1     C     0.41525   0.37612   0.01758   0.01267  Uiso   1.00
C2     C     0.39908   0.41017   0.04867   0.01267  Uiso   1.00
C3     C     0.47393   0.44089   0.04025   0.01267  Uiso   1.00
C4     C     0.45131   0.47525   0.06533   0.01267  Uiso   1.00
C5     C     0.35063   0.47895   0.09759   0.01267  Uiso   1.00
C6     C     0.30682   0.41469   0.08367   0.01267  Uiso   1.00
C7     C     0.22570   0.38337   0.10023   0.01267  Uiso   1.00
C8     C     0.02469   0.37646   0.13116   0.01267  Uiso   1.00
C9     C     0.05988   0.33507   0.13717   0.01267  Uiso   1.00
C10    C     0.18339   0.31751   0.12471   0.01267  Uiso   1.00
C11    C     0.26818   0.34175   0.10529   0.01267  Uiso   1.00
C12    C     0.40246   0.32184   0.09104   0.01267  Uiso   1.00
C13    C     0.93116   0.27001   0.07847   0.01267  Uiso   1.00
C14    C     0.82401   0.24586   0.08012   0.01267  Uiso   1.00
C15    C     0.71606   0.25703   0.10845   0.01267  Uiso   1.00
C16    C     0.61831   0.23533   0.11105   0.01267  Uiso   1.00
C17    C     0.63175   0.20196   0.08494   0.01267  Uiso   1.00
C18    C     0.83099   0.21191   0.05451   0.01267  Uiso   1.00
C19    C     0.94255   0.19400   0.02410   0.01267  Uiso   1.00
C20    C     0.06773   0.13288   0.00086   0.01267  Uiso   1.00
C21    C     0.15271   0.15344   0.97654   0.01267  Uiso   1.00
C22    C     0.12545   0.19560   0.97410   0.01267  Uiso   1.00
C23    C     0.01801   0.21699   0.99699   0.01267  Uiso   1.00
C24    C     0.97877   0.26272   0.98874   0.01267  Uiso   1.00
C25    C     0.80416   0.40886   0.96482   0.01267  Uiso   1.00
C26    C     0.84475   0.45050   0.96680   0.01267  Uiso   1.00
C27    C     0.81044   0.47287   0.00325   0.01267  Uiso   1.00
C28    C     0.83219   0.51350   0.00392   0.01267  Uiso   1.00
C29    C     0.88482   0.53080   0.96796   0.01267  Uiso   1.00
C30    C     0.90621   0.46927   0.93231   0.01267  Uiso   1.00
C31    C     0.95655   0.44871   0.89199   0.01267  Uiso   1.00
C32    C     0.96955   0.45586   0.82124   0.01267  Uiso   1.00
C33    C     0.03851   0.41593   0.81445   0.01267  Uiso   1.00
C34    C     0.07053   0.39349   0.84825   0.01267  Uiso   1.00
C35    C     0.03246   0.40986   0.88802   0.01267  Uiso   1.00
C36    C     0.08713   0.38723   0.92311   0.01267  Uiso   1.00
C37    C     0.62170   0.30550   0.90150   0.01267  Uiso   1.00
C38    C     0.55900   0.30150   0.86150   0.01267  Uiso   1.00
C39    C     0.52720   0.33790   0.83870   0.01267  Uiso   1.00
C40    C     0.46970   0.34070   0.80130   0.01267  Uiso   1.00
C41    C     0.47980   0.29960   0.78840   0.01267  Uiso   1.00
C42    C     0.53450   0.26630   0.84790   0.01267  Uiso   1.00
C43    C     0.54890   0.22800   0.87220   0.01267  Uiso   1.00
C44    C     0.61460   0.15670   0.88370   0.01267  Uiso   1.00
C45    C     0.54900   0.15180   0.91800   0.01267  Uiso   1.00
C46    C     0.48250   0.18740   0.93200   0.01267  Uiso   1.00
C47    C     0.47710   0.22550   0.90990   0.01267  Uiso   1.00
C48    C     0.38524   0.26008   0.93004   0.01267  Uiso   1.00
C49    C     0.30895   0.12388   0.48242   0.01267  Uiso   1.00
C50    C     0.35792   0.08983   0.45133   0.01267  Uiso   1.00
C51    C     0.45507   0.05911   0.45975   0.01267  Uiso   1.00
C52    C     0.49189   0.02475   0.43467   0.01267  Uiso   1.00
C53    C     0.42717   0.02105   0.40241   0.01267  Uiso   1.00
C54    C     0.30518   0.08531   0.41633   0.01267  Uiso   1.00
C55    C     0.20930   0.11663   0.39977   0.01267  Uiso   1.00
C56    C     0.03231   0.12354   0.36884   0.01267  Uiso   1.00
C57    C     0.03212   0.16493   0.36283   0.01267  Uiso   1.00
C58    C     0.12561   0.18249   0.37529   0.01267  Uiso   1.00
C59    C     0.21522   0.15825   0.39471   0.01267  Uiso   1.00
C60    C     0.31534   0.17816   0.40896   0.01267  Uiso   1.00
C61    C     0.77964   0.22999   0.42153   0.01267  Uiso   1.00
C62    C     0.64999   0.25414   0.41988   0.01267  Uiso   1.00
C63    C     0.58154   0.24297   0.39155   0.01267  Uiso   1.00
C64    C     0.46469   0.26467   0.38895   0.01267  Uiso   1.00
C65    C     0.41865   0.29804   0.41506   0.01267  Uiso   1.00
C66    C     0.59741   0.28809   0.44549   0.01267  Uiso   1.00
C67    C     0.66065   0.30600   0.47590   0.01267  Uiso   1.00
C68    C     0.70147   0.36712   0.49914   0.01267  Uiso   1.00
C69    C     0.78269   0.34656   0.52346   0.01267  Uiso   1.00
C70    C     0.79515   0.30440   0.52590   0.01267  Uiso   1.00
C71    C     0.73199   0.28301   0.50301   0.01267  Uiso   1.00
C72    C     0.73023   0.23728   0.51126   0.01267  Uiso   1.00
C73    C     0.67784   0.09114   0.53518   0.01267  Uiso   1.00
C74    C     0.76205   0.04950   0.53320   0.01267  Uiso   1.00
C75    C     0.78656   0.02713   0.49675   0.01267  Uiso   1.00
C76    C     0.84961   0.98650   0.49608   0.01267  Uiso   1.00
C77    C     0.88358   0.96920   0.53204   0.01267  Uiso   1.00
C78    C     0.80779   0.03073   0.56769   0.01267  Uiso   1.00
C79    C     0.79725   0.05129   0.60801   0.01267  Uiso   1.00
C80    C     0.74665   0.04414   0.67876   0.01267  Uiso   1.00
C81    C     0.76889   0.08407   0.68555   0.01267  Uiso   1.00
C82    C     0.81227   0.10651   0.65175   0.01267  Uiso   1.00
C83    C     0.83034   0.09014   0.61198   0.01267  Uiso   1.00
C84    C     0.89747   0.11277   0.57689   0.01267  Uiso   1.00
C85    C     0.32870   0.19450   0.59850   0.01267  Uiso   1.00
C86    C     0.22200   0.19850   0.63850   0.01267  Uiso   1.00
C87    C     0.20380   0.16210   0.66130   0.01267  Uiso   1.00
C88    C     0.11170   0.15930   0.69870   0.01267  Uiso   1.00
C89    C     0.06780   0.20040   0.71160   0.01267  Uiso   1.00
C90    C     0.14870   0.23370   0.65210   0.01267  Uiso   1.00
C91    C     0.14910   0.27200   0.62780   0.01267  Uiso   1.00
C92    C     0.15500   0.34330   0.61630   0.01267  Uiso   1.00
C93    C     0.11880   0.34820   0.58200   0.01267  Uiso   1.00
C94    C     0.10190   0.31260   0.56800   0.01267  Uiso   1.00
C95    C     0.11250   0.27450   0.59010   0.01267  Uiso   1.00
C96    C     0.07536   0.23992   0.56996   0.01267  Uiso   1.00
C97    C     0.43283   0.98242   0.87612   0.01267  Uiso   1.00
C98    C     0.44775   0.95133   0.91017   0.01267  Uiso   1.00
C99    C     0.51418   0.95975   0.94089   0.01267  Uiso   1.00
C100   C     0.51664   0.93467   0.97525   0.01267  Uiso   1.00
C101   C     0.44822   0.90241   0.97895   0.01267  Uiso   1.00
C102   C     0.39049   0.91633   0.91469   0.01267  Uiso   1.00
C103   C     0.32593   0.89977   0.88337   0.01267  Uiso   1.00
C104   C     0.15585   0.86884   0.87646   0.01267  Uiso   1.00
C105   C     0.19705   0.86283   0.83507   0.01267  Uiso   1.00
C106   C     0.30810   0.87529   0.81751   0.01267  Uiso   1.00
C107   C     0.37347   0.89471   0.84175   0.01267  Uiso   1.00
C108   C     0.49350   0.90896   0.82184   0.01267  Uiso   1.00
C109   C     0.00963   0.92153   0.77001   0.01267  Uiso   1.00
C110   C     0.90413   0.91988   0.74586   0.01267  Uiso   1.00
C111   C     0.82451   0.89155   0.75703   0.01267  Uiso   1.00
C112   C     0.72936   0.88895   0.73533   0.01267  Uiso   1.00
C113   C     0.71669   0.91506   0.70196   0.01267  Uiso   1.00
C114   C     0.88550   0.94549   0.71191   0.01267  Uiso   1.00
C115   C     0.96665   0.97590   0.69400   0.01267  Uiso   1.00
C116   C     0.06859   0.99914   0.63288   0.01267  Uiso   1.00
C117   C     0.12925   0.02346   0.65344   0.01267  Uiso   1.00
C118   C     0.09955   0.02590   0.69560   0.01267  Uiso   1.00
C119   C     0.01500   0.00301   0.71699   0.01267  Uiso   1.00
C120   C     0.96751   0.01126   0.76272   0.01267  Uiso   1.00
C121   C     0.76898   0.03518   0.90886   0.01267  Uiso   1.00
C122   C     0.81155   0.03320   0.95050   0.01267  Uiso   1.00
C123   C     0.81369   0.99675   0.97287   0.01267  Uiso   1.00
C124   C     0.83611   0.99608   0.01350   0.01267  Uiso   1.00
C125   C     0.85278   0.03204   0.03080   0.01267  Uiso   1.00
C126   C     0.83852   0.06769   0.96927   0.01267  Uiso   1.00
C127   C     0.84854   0.10801   0.94871   0.01267  Uiso   1.00
C128   C     0.79079   0.17876   0.95586   0.01267  Uiso   1.00
C129   C     0.85296   0.18555   0.91593   0.01267  Uiso   1.00
C130   C     0.91878   0.15175   0.89349   0.01267  Uiso   1.00
C131   C     0.92048   0.11198   0.90986   0.01267  Uiso   1.00
C132   C     0.01024   0.07689   0.88723   0.01267  Uiso   1.00
C133   C     0.52320   0.09850   0.80550   0.01267  Uiso   1.00
C134   C     0.42050   0.13850   0.80150   0.01267  Uiso   1.00
C135   C     0.36590   0.16130   0.83790   0.01267  Uiso   1.00
C136   C     0.27100   0.19870   0.84070   0.01267  Uiso   1.00
C137   C     0.26820   0.21160   0.79960   0.01267  Uiso   1.00
C138   C     0.38240   0.15210   0.76630   0.01267  Uiso   1.00
C139   C     0.42110   0.12780   0.72800   0.01267  Uiso   1.00
C140   C     0.49830   0.11630   0.65670   0.01267  Uiso   1.00
C141   C     0.46700   0.08200   0.65180   0.01267  Uiso   1.00
C142   C     0.41450   0.06800   0.68740   0.01267  Uiso   1.00
C143   C     0.38700   0.09010   0.72550   0.01267  Uiso   1.00
C144   C     0.31528   0.06996   0.76008   0.01267  Uiso   1.00
C145   C     0.79137   0.51758   0.62388   0.01267  Uiso   1.00
C146   C     0.80925   0.54867   0.58983   0.01267  Uiso   1.00
C147   C     0.91482   0.54025   0.55911   0.01267  Uiso   1.00
C148   C     0.92656   0.56533   0.52475   0.01267  Uiso   1.00
C149   C     0.82958   0.59759   0.52105   0.01267  Uiso   1.00
C150   C     0.72151   0.58367   0.58531   0.01267  Uiso   1.00
C151   C     0.60907   0.60023   0.61663   0.01267  Uiso   1.00
C152   C     0.40115   0.63116   0.62354   0.01267  Uiso   1.00
C153   C     0.39495   0.63717   0.66493   0.01267  Uiso   1.00
C154   C     0.50090   0.62471   0.68249   0.01267  Uiso   1.00
C155   C     0.60993   0.60529   0.65825   0.01267  Uiso   1.00
C156   C     0.72430   0.59104   0.67816   0.01267  Uiso   1.00
C157   C     0.20117   0.57847   0.72999   0.01267  Uiso   1.00
C158   C     0.06987   0.58012   0.75414   0.01267  Uiso   1.00
C159   C     0.97309   0.60845   0.74297   0.01267  Uiso   1.00
C160   C     0.85364   0.61105   0.76467   0.01267  Uiso   1.00
C161   C     0.83371   0.58494   0.79804   0.01267  Uiso   1.00
C162   C     0.04290   0.55451   0.78809   0.01267  Uiso   1.00
C163   C     0.13655   0.52410   0.80600   0.01267  Uiso   1.00
C164   C     0.20061   0.50086   0.86712   0.01267  Uiso   1.00
C165   C     0.30615   0.47654   0.84656   0.01267  Uiso   1.00
C166   C     0.32105   0.47410   0.80440   0.01267  Uiso   1.00
C167   C     0.23500   0.49699   0.78301   0.01267  Uiso   1.00
C168   C     0.24149   0.48874   0.73728   0.01267  Uiso   1.00
C169   C     0.21302   0.46482   0.59114   0.01267  Uiso   1.00
C170   C     0.29525   0.46680   0.54950   0.01267  Uiso   1.00
C171   C     0.28331   0.50325   0.52713   0.01267  Uiso   1.00
C172   C     0.34569   0.50392   0.48650   0.01267  Uiso   1.00
C173   C     0.41562   0.46796   0.46920   0.01267  Uiso   1.00
C174   C     0.37548   0.43231   0.53073   0.01267  Uiso   1.00
C175   C     0.40526   0.39199   0.55129   0.01267  Uiso   1.00
C176   C     0.42541   0.32124   0.54414   0.01267  Uiso   1.00
C177   C     0.45444   0.31445   0.58407   0.01267  Uiso   1.00
C178   C     0.46402   0.34825   0.60651   0.01267  Uiso   1.00
C179   C     0.44232   0.38802   0.59014   0.01267  Uiso   1.00
C180   C     0.47436   0.42311   0.61277   0.01267  Uiso   1.00
C181   C     0.92720   0.40150   0.69450   0.01267  Uiso   1.00
C182   C     0.86050   0.36150   0.69850   0.01267  Uiso   1.00
C183   C     0.86510   0.33870   0.66210   0.01267  Uiso   1.00
C184   C     0.81040   0.30130   0.65930   0.01267  Uiso   1.00
C185   C     0.77940   0.28840   0.70040   0.01267  Uiso   1.00
C186   C     0.80080   0.34790   0.73370   0.01267  Uiso   1.00
C187   C     0.77690   0.37220   0.77200   0.01267  Uiso   1.00
C188   C     0.77130   0.38370   0.84330   0.01267  Uiso   1.00
C189   C     0.70080   0.41800   0.84820   0.01267  Uiso   1.00
C190   C     0.66990   0.43200   0.81260   0.01267  Uiso   1.00
C191   C     0.70260   0.40990   0.77450   0.01267  Uiso   1.00
C192   C     0.64532   0.43004   0.73992   0.01267  Uiso   1.00
C193   C     0.58475   0.62388   0.98242   0.01267  Uiso   1.00
C194   C     0.60092   0.58983   0.95133   0.01267  Uiso   1.00
C195   C     0.52607   0.55911   0.95975   0.01267  Uiso   1.00
C196   C     0.54869   0.52475   0.93467   0.01267  Uiso   1.00
C197   C     0.64937   0.52105   0.90241   0.01267  Uiso   1.00
C198   C     0.69318   0.58531   0.91633   0.01267  Uiso   1.00
C199   C     0.77430   0.61663   0.89977   0.01267  Uiso   1.00
C200   C     0.97531   0.62354   0.86884   0.01267  Uiso   1.00
C201   C     0.94012   0.66493   0.86283   0.01267  Uiso   1.00
C202   C     0.81661   0.68249   0.87529   0.01267  Uiso   1.00
C203   C     0.73182   0.65825   0.89471   0.01267  Uiso   1.00
C204   C     0.59754   0.67816   0.90896   0.01267  Uiso   1.00
C205   C     0.06884   0.72999   0.92153   0.01267  Uiso   1.00
C206   C     0.17599   0.75414   0.91988   0.01267  Uiso   1.00
C207   C     0.28394   0.74297   0.89155   0.01267  Uiso   1.00
C208   C     0.38169   0.76467   0.88895   0.01267  Uiso   1.00
C209   C     0.36825   0.79804   0.91506   0.01267  Uiso   1.00
C210   C     0.16901   0.78809   0.94549   0.01267  Uiso   1.00
C211   C     0.05745   0.80600   0.97590   0.01267  Uiso   1.00
C212   C     0.93227   0.86712   0.99914   0.01267  Uiso   1.00
C213   C     0.84729   0.84656   0.02346   0.01267  Uiso   1.00
C214   C     0.87455   0.80440   0.02590   0.01267  Uiso   1.00
C215   C     0.98199   0.78301   0.00301   0.01267  Uiso   1.00
C216   C     0.02123   0.73728   0.01126   0.01267  Uiso   1.00
C217   C     0.19584   0.59114   0.03518   0.01267  Uiso   1.00
C218   C     0.15525   0.54950   0.03320   0.01267  Uiso   1.00
C219   C     0.18956   0.52713   0.99675   0.01267  Uiso   1.00
C220   C     0.16781   0.48650   0.99608   0.01267  Uiso   1.00
C221   C     0.11518   0.46920   0.03204   0.01267  Uiso   1.00
C222   C     0.09379   0.53073   0.06769   0.01267  Uiso   1.00
C223   C     0.04345   0.55129   0.10801   0.01267  Uiso   1.00
C224   C     0.03045   0.54414   0.17876   0.01267  Uiso   1.00
C225   C     0.96149   0.58407   0.18555   0.01267  Uiso   1.00
C226   C     0.92947   0.60651   0.15175   0.01267  Uiso   1.00
C227   C     0.96754   0.59014   0.11198   0.01267  Uiso   1.00
C228   C     0.91287   0.61277   0.07689   0.01267  Uiso   1.00
C229   C     0.37830   0.69450   0.09850   0.01267  Uiso   1.00
C230   C     0.44100   0.69850   0.13850   0.01267  Uiso   1.00
C231   C     0.47280   0.66210   0.16130   0.01267  Uiso   1.00
C232   C     0.53030   0.65930   0.19870   0.01267  Uiso   1.00
C233   C     0.52020   0.70040   0.21160   0.01267  Uiso   1.00
C234   C     0.46550   0.73370   0.15210   0.01267  Uiso   1.00
C235   C     0.45110   0.77200   0.12780   0.01267  Uiso   1.00
C236   C     0.38540   0.84330   0.11630   0.01267  Uiso   1.00
C237   C     0.45100   0.84820   0.08200   0.01267  Uiso   1.00
C238   C     0.51750   0.81260   0.06800   0.01267  Uiso   1.00
C239   C     0.52290   0.77450   0.09010   0.01267  Uiso   1.00
C240   C     0.61476   0.73992   0.06996   0.01267  Uiso   1.00
C241   C     0.69105   0.87612   0.51758   0.01267  Uiso   1.00
C242   C     0.64208   0.91017   0.54867   0.01267  Uiso   1.00
C243   C     0.54493   0.94089   0.54025   0.01267  Uiso   1.00
C244   C     0.50811   0.97525   0.56533   0.01267  Uiso   1.00
C245   C     0.57283   0.97895   0.59759   0.01267  Uiso   1.00
C246   C     0.69482   0.91469   0.58367   0.01267  Uiso   1.00
C247   C     0.79070   0.88337   0.60023   0.01267  Uiso   1.00
C248   C     0.96769   0.87646   0.63116   0.01267  Uiso   1.00
C249   C     0.96788   0.83507   0.63717   0.01267  Uiso   1.00
C250   C     0.87439   0.81751   0.62471   0.01267  Uiso   1.00
C251   C     0.78478   0.84175   0.60529   0.01267  Uiso   1.00
C252   C     0.68466   0.82184   0.59104   0.01267  Uiso   1.00
C253   C     0.22036   0.77001   0.57847   0.01267  Uiso   1.00
C254   C     0.35001   0.74586   0.58012   0.01267  Uiso   1.00
C255   C     0.41846   0.75703   0.60845   0.01267  Uiso   1.00
C256   C     0.53531   0.73533   0.61105   0.01267  Uiso   1.00
C257   C     0.58135   0.70196   0.58494   0.01267  Uiso   1.00
C258   C     0.40259   0.71191   0.55451   0.01267  Uiso   1.00
C259   C     0.33935   0.69400   0.52410   0.01267  Uiso   1.00
C260   C     0.29853   0.63288   0.50086   0.01267  Uiso   1.00
C261   C     0.21731   0.65344   0.47654   0.01267  Uiso   1.00
C262   C     0.20485   0.69560   0.47410   0.01267  Uiso   1.00
C263   C     0.26801   0.71699   0.49699   0.01267  Uiso   1.00
C264   C     0.26977   0.76272   0.48874   0.01267  Uiso   1.00
C265   C     0.32216   0.90886   0.46482   0.01267  Uiso   1.00
C266   C     0.23795   0.95050   0.46680   0.01267  Uiso   1.00
C267   C     0.21344   0.97287   0.50325   0.01267  Uiso   1.00
C268   C     0.15039   0.01350   0.50392   0.01267  Uiso   1.00
C269   C     0.11642   0.03080   0.46796   0.01267  Uiso   1.00
C270   C     0.19221   0.96927   0.43231   0.01267  Uiso   1.00
C271   C     0.20275   0.94871   0.39199   0.01267  Uiso   1.00
C272   C     0.25335   0.95586   0.32124   0.01267  Uiso   1.00
C273   C     0.23111   0.91593   0.31445   0.01267  Uiso   1.00
C274   C     0.18773   0.89349   0.34825   0.01267  Uiso   1.00
C275   C     0.16966   0.90986   0.38802   0.01267  Uiso   1.00
C276   C     0.10253   0.88723   0.42311   0.01267  Uiso   1.00
C277   C     0.67130   0.80550   0.40150   0.01267  Uiso   1.00
C278   C     0.77800   0.80150   0.36150   0.01267  Uiso   1.00
C279   C     0.79620   0.83790   0.33870   0.01267  Uiso   1.00
C280   C     0.88830   0.84070   0.30130   0.01267  Uiso   1.00
C281   C     0.93220   0.79960   0.28840   0.01267  Uiso   1.00
C282   C     0.85130   0.76630   0.34790   0.01267  Uiso   1.00
C283   C     0.85090   0.72800   0.37220   0.01267  Uiso   1.00
C284   C     0.84500   0.65670   0.38370   0.01267  Uiso   1.00
C285   C     0.88120   0.65180   0.41800   0.01267  Uiso   1.00
C286   C     0.89810   0.68740   0.43200   0.01267  Uiso   1.00
C287   C     0.88750   0.72550   0.40990   0.01267  Uiso   1.00
C288   C     0.92464   0.76008   0.43004   0.01267  Uiso   1.00
C289   C     0.56717   0.01758   0.12388   0.01267  Uiso   1.00
C290   C     0.55225   0.04867   0.08983   0.01267  Uiso   1.00
C291   C     0.48582   0.04025   0.05911   0.01267  Uiso   1.00
C292   C     0.48336   0.06533   0.02475   0.01267  Uiso   1.00
C293   C     0.55178   0.09759   0.02105   0.01267  Uiso   1.00
C294   C     0.60951   0.08367   0.08531   0.01267  Uiso   1.00
C295   C     0.67407   0.10023   0.11663   0.01267  Uiso   1.00
C296   C     0.84415   0.13116   0.12354   0.01267  Uiso   1.00
C297   C     0.80295   0.13717   0.16493   0.01267  Uiso   1.00
C298   C     0.69190   0.12471   0.18249   0.01267  Uiso   1.00
C299   C     0.62653   0.10529   0.15825   0.01267  Uiso   1.00
C300   C     0.50650   0.09104   0.17816   0.01267  Uiso   1.00
C301   C     0.99037   0.07847   0.22999   0.01267  Uiso   1.00
C302   C     0.09587   0.08012   0.25414   0.01267  Uiso   1.00
C303   C     0.17549   0.10845   0.24297   0.01267  Uiso   1.00
C304   C     0.27064   0.11105   0.26467   0.01267  Uiso   1.00
C305   C     0.28331   0.08494   0.29804   0.01267  Uiso   1.00
C306   C     0.11450   0.05451   0.28809   0.01267  Uiso   1.00
C307   C     0.03335   0.02410   0.30600   0.01267  Uiso   1.00
C308   C     0.93141   0.00086   0.36712   0.01267  Uiso   1.00
C309   C     0.87075   0.97654   0.34656   0.01267  Uiso   1.00
C310   C     0.90045   0.97410   0.30440   0.01267  Uiso   1.00
C311   C     0.98500   0.99699   0.28301   0.01267  Uiso   1.00
C312   C     0.03249   0.98874   0.23728   0.01267  Uiso   1.00
C313   C     0.23102   0.96482   0.09114   0.01267  Uiso   1.00
C314   C     0.18845   0.96680   0.04950   0.01267  Uiso   1.00
C315   C     0.18631   0.00325   0.02713   0.01267  Uiso   1.00
C316   C     0.16389   0.00392   0.98650   0.01267  Uiso   1.00
C317   C     0.14722   0.96796   0.96920   0.01267  Uiso   1.00
C318   C     0.16148   0.93231   0.03073   0.01267  Uiso   1.00
C319   C     0.15146   0.89199   0.05129   0.01267  Uiso   1.00
C320   C     0.20921   0.82124   0.04414   0.01267  Uiso   1.00
C321   C     0.14704   0.81445   0.08407   0.01267  Uiso   1.00
C322   C     0.08122   0.84825   0.10651   0.01267  Uiso   1.00
C323   C     0.07952   0.88802   0.09014   0.01267  Uiso   1.00
C324   C     0.98976   0.92311   0.11277   0.01267  Uiso   1.00
C325   C     0.47680   0.90150   0.19450   0.01267  Uiso   1.00
C326   C     0.57950   0.86150   0.19850   0.01267  Uiso   1.00
C327   C     0.63410   0.83870   0.16210   0.01267  Uiso   1.00
C328   C     0.72900   0.80130   0.15930   0.01267  Uiso   1.00
C329   C     0.73180   0.78840   0.20040   0.01267  Uiso   1.00
C330   C     0.61760   0.84790   0.23370   0.01267  Uiso   1.00
C331   C     0.57890   0.87220   0.27200   0.01267  Uiso   1.00
C332   C     0.50170   0.88370   0.34330   0.01267  Uiso   1.00
C333   C     0.53300   0.91800   0.34820   0.01267  Uiso   1.00
C334   C     0.58550   0.93200   0.31260   0.01267  Uiso   1.00
C335   C     0.61300   0.90990   0.27450   0.01267  Uiso   1.00
C336   C     0.68472   0.93004   0.23992   0.01267  Uiso   1.00
C337   C     0.20863   0.48242   0.37612   0.01267  Uiso   1.00
C338   C     0.19075   0.45133   0.41017   0.01267  Uiso   1.00
C339   C     0.08518   0.45975   0.44089   0.01267  Uiso   1.00
C340   C     0.07344   0.43467   0.47525   0.01267  Uiso   1.00
C341   C     0.17042   0.40241   0.47895   0.01267  Uiso   1.00
C342   C     0.27849   0.41633   0.41469   0.01267  Uiso   1.00
C343   C     0.39093   0.39977   0.38337   0.01267  Uiso   1.00
C344   C     0.59885   0.36884   0.37646   0.01267  Uiso   1.00
C345   C     0.60505   0.36283   0.33507   0.01267  Uiso   1.00
C346   C     0.49910   0.37529   0.31751   0.01267  Uiso   1.00
C347   C     0.39007   0.39471   0.34175   0.01267  Uiso   1.00
C348   C     0.27570   0.40896   0.32184   0.01267  Uiso   1.00
C349   C     0.79883   0.42153   0.27001   0.01267  Uiso   1.00
C350   C     0.93013   0.41988   0.24586   0.01267  Uiso   1.00
C351   C     0.02691   0.39155   0.25703   0.01267  Uiso   1.00
C352   C     0.14636   0.38895   0.23533   0.01267  Uiso   1.00
C353   C     0.16629   0.41506   0.20196   0.01267  Uiso   1.00
C354   C     0.95710   0.44549   0.21191   0.01267  Uiso   1.00
C355   C     0.86345   0.47590   0.19400   0.01267  Uiso   1.00
C356   C     0.79939   0.49914   0.13288   0.01267  Uiso   1.00
C357   C     0.69385   0.52346   0.15344   0.01267  Uiso   1.00
C358   C     0.67895   0.52590   0.19560   0.01267  Uiso   1.00
C359   C     0.76500   0.50301   0.21699   0.01267  Uiso   1.00
C360   C     0.75851   0.51126   0.26272   0.01267  Uiso   1.00
C361   C     0.78698   0.53518   0.40886   0.01267  Uiso   1.00
C362   C     0.70475   0.53320   0.45050   0.01267  Uiso   1.00
C363   C     0.71669   0.49675   0.47287   0.01267  Uiso   1.00
C364   C     0.65431   0.49608   0.51350   0.01267  Uiso   1.00
C365   C     0.58438   0.53204   0.53080   0.01267  Uiso   1.00
C366   C     0.62452   0.56769   0.46927   0.01267  Uiso   1.00
C367   C     0.59474   0.60801   0.44871   0.01267  Uiso   1.00
C368   C     0.57459   0.67876   0.45586   0.01267  Uiso   1.00
C369   C     0.54556   0.68555   0.41593   0.01267  Uiso   1.00
C370   C     0.53598   0.65175   0.39349   0.01267  Uiso   1.00
C371   C     0.55768   0.61198   0.40986   0.01267  Uiso   1.00
C372   C     0.52564   0.57689   0.38723   0.01267  Uiso   1.00
C373   C     0.07280   0.59850   0.30550   0.01267  Uiso   1.00
C374   C     0.13950   0.63850   0.30150   0.01267  Uiso   1.00
C375   C     0.13490   0.66130   0.33790   0.01267  Uiso   1.00
C376   C     0.18960   0.69870   0.34070   0.01267  Uiso   1.00
C377   C     0.22060   0.71160   0.29960   0.01267  Uiso   1.00
C378   C     0.19920   0.65210   0.26630   0.01267  Uiso   1.00
C379   C     0.22310   0.62780   0.22800   0.01267  Uiso   1.00
C380   C     0.22870   0.61630   0.15670   0.01267  Uiso   1.00
C381   C     0.29920   0.58200   0.15180   0.01267  Uiso   1.00
C382   C     0.33010   0.56800   0.18740   0.01267  Uiso   1.00
C383   C     0.29740   0.59010   0.22550   0.01267  Uiso   1.00
C384   C     0.35468   0.56996   0.26008   0.01267  Uiso   1.00
N1     N     0.27963   0.44937   0.10617   0.01267  Uiso   1.00
N2     N     0.10566   0.40084   0.11364   0.01267  Uiso   1.00
N3     N     0.73551   0.19035   0.05763   0.01267  Uiso   1.00
N4     N     0.96373   0.15267   0.02427   0.01267  Uiso   1.00
N5     N     0.93093   0.47178   0.85896   0.01267  Uiso   1.00
N6     N     0.92030   0.50942   0.93258   0.01267  Uiso   1.00
N7     N     0.62950   0.18840   0.85720   0.01267  Uiso   1.00
N8     N     0.50720   0.26450   0.80930   0.01267  Uiso   1.00
N9     N     0.33517   0.05063   0.39383   0.01267  Uiso   1.00
N10    N     0.12014   0.09916   0.38636   0.01267  Uiso   1.00
N11    N     0.48349   0.30965   0.44237   0.01267  Uiso   1.00
N12    N     0.64067   0.34733   0.47573   0.01267  Uiso   1.00
N13    N     0.76167   0.02822   0.64104   0.01267  Uiso   1.00
N14    N     0.86230   0.99058   0.56742   0.01267  Uiso   1.00
N15    N     0.17510   0.31160   0.64280   0.01267  Uiso   1.00
N16    N     0.08100   0.23550   0.69070   0.01267  Uiso   1.00
N17    N     0.38580   0.89383   0.94937   0.01267  Uiso   1.00
N18    N     0.21930   0.88636   0.90084   0.01267  Uiso   1.00
N19    N     0.79314   0.94237   0.69035   0.01267  Uiso   1.00
N20    N     0.98800   0.97573   0.65267   0.01267  Uiso   1.00
N21    N     0.78989   0.14104   0.97178   0.01267  Uiso   1.00
N22    N     0.85288   0.06742   0.00942   0.01267  Uiso   1.00
N23    N     0.48670   0.14280   0.68840   0.01267  Uiso   1.00
N24    N     0.31650   0.19070   0.76450   0.01267  Uiso   1.00
N25    N     0.72900   0.60617   0.55063   0.01267  Uiso   1.00
N26    N     0.50650   0.61364   0.59916   0.01267  Uiso   1.00
N27    N     0.92586   0.55763   0.80965   0.01267  Uiso   1.00
N28    N     0.11640   0.52427   0.84733   0.01267  Uiso   1.00
N29    N     0.40271   0.35896   0.52822   0.01267  Uiso   1.00
N30    N     0.42972   0.43258   0.49058   0.01267  Uiso   1.00
N31    N     0.81790   0.35720   0.81160   0.01267  Uiso   1.00
N32    N     0.77170   0.30930   0.73550   0.01267  Uiso   1.00
N33    N     0.72037   0.55063   0.89383   0.01267  Uiso   1.00
N34    N     0.89434   0.59916   0.88636   0.01267  Uiso   1.00
N35    N     0.26449   0.80965   0.94237   0.01267  Uiso   1.00
N36    N     0.03627   0.84733   0.97573   0.01267  Uiso   1.00
N37    N     0.06907   0.52822   0.14104   0.01267  Uiso   1.00
N38    N     0.07970   0.49058   0.06742   0.01267  Uiso   1.00
N39    N     0.37050   0.81160   0.14280   0.01267  Uiso   1.00
N40    N     0.49280   0.73550   0.19070   0.01267  Uiso   1.00
N41    N     0.66483   0.94937   0.60617   0.01267  Uiso   1.00
N42    N     0.87986   0.90084   0.61364   0.01267  Uiso   1.00
N43    N     0.51651   0.69035   0.55763   0.01267  Uiso   1.00
N44    N     0.35933   0.65267   0.52427   0.01267  Uiso   1.00
N45    N     0.23833   0.97178   0.35896   0.01267  Uiso   1.00
N46    N     0.13770   0.00942   0.43258   0.01267  Uiso   1.00
N47    N     0.82490   0.68840   0.35720   0.01267  Uiso   1.00
N48    N     0.91900   0.76450   0.30930   0.01267  Uiso   1.00
N49    N     0.61420   0.10617   0.05063   0.01267  Uiso   1.00
N50    N     0.78070   0.11364   0.09916   0.01267  Uiso   1.00
N51    N     0.20686   0.05763   0.30965   0.01267  Uiso   1.00
N52    N     0.01200   0.02427   0.34733   0.01267  Uiso   1.00
N53    N     0.21011   0.85896   0.02822   0.01267  Uiso   1.00
N54    N     0.14712   0.93258   0.99058   0.01267  Uiso   1.00
N55    N     0.51330   0.85720   0.31160   0.01267  Uiso   1.00
N56    N     0.68350   0.80930   0.23550   0.01267  Uiso   1.00
N57    N     0.27100   0.39383   0.44937   0.01267  Uiso   1.00
N58    N     0.49350   0.38636   0.40084   0.01267  Uiso   1.00
N59    N     0.07414   0.44237   0.19035   0.01267  Uiso   1.00
N60    N     0.88360   0.47573   0.15267   0.01267  Uiso   1.00
N61    N     0.59729   0.64104   0.47178   0.01267  Uiso   1.00
N62    N     0.57028   0.56742   0.50942   0.01267  Uiso   1.00
N63    N     0.18210   0.64280   0.18840   0.01267  Uiso   1.00
N64    N     0.22830   0.69070   0.26450   0.01267  Uiso   1.00
O1     O     0.51990   0.36718   0.99602   0.01267  Uiso   1.00
O2     O     0.31933   0.36128   0.01466   0.01267  Uiso   1.00
O3     O     0.41998   0.28898   0.07146   0.01267  Uiso   1.00
O4     O     0.48698   0.33998   0.10006   0.01267  Uiso   1.00
O5     O     0.72147   0.40555   0.94411   0.01267  Uiso   1.00
O6     O     0.85056   0.37909   0.98559   0.01267  Uiso   1.00
O7     O     0.11846   0.40623   0.94965   0.01267  Uiso   1.00
O8     O     0.10055   0.34785   0.92165   0.01267  Uiso   1.00
O9     O     0.90497   0.30833   0.07653   0.01267  Uiso   1.00
O10    O     0.03851   0.24944   0.07914   0.01267  Uiso   1.00
O11    O     0.86361   0.27516   0.99222   0.01267  Uiso   1.00
O12    O     0.06420   0.28309   0.97751   0.01267  Uiso   1.00
O13    O     0.60129   0.33670   0.91632   0.01267  Uiso   1.00
O14    O     0.69342   0.27562   0.91334   0.01267  Uiso   1.00
O15    O     0.40627   0.27462   0.96264   0.01267  Uiso   1.00
O16    O     0.29024   0.27407   0.91545   0.01267  Uiso   1.00
O17    O     0.38310   0.13282   0.50398   0.01267  Uiso   1.00
O18    O     0.19527   0.13872   0.48534   0.01267  Uiso   1.00
O19    O     0.28042   0.21102   0.42854   0.01267  Uiso   1.00
O20    O     0.42702   0.16002   0.39994   0.01267  Uiso   1.00
O21    O     0.57113   0.09445   0.55589   0.01267  Uiso   1.00
O22    O     0.71524   0.12091   0.51441   0.01267  Uiso   1.00
O23    O     0.97434   0.09377   0.55035   0.01267  Uiso   1.00
O24    O     0.87005   0.15215   0.57835   0.01267  Uiso   1.00
O25    O     0.78983   0.19167   0.42347   0.01267  Uiso   1.00
O26    O     0.86709   0.25056   0.42086   0.01267  Uiso   1.00
O27    O     0.63099   0.22484   0.50778   0.01267  Uiso   1.00
O28    O     0.82480   0.21691   0.52249   0.01267  Uiso   1.00
O29    O     0.35431   0.16330   0.58368   0.01267  Uiso   1.00
O30    O     0.38238   0.22438   0.58666   0.01267  Uiso   1.00
O31    O     0.14353   0.22538   0.53736   0.01267  Uiso   1.00
O32    O     0.97976   0.22593   0.58455   0.01267  Uiso   1.00
O33    O     0.51592   0.00398   0.86718   0.01267  Uiso   1.00
O34    O     0.33399   0.98534   0.86128   0.01267  Uiso   1.00
O35    O     0.49144   0.92854   0.78898   0.01267  Uiso   1.00
O36    O     0.58704   0.89994   0.83998   0.01267  Uiso   1.00
O37    O     0.66558   0.05589   0.90555   0.01267  Uiso   1.00
O38    O     0.83615   0.01441   0.87909   0.01267  Uiso   1.00
O39    O     0.06811   0.05035   0.90623   0.01267  Uiso   1.00
O40    O     0.02220   0.07835   0.84785   0.01267  Uiso   1.00
O41    O     0.98150   0.92347   0.80833   0.01267  Uiso   1.00
O42    O     0.11765   0.92086   0.74944   0.01267  Uiso   1.00
O43    O     0.85583   0.00778   0.77516   0.01267  Uiso   1.00
O44    O     0.04171   0.02249   0.78309   0.01267  Uiso   1.00
O45    O     0.51761   0.08368   0.83670   0.01267  Uiso   1.00
O46    O     0.60676   0.08666   0.77562   0.01267  Uiso   1.00
O47    O     0.36891   0.03736   0.77462   0.01267  Uiso   1.00
O48    O     0.20569   0.08455   0.77407   0.01267  Uiso   1.00
O49    O     0.88708   0.49602   0.63282   0.01267  Uiso   1.00
O50    O     0.68061   0.51466   0.63872   0.01267  Uiso   1.00
O51    O     0.70896   0.57146   0.71102   0.01267  Uiso   1.00
O52    O     0.82696   0.60006   0.66002   0.01267  Uiso   1.00
O53    O     0.12702   0.44411   0.59445   0.01267  Uiso   1.00
O54    O     0.22965   0.48559   0.62091   0.01267  Uiso   1.00
O55    O     0.52469   0.44965   0.59377   0.01267  Uiso   1.00
O56    O     0.44840   0.42165   0.65215   0.01267  Uiso   1.00
O57    O     0.21330   0.57653   0.69167   0.01267  Uiso   1.00
O58    O     0.28795   0.57914   0.75056   0.01267  Uiso   1.00
O59    O     0.13877   0.49222   0.72484   0.01267  Uiso   1.00
O60    O     0.34729   0.47751   0.71691   0.01267  Uiso   1.00
O61    O     0.93799   0.41632   0.66330   0.01267  Uiso   1.00
O62    O     0.96904   0.41334   0.72438   0.01267  Uiso   1.00
O63    O     0.68089   0.46264   0.72538   0.01267  Uiso   1.00
O64    O     0.56431   0.41545   0.72593   0.01267  Uiso   1.00
O65    O     0.48010   0.63282   0.00398   0.01267  Uiso   1.00
O66    O     0.68067   0.63872   0.98534   0.01267  Uiso   1.00
O67    O     0.58002   0.71102   0.92854   0.01267  Uiso   1.00
O68    O     0.51302   0.66002   0.89994   0.01267  Uiso   1.00
O69    O     0.27853   0.59445   0.05589   0.01267  Uiso   1.00
O70    O     0.14944   0.62091   0.01441   0.01267  Uiso   1.00
O71    O     0.88154   0.59377   0.05035   0.01267  Uiso   1.00
O72    O     0.89945   0.65215   0.07835   0.01267  Uiso   1.00
O73    O     0.09503   0.69167   0.92347   0.01267  Uiso   1.00
O74    O     0.96149   0.75056   0.92086   0.01267  Uiso   1.00
O75    O     0.13639   0.72484   0.00778   0.01267  Uiso   1.00
O76    O     0.93580   0.71691   0.02249   0.01267  Uiso   1.00
O77    O     0.39871   0.66330   0.08368   0.01267  Uiso   1.00
O78    O     0.30658   0.72438   0.08666   0.01267  Uiso   1.00
O79    O     0.59373   0.72538   0.03736   0.01267  Uiso   1.00
O80    O     0.70976   0.72593   0.08455   0.01267  Uiso   1.00
O81    O     0.61690   0.86718   0.49602   0.01267  Uiso   1.00
O82    O     0.80473   0.86128   0.51466   0.01267  Uiso   1.00
O83    O     0.71958   0.78898   0.57146   0.01267  Uiso   1.00
O84    O     0.57298   0.83998   0.60006   0.01267  Uiso   1.00
O85    O     0.42887   0.90555   0.44411   0.01267  Uiso   1.00
O86    O     0.28476   0.87909   0.48559   0.01267  Uiso   1.00
O87    O     0.02566   0.90623   0.44965   0.01267  Uiso   1.00
O88    O     0.12995   0.84785   0.42165   0.01267  Uiso   1.00
O89    O     0.21017   0.80833   0.57653   0.01267  Uiso   1.00
O90    O     0.13291   0.74944   0.57914   0.01267  Uiso   1.00
O91    O     0.36901   0.77516   0.49222   0.01267  Uiso   1.00
O92    O     0.17520   0.78309   0.47751   0.01267  Uiso   1.00
O93    O     0.64569   0.83670   0.41632   0.01267  Uiso   1.00
O94    O     0.61762   0.77562   0.41334   0.01267  Uiso   1.00
O95    O     0.85647   0.77462   0.46264   0.01267  Uiso   1.00
O96    O     0.02024   0.77407   0.41545   0.01267  Uiso   1.00
O97    O     0.48408   0.99602   0.13282   0.01267  Uiso   1.00
O98    O     0.66601   0.01466   0.13872   0.01267  Uiso   1.00
O99    O     0.50856   0.07146   0.21102   0.01267  Uiso   1.00
O100   O     0.41296   0.10006   0.16002   0.01267  Uiso   1.00
O101   O     0.33442   0.94411   0.09445   0.01267  Uiso   1.00
O102   O     0.16385   0.98559   0.12091   0.01267  Uiso   1.00
O103   O     0.93189   0.94965   0.09377   0.01267  Uiso   1.00
O104   O     0.97780   0.92165   0.15215   0.01267  Uiso   1.00
O105   O     0.01850   0.07653   0.19167   0.01267  Uiso   1.00
O106   O     0.88235   0.07914   0.25056   0.01267  Uiso   1.00
O107   O     0.14417   0.99222   0.22484   0.01267  Uiso   1.00
O108   O     0.95829   0.97751   0.21691   0.01267  Uiso   1.00
O109   O     0.48239   0.91632   0.16330   0.01267  Uiso   1.00
O110   O     0.39324   0.91334   0.22438   0.01267  Uiso   1.00
O111   O     0.63109   0.96264   0.22538   0.01267  Uiso   1.00
O112   O     0.79431   0.91545   0.22593   0.01267  Uiso   1.00
O113   O     0.11292   0.50398   0.36718   0.01267  Uiso   1.00
O114   O     0.31939   0.48534   0.36128   0.01267  Uiso   1.00
O115   O     0.29104   0.42854   0.28898   0.01267  Uiso   1.00
O116   O     0.17304   0.39994   0.33998   0.01267  Uiso   1.00
O117   O     0.87298   0.55589   0.40555   0.01267  Uiso   1.00
O118   O     0.77035   0.51441   0.37909   0.01267  Uiso   1.00
O119   O     0.47531   0.55035   0.40623   0.01267  Uiso   1.00
O120   O     0.55160   0.57835   0.34785   0.01267  Uiso   1.00
O121   O     0.78670   0.42347   0.30833   0.01267  Uiso   1.00
O122   O     0.71205   0.42086   0.24944   0.01267  Uiso   1.00
O123   O     0.86123   0.50778   0.27516   0.01267  Uiso   1.00
O124   O     0.65271   0.52249   0.28309   0.01267  Uiso   1.00
O125   O     0.06201   0.58368   0.33670   0.01267  Uiso   1.00
O126   O     0.03096   0.58666   0.27562   0.01267  Uiso   1.00
O127   O     0.31911   0.53736   0.27462   0.01267  Uiso   1.00
O128   O     0.43569   0.58455   0.27407   0.01267  Uiso   1.00
