data_image0
_cell_length_a       17.221
_cell_length_b       17.221
_cell_length_c       40.9649
_cell_angle_alpha    90
_cell_angle_beta     90
_cell_angle_gamma    90

_symmetry_space_group_name_H-M    "P 1"
_symmetry_int_tables_number       1

loop_
  _symmetry_equiv_pos_as_xyz
  'x, y, z'

loop_
  _atom_site_label
  _atom_site_occupancy
  _atom_site_fract_x
  _atom_site_fract_y
  _atom_site_fract_z
  _atom_site_thermal_displace_type
  _atom_site_B_iso_or_equiv
  _atom_site_type_symbol
  N1       1.0000 0.93910  0.81020  0.12971  Biso   1.000  N
  C1       1.0000 0.86140  0.81620  0.13070  Biso   1.000  C
  H1       1.0000 0.83520  0.79160  0.14770  Biso   1.000  H
  C2       1.0000 0.81870  0.85620  0.10840  Biso   1.000  C
  H2       1.0000 0.76500  0.85850  0.11040  Biso   1.000  H
  C3       1.0000 0.85560  0.89350  0.08261  Biso   1.000  C
  C4       1.0000 0.93550  0.89030  0.08180  Biso   1.000  C
  H3       1.0000 0.96250  0.91690  0.06560  Biso   1.000  H
  C5       1.0000 0.97590  0.84830  0.10486  Biso   1.000  C
  H4       1.0000 0.02970  0.84570  0.10350  Biso   1.000  H
  C6       1.0000 0.80820  0.93950  0.05750  Biso   1.000  C
  H5       1.0000 0.78060  0.98060  0.06880  Biso   1.000  H
  H6       1.0000 0.84370  0.96360  0.04220  Biso   1.000  H
  C7       1.0000 0.75020  0.89150  0.03860  Biso   1.000  C
  H7       1.0000 0.71480  0.86660  0.05370  Biso   1.000  H
  H8       1.0000 0.77740  0.85110  0.02670  Biso   1.000  H
  C8       1.0000 0.70390  0.94050  0.01470  Biso   1.000  C
  H9       1.0000 0.67120  0.97590  0.02690  Biso   1.000  H
  H10      1.0000 0.73970  0.97140  0.00180  Biso   1.000  H
  N2       1.0000 0.56300  0.80640  0.94887  Biso   1.000  N
  C9       1.0000 0.64090  0.80400  0.94770  Biso   1.000  C
  H11      1.0000 0.66460  0.77270  0.93210  Biso   1.000  H
  C10      1.0000 0.68730  0.84650  0.96890  Biso   1.000  C
  H12      1.0000 0.74110  0.84300  0.96740  Biso   1.000  H
  C11      1.0000 0.65400  0.89370  0.99210  Biso   1.000  C
  C12      1.0000 0.57360  0.89510  0.99330  Biso   1.000  C
  H13      1.0000 0.54850  0.92660  0.00850  Biso   1.000  H
  C13      1.0000 0.53040  0.84960  0.97200  Biso   1.000  C
  H14      1.0000 0.47660  0.84930  0.97390  Biso   1.000  H
  N3       1.0000 0.43910  0.31020  0.62971  Biso   1.000  N
  C14      1.0000 0.36140  0.31620  0.63070  Biso   1.000  C
  H15      1.0000 0.33520  0.29160  0.64770  Biso   1.000  H
  C15      1.0000 0.31870  0.35620  0.60840  Biso   1.000  C
  H16      1.0000 0.26500  0.35850  0.61040  Biso   1.000  H
  C16      1.0000 0.35560  0.39350  0.58261  Biso   1.000  C
  C17      1.0000 0.43550  0.39030  0.58180  Biso   1.000  C
  H17      1.0000 0.46250  0.41690  0.56560  Biso   1.000  H
  C18      1.0000 0.47590  0.34830  0.60486  Biso   1.000  C
  H18      1.0000 0.52970  0.34570  0.60350  Biso   1.000  H
  C19      1.0000 0.30820  0.43950  0.55750  Biso   1.000  C
  H19      1.0000 0.28060  0.48060  0.56880  Biso   1.000  H
  H20      1.0000 0.34370  0.46360  0.54220  Biso   1.000  H
  C20      1.0000 0.25020  0.39150  0.53860  Biso   1.000  C
  H21      1.0000 0.21480  0.36660  0.55370  Biso   1.000  H
  H22      1.0000 0.27740  0.35110  0.52670  Biso   1.000  H
  C21      1.0000 0.20390  0.44050  0.51470  Biso   1.000  C
  H23      1.0000 0.17120  0.47590  0.52690  Biso   1.000  H
  H24      1.0000 0.23970  0.47140  0.50180  Biso   1.000  H
  N4       1.0000 0.06300  0.30640  0.44887  Biso   1.000  N
  C22      1.0000 0.14090  0.30400  0.44770  Biso   1.000  C
  H25      1.0000 0.16460  0.27270  0.43210  Biso   1.000  H
  C23      1.0000 0.18730  0.34650  0.46890  Biso   1.000  C
  H26      1.0000 0.24110  0.34300  0.46740  Biso   1.000  H
  C24      1.0000 0.15400  0.39370  0.49210  Biso   1.000  C
  C25      1.0000 0.07360  0.39510  0.49330  Biso   1.000  C
  H27      1.0000 0.04850  0.42660  0.50850  Biso   1.000  H
  C26      1.0000 0.03040  0.34960  0.47200  Biso   1.000  C
  H28      1.0000 0.97660  0.34930  0.47390  Biso   1.000  H
  N5       1.0000 0.56090  0.18980  0.62971  Biso   1.000  N
  C27      1.0000 0.63860  0.18380  0.63070  Biso   1.000  C
  H29      1.0000 0.66480  0.20840  0.64770  Biso   1.000  H
  C28      1.0000 0.68130  0.14380  0.60840  Biso   1.000  C
  H30      1.0000 0.73500  0.14150  0.61040  Biso   1.000  H
  C29      1.0000 0.64440  0.10650  0.58261  Biso   1.000  C
  C30      1.0000 0.56450  0.10970  0.58180  Biso   1.000  C
  H31      1.0000 0.53750  0.08310  0.56560  Biso   1.000  H
  C31      1.0000 0.52410  0.15170  0.60486  Biso   1.000  C
  H32      1.0000 0.47030  0.15430  0.60350  Biso   1.000  H
  C32      1.0000 0.69180  0.06050  0.55750  Biso   1.000  C
  H33      1.0000 0.71940  0.01940  0.56880  Biso   1.000  H
  H34      1.0000 0.65630  0.03640  0.54220  Biso   1.000  H
  C33      1.0000 0.74980  0.10850  0.53860  Biso   1.000  C
  H35      1.0000 0.78520  0.13340  0.55370  Biso   1.000  H
  H36      1.0000 0.72260  0.14890  0.52670  Biso   1.000  H
  C34      1.0000 0.79610  0.05950  0.51470  Biso   1.000  C
  H37      1.0000 0.82880  0.02410  0.52690  Biso   1.000  H
  H38      1.0000 0.76030  0.02860  0.50180  Biso   1.000  H
  N6       1.0000 0.93700  0.19360  0.44887  Biso   1.000  N
  C35      1.0000 0.85910  0.19600  0.44770  Biso   1.000  C
  H39      1.0000 0.83540  0.22730  0.43210  Biso   1.000  H
  C36      1.0000 0.81270  0.15350  0.46890  Biso   1.000  C
  H40      1.0000 0.75890  0.15700  0.46740  Biso   1.000  H
  C37      1.0000 0.84600  0.10630  0.49210  Biso   1.000  C
  C38      1.0000 0.92640  0.10490  0.49330  Biso   1.000  C
  H41      1.0000 0.95150  0.07340  0.50850  Biso   1.000  H
  C39      1.0000 0.96960  0.15040  0.47200  Biso   1.000  C
  H42      1.0000 0.02340  0.15070  0.47390  Biso   1.000  H
  N7       1.0000 0.06090  0.68980  0.12971  Biso   1.000  N
  C40      1.0000 0.13860  0.68380  0.13070  Biso   1.000  C
  H43      1.0000 0.16480  0.70840  0.14770  Biso   1.000  H
  C41      1.0000 0.18130  0.64380  0.10840  Biso   1.000  C
  H44      1.0000 0.23500  0.64150  0.11040  Biso   1.000  H
  C42      1.0000 0.14440  0.60650  0.08261  Biso   1.000  C
  C43      1.0000 0.06450  0.60970  0.08180  Biso   1.000  C
  H45      1.0000 0.03750  0.58310  0.06560  Biso   1.000  H
  C44      1.0000 0.02410  0.65170  0.10486  Biso   1.000  C
  H46      1.0000 0.97030  0.65430  0.10350  Biso   1.000  H
  C45      1.0000 0.19180  0.56050  0.05750  Biso   1.000  C
  H47      1.0000 0.21940  0.51940  0.06880  Biso   1.000  H
  H48      1.0000 0.15630  0.53640  0.04220  Biso   1.000  H
  C46      1.0000 0.24980  0.60850  0.03860  Biso   1.000  C
  H49      1.0000 0.28520  0.63340  0.05370  Biso   1.000  H
  H50      1.0000 0.22260  0.64890  0.02670  Biso   1.000  H
  C47      1.0000 0.29610  0.55950  0.01470  Biso   1.000  C
  H51      1.0000 0.32880  0.52410  0.02690  Biso   1.000  H
  H52      1.0000 0.26030  0.52860  0.00180  Biso   1.000  H
  N8       1.0000 0.43700  0.69360  0.94887  Biso   1.000  N
  C48      1.0000 0.35910  0.69600  0.94770  Biso   1.000  C
  H53      1.0000 0.33540  0.72730  0.93210  Biso   1.000  H
  C49      1.0000 0.31270  0.65350  0.96890  Biso   1.000  C
  H54      1.0000 0.25890  0.65700  0.96740  Biso   1.000  H
  C50      1.0000 0.34600  0.60630  0.99210  Biso   1.000  C
  C51      1.0000 0.42640  0.60490  0.99330  Biso   1.000  C
  H55      1.0000 0.45150  0.57340  0.00850  Biso   1.000  H
  C52      1.0000 0.46960  0.65040  0.97200  Biso   1.000  C
  H56      1.0000 0.52340  0.65070  0.97390  Biso   1.000  H
  N9       1.0000 0.93980  0.18910  0.37971  Biso   1.000  N
  C53      1.0000 0.93380  0.11140  0.38070  Biso   1.000  C
  H57      1.0000 0.95840  0.08520  0.39770  Biso   1.000  H
  C54      1.0000 0.89380  0.06870  0.35840  Biso   1.000  C
  H58      1.0000 0.89150  0.01500  0.36040  Biso   1.000  H
  C55      1.0000 0.85650  0.10560  0.33261  Biso   1.000  C
  C56      1.0000 0.85970  0.18550  0.33180  Biso   1.000  C
  H59      1.0000 0.83310  0.21250  0.31560  Biso   1.000  H
  C57      1.0000 0.90170  0.22590  0.35486  Biso   1.000  C
  H60      1.0000 0.90430  0.27970  0.35350  Biso   1.000  H
  C58      1.0000 0.81050  0.05820  0.30750  Biso   1.000  C
  H61      1.0000 0.76940  0.03060  0.31880  Biso   1.000  H
  H62      1.0000 0.78640  0.09370  0.29220  Biso   1.000  H
  C59      1.0000 0.85850  0.00020  0.28860  Biso   1.000  C
  H63      1.0000 0.88340  0.96480  0.30370  Biso   1.000  H
  H64      1.0000 0.89890  0.02740  0.27670  Biso   1.000  H
  C60      1.0000 0.80950  0.95390  0.26470  Biso   1.000  C
  H65      1.0000 0.77410  0.92120  0.27690  Biso   1.000  H
  H66      1.0000 0.77860  0.98970  0.25180  Biso   1.000  H
  N10      1.0000 0.94360  0.81300  0.19887  Biso   1.000  N
  C61      1.0000 0.94600  0.89090  0.19770  Biso   1.000  C
  H67      1.0000 0.97730  0.91460  0.18210  Biso   1.000  H
  C62      1.0000 0.90350  0.93730  0.21890  Biso   1.000  C
  H68      1.0000 0.90700  0.99110  0.21740  Biso   1.000  H
  C63      1.0000 0.85630  0.90400  0.24210  Biso   1.000  C
  C64      1.0000 0.85490  0.82360  0.24330  Biso   1.000  C
  H69      1.0000 0.82340  0.79850  0.25850  Biso   1.000  H
  C65      1.0000 0.90040  0.78040  0.22200  Biso   1.000  C
  H70      1.0000 0.90070  0.72660  0.22390  Biso   1.000  H
  N11      1.0000 0.43980  0.68910  0.87971  Biso   1.000  N
  C66      1.0000 0.43380  0.61140  0.88070  Biso   1.000  C
  H71      1.0000 0.45840  0.58520  0.89770  Biso   1.000  H
  C67      1.0000 0.39380  0.56870  0.85840  Biso   1.000  C
  H72      1.0000 0.39150  0.51500  0.86040  Biso   1.000  H
  C68      1.0000 0.35650  0.60560  0.83261  Biso   1.000  C
  C69      1.0000 0.35970  0.68550  0.83180  Biso   1.000  C
  H73      1.0000 0.33310  0.71250  0.81560  Biso   1.000  H
  C70      1.0000 0.40170  0.72590  0.85486  Biso   1.000  C
  H74      1.0000 0.40430  0.77970  0.85350  Biso   1.000  H
  C71      1.0000 0.31050  0.55820  0.80750  Biso   1.000  C
  H75      1.0000 0.26940  0.53060  0.81880  Biso   1.000  H
  H76      1.0000 0.28640  0.59370  0.79220  Biso   1.000  H
  C72      1.0000 0.35850  0.50020  0.78860  Biso   1.000  C
  H77      1.0000 0.38340  0.46480  0.80370  Biso   1.000  H
  H78      1.0000 0.39890  0.52740  0.77670  Biso   1.000  H
  C73      1.0000 0.30950  0.45390  0.76470  Biso   1.000  C
  H79      1.0000 0.27410  0.42120  0.77690  Biso   1.000  H
  H80      1.0000 0.27860  0.48970  0.75180  Biso   1.000  H
  N12      1.0000 0.44360  0.31300  0.69887  Biso   1.000  N
  C74      1.0000 0.44600  0.39090  0.69770  Biso   1.000  C
  H81      1.0000 0.47730  0.41460  0.68210  Biso   1.000  H
  C75      1.0000 0.40350  0.43730  0.71890  Biso   1.000  C
  H82      1.0000 0.40700  0.49110  0.71740  Biso   1.000  H
  C76      1.0000 0.35630  0.40400  0.74210  Biso   1.000  C
  C77      1.0000 0.35490  0.32360  0.74330  Biso   1.000  C
  H83      1.0000 0.32340  0.29850  0.75850  Biso   1.000  H
  C78      1.0000 0.40040  0.28040  0.72200  Biso   1.000  C
  H84      1.0000 0.40070  0.22660  0.72390  Biso   1.000  H
  N13      1.0000 0.56020  0.81090  0.87971  Biso   1.000  N
  C79      1.0000 0.56620  0.88860  0.88070  Biso   1.000  C
  H85      1.0000 0.54160  0.91480  0.89770  Biso   1.000  H
  C80      1.0000 0.60620  0.93130  0.85840  Biso   1.000  C
  H86      1.0000 0.60850  0.98500  0.86040  Biso   1.000  H
  C81      1.0000 0.64350  0.89440  0.83261  Biso   1.000  C
  C82      1.0000 0.64030  0.81450  0.83180  Biso   1.000  C
  H87      1.0000 0.66690  0.78750  0.81560  Biso   1.000  H
  C83      1.0000 0.59830  0.77410  0.85486  Biso   1.000  C
  H88      1.0000 0.59570  0.72030  0.85350  Biso   1.000  H
  C84      1.0000 0.68950  0.94180  0.80750  Biso   1.000  C
  H89      1.0000 0.73060  0.96940  0.81880  Biso   1.000  H
  H90      1.0000 0.71360  0.90630  0.79220  Biso   1.000  H
  C85      1.0000 0.64150  0.99980  0.78860  Biso   1.000  C
  H91      1.0000 0.61660  0.03520  0.80370  Biso   1.000  H
  H92      1.0000 0.60110  0.97260  0.77670  Biso   1.000  H
  C86      1.0000 0.69050  0.04610  0.76470  Biso   1.000  C
  H93      1.0000 0.72590  0.07880  0.77690  Biso   1.000  H
  H94      1.0000 0.72140  0.01030  0.75180  Biso   1.000  H
  N14      1.0000 0.55640  0.18700  0.69887  Biso   1.000  N
  C87      1.0000 0.55400  0.10910  0.69770  Biso   1.000  C
  H95      1.0000 0.52270  0.08540  0.68210  Biso   1.000  H
  C88      1.0000 0.59650  0.06270  0.71890  Biso   1.000  C
  H96      1.0000 0.59300  0.00890  0.71740  Biso   1.000  H
  C89      1.0000 0.64370  0.09600  0.74210  Biso   1.000  C
  C90      1.0000 0.64510  0.17640  0.74330  Biso   1.000  C
  H97      1.0000 0.67660  0.20150  0.75850  Biso   1.000  H
  C91      1.0000 0.59960  0.21960  0.72200  Biso   1.000  C
  H98      1.0000 0.59930  0.27340  0.72390  Biso   1.000  H
  N15      1.0000 0.06020  0.31090  0.37971  Biso   1.000  N
  C92      1.0000 0.06620  0.38860  0.38070  Biso   1.000  C
  H99      1.0000 0.04160  0.41480  0.39770  Biso   1.000  H
  C93      1.0000 0.10620  0.43130  0.35840  Biso   1.000  C
  H100     1.0000 0.10850  0.48500  0.36040  Biso   1.000  H
  C94      1.0000 0.14350  0.39440  0.33261  Biso   1.000  C
  C95      1.0000 0.14030  0.31450  0.33180  Biso   1.000  C
  H101     1.0000 0.16690  0.28750  0.31560  Biso   1.000  H
  C96      1.0000 0.09830  0.27410  0.35486  Biso   1.000  C
  H102     1.0000 0.09570  0.22030  0.35350  Biso   1.000  H
  C97      1.0000 0.18950  0.44180  0.30750  Biso   1.000  C
  H103     1.0000 0.23060  0.46940  0.31880  Biso   1.000  H
  H104     1.0000 0.21360  0.40630  0.29220  Biso   1.000  H
  C98      1.0000 0.14150  0.49980  0.28860  Biso   1.000  C
  H105     1.0000 0.11660  0.53520  0.30370  Biso   1.000  H
  H106     1.0000 0.10110  0.47260  0.27670  Biso   1.000  H
  C99      1.0000 0.19050  0.54610  0.26470  Biso   1.000  C
  H107     1.0000 0.22590  0.57880  0.27690  Biso   1.000  H
  H108     1.0000 0.22140  0.51030  0.25180  Biso   1.000  H
  N16      1.0000 0.05640  0.68700  0.19887  Biso   1.000  N
  C100     1.0000 0.05400  0.60910  0.19770  Biso   1.000  C
  H109     1.0000 0.02270  0.58540  0.18210  Biso   1.000  H
  C101     1.0000 0.09650  0.56270  0.21890  Biso   1.000  C
  H110     1.0000 0.09300  0.50890  0.21740  Biso   1.000  H
  C102     1.0000 0.14370  0.59600  0.24210  Biso   1.000  C
  C103     1.0000 0.14510  0.67640  0.24330  Biso   1.000  C
  H111     1.0000 0.17660  0.70150  0.25850  Biso   1.000  H
  C104     1.0000 0.09960  0.71960  0.22200  Biso   1.000  C
  H112     1.0000 0.09930  0.77340  0.22390  Biso   1.000  H
  Cu1      1.0000 0.00000  0.75000  0.16412  Biso   1.000  Cu
  Cu2      1.0000 0.50000  0.25000  0.66412  Biso   1.000  Cu
  Cu3      1.0000 0.00000  0.25000  0.41412  Biso   1.000  Cu
  Cu4      1.0000 0.50000  0.75000  0.91412  Biso   1.000  Cu
  N17      1.0000 0.93690  0.30800  0.25561  Biso   1.000  N
  C105     1.0000 0.85940  0.31160  0.25379  Biso   1.000  C
  H113     1.0000 0.83470  0.28360  0.23740  Biso   1.000  H
  C106     1.0000 0.81420  0.35440  0.27486  Biso   1.000  C
  H114     1.0000 0.76050  0.35500  0.27240  Biso   1.000  H
  C107     1.0000 0.84860  0.39620  0.29958  Biso   1.000  C
  C108     1.0000 0.92860  0.39250  0.30222  Biso   1.000  C
  H115     1.0000 0.95410  0.41900  0.31890  Biso   1.000  H
  C109     1.0000 0.97040  0.34890  0.27978  Biso   1.000  C
  H116     1.0000 0.02420  0.34790  0.28160  Biso   1.000  H
  C110     1.0000 0.79890  0.44310  0.32300  Biso   1.000  C
  H117     1.0000 0.76510  0.47700  0.31050  Biso   1.000  H
  H118     1.0000 0.83230  0.47550  0.33630  Biso   1.000  H
  C111     1.0000 0.74910  0.39170  0.34540  Biso   1.000  C
  H119     1.0000 0.71980  0.35500  0.33230  Biso   1.000  H
  H120     1.0000 0.78250  0.36240  0.36000  Biso   1.000  H
  C112     1.0000 0.69380  0.44120  0.36523  Biso   1.000  C
  H121     1.0000 0.72340  0.48140  0.37620  Biso   1.000  H
  H122     1.0000 0.65780  0.46660  0.35050  Biso   1.000  H
  N18      1.0000 0.56200  0.30910  0.43574  Biso   1.000  N
  C113     1.0000 0.64000  0.31350  0.43757  Biso   1.000  C
  H123     1.0000 0.66540  0.28710  0.45420  Biso   1.000  H
  C114     1.0000 0.68360  0.35620  0.41543  Biso   1.000  C
  H124     1.0000 0.73740  0.35780  0.41760  Biso   1.000  H
  C115     1.0000 0.64830  0.39640  0.39024  Biso   1.000  C
  C116     1.0000 0.56730  0.39120  0.38875  Biso   1.000  C
  H125     1.0000 0.54020  0.41650  0.37220  Biso   1.000  H
  C117     1.0000 0.52720  0.34820  0.41197  Biso   1.000  C
  H126     1.0000 0.47330  0.34660  0.41080  Biso   1.000  H
  N19      1.0000 0.43690  0.80800  0.75561  Biso   1.000  N
  C118     1.0000 0.35940  0.81160  0.75379  Biso   1.000  C
  H127     1.0000 0.33470  0.78360  0.73740  Biso   1.000  H
  C119     1.0000 0.31420  0.85440  0.77486  Biso   1.000  C
  H128     1.0000 0.26050  0.85500  0.77240  Biso   1.000  H
  C120     1.0000 0.34860  0.89620  0.79958  Biso   1.000  C
  C121     1.0000 0.42860  0.89250  0.80222  Biso   1.000  C
  H129     1.0000 0.45410  0.91900  0.81890  Biso   1.000  H
  C122     1.0000 0.47040  0.84890  0.77978  Biso   1.000  C
  H130     1.0000 0.52420  0.84790  0.78160  Biso   1.000  H
  C123     1.0000 0.29890  0.94310  0.82300  Biso   1.000  C
  H131     1.0000 0.26510  0.97700  0.81050  Biso   1.000  H
  H132     1.0000 0.33230  0.97550  0.83630  Biso   1.000  H
  C124     1.0000 0.24910  0.89170  0.84540  Biso   1.000  C
  H133     1.0000 0.21980  0.85500  0.83230  Biso   1.000  H
  H134     1.0000 0.28250  0.86240  0.86000  Biso   1.000  H
  C125     1.0000 0.19380  0.94120  0.86523  Biso   1.000  C
  H135     1.0000 0.22340  0.98140  0.87620  Biso   1.000  H
  H136     1.0000 0.15780  0.96660  0.85050  Biso   1.000  H
  N20      1.0000 0.06200  0.80910  0.93574  Biso   1.000  N
  C126     1.0000 0.14000  0.81350  0.93757  Biso   1.000  C
  H137     1.0000 0.16540  0.78710  0.95420  Biso   1.000  H
  C127     1.0000 0.18360  0.85620  0.91543  Biso   1.000  C
  H138     1.0000 0.23740  0.85780  0.91760  Biso   1.000  H
  C128     1.0000 0.14830  0.89640  0.89024  Biso   1.000  C
  C129     1.0000 0.06730  0.89120  0.88875  Biso   1.000  C
  H139     1.0000 0.04020  0.91650  0.87220  Biso   1.000  H
  C130     1.0000 0.02720  0.84820  0.91197  Biso   1.000  C
  H140     1.0000 0.97330  0.84660  0.91080  Biso   1.000  H
  N21      1.0000 0.56310  0.69200  0.75561  Biso   1.000  N
  C131     1.0000 0.64060  0.68840  0.75379  Biso   1.000  C
  H141     1.0000 0.66530  0.71640  0.73740  Biso   1.000  H
  C132     1.0000 0.68580  0.64560  0.77486  Biso   1.000  C
  H142     1.0000 0.73950  0.64500  0.77240  Biso   1.000  H
  C133     1.0000 0.65140  0.60380  0.79958  Biso   1.000  C
  C134     1.0000 0.57140  0.60750  0.80222  Biso   1.000  C
  H143     1.0000 0.54590  0.58100  0.81890  Biso   1.000  H
  C135     1.0000 0.52960  0.65110  0.77978  Biso   1.000  C
  H144     1.0000 0.47580  0.65210  0.78160  Biso   1.000  H
  C136     1.0000 0.70110  0.55690  0.82300  Biso   1.000  C
  H145     1.0000 0.73490  0.52300  0.81050  Biso   1.000  H
  H146     1.0000 0.66770  0.52450  0.83630  Biso   1.000  H
  C137     1.0000 0.75090  0.60830  0.84540  Biso   1.000  C
  H147     1.0000 0.78020  0.64500  0.83230  Biso   1.000  H
  H148     1.0000 0.71750  0.63760  0.86000  Biso   1.000  H
  C138     1.0000 0.80620  0.55880  0.86523  Biso   1.000  C
  H149     1.0000 0.77660  0.51860  0.87620  Biso   1.000  H
  H150     1.0000 0.84220  0.53340  0.85050  Biso   1.000  H
  N22      1.0000 0.93800  0.69090  0.93574  Biso   1.000  N
  C139     1.0000 0.86000  0.68650  0.93757  Biso   1.000  C
  H151     1.0000 0.83460  0.71290  0.95420  Biso   1.000  H
  C140     1.0000 0.81640  0.64380  0.91543  Biso   1.000  C
  H152     1.0000 0.76260  0.64220  0.91760  Biso   1.000  H
  C141     1.0000 0.85170  0.60360  0.89024  Biso   1.000  C
  C142     1.0000 0.93270  0.60880  0.88875  Biso   1.000  C
  H153     1.0000 0.95980  0.58350  0.87220  Biso   1.000  H
  C143     1.0000 0.97280  0.65180  0.91197  Biso   1.000  C
  H154     1.0000 0.02670  0.65340  0.91080  Biso   1.000  H
  N23      1.0000 0.06310  0.19200  0.25561  Biso   1.000  N
  C144     1.0000 0.14060  0.18840  0.25379  Biso   1.000  C
  H155     1.0000 0.16530  0.21640  0.23740  Biso   1.000  H
  C145     1.0000 0.18580  0.14560  0.27486  Biso   1.000  C
  H156     1.0000 0.23950  0.14500  0.27240  Biso   1.000  H
  C146     1.0000 0.15140  0.10380  0.29958  Biso   1.000  C
  C147     1.0000 0.07140  0.10750  0.30222  Biso   1.000  C
  H157     1.0000 0.04590  0.08100  0.31890  Biso   1.000  H
  C148     1.0000 0.02960  0.15110  0.27978  Biso   1.000  C
  H158     1.0000 0.97580  0.15210  0.28160  Biso   1.000  H
  C149     1.0000 0.20110  0.05690  0.32300  Biso   1.000  C
  H159     1.0000 0.23490  0.02300  0.31050  Biso   1.000  H
  H160     1.0000 0.16770  0.02450  0.33630  Biso   1.000  H
  C150     1.0000 0.25090  0.10830  0.34540  Biso   1.000  C
  H161     1.0000 0.28020  0.14500  0.33230  Biso   1.000  H
  H162     1.0000 0.21750  0.13760  0.36000  Biso   1.000  H
  C151     1.0000 0.30620  0.05880  0.36523  Biso   1.000  C
  H163     1.0000 0.27660  0.01860  0.37620  Biso   1.000  H
  H164     1.0000 0.34220  0.03340  0.35050  Biso   1.000  H
  N24      1.0000 0.43800  0.19090  0.43574  Biso   1.000  N
  C152     1.0000 0.36000  0.18650  0.43757  Biso   1.000  C
  H165     1.0000 0.33460  0.21290  0.45420  Biso   1.000  H
  C153     1.0000 0.31640  0.14380  0.41543  Biso   1.000  C
  H166     1.0000 0.26260  0.14220  0.41760  Biso   1.000  H
  C154     1.0000 0.35170  0.10360  0.39024  Biso   1.000  C
  C155     1.0000 0.43270  0.10880  0.38875  Biso   1.000  C
  H167     1.0000 0.45980  0.08350  0.37220  Biso   1.000  H
  C156     1.0000 0.47280  0.15180  0.41197  Biso   1.000  C
  H168     1.0000 0.52670  0.15340  0.41080  Biso   1.000  H
  N25      1.0000 0.44200  0.18690  0.50561  Biso   1.000  N
  C157     1.0000 0.43840  0.10940  0.50379  Biso   1.000  C
  H169     1.0000 0.46640  0.08470  0.48740  Biso   1.000  H
  C158     1.0000 0.39560  0.06420  0.52486  Biso   1.000  C
  H170     1.0000 0.39500  0.01050  0.52240  Biso   1.000  H
  C159     1.0000 0.35380  0.09860  0.54958  Biso   1.000  C
  C160     1.0000 0.35750  0.17860  0.55222  Biso   1.000  C
  H171     1.0000 0.33100  0.20410  0.56890  Biso   1.000  H
  C161     1.0000 0.40110  0.22040  0.52978  Biso   1.000  C
  H172     1.0000 0.40210  0.27420  0.53160  Biso   1.000  H
  C162     1.0000 0.30690  0.04890  0.57300  Biso   1.000  C
  H173     1.0000 0.27300  0.01510  0.56050  Biso   1.000  H
  H174     1.0000 0.27450  0.08230  0.58630  Biso   1.000  H
  C163     1.0000 0.35830  0.99910  0.59540  Biso   1.000  C
  H175     1.0000 0.39500  0.96980  0.58230  Biso   1.000  H
  H176     1.0000 0.38760  0.03250  0.61000  Biso   1.000  H
  C164     1.0000 0.30880  0.94380  0.61523  Biso   1.000  C
  H177     1.0000 0.26860  0.97340  0.62620  Biso   1.000  H
  H178     1.0000 0.28340  0.90780  0.60050  Biso   1.000  H
  N26      1.0000 0.44090  0.81200  0.68574  Biso   1.000  N
  C165     1.0000 0.43650  0.89000  0.68757  Biso   1.000  C
  H179     1.0000 0.46290  0.91540  0.70420  Biso   1.000  H
  C166     1.0000 0.39380  0.93360  0.66543  Biso   1.000  C
  H180     1.0000 0.39220  0.98740  0.66760  Biso   1.000  H
  C167     1.0000 0.35360  0.89830  0.64024  Biso   1.000  C
  C168     1.0000 0.35880  0.81730  0.63875  Biso   1.000  C
  H181     1.0000 0.33350  0.79020  0.62220  Biso   1.000  H
  C169     1.0000 0.40180  0.77720  0.66197  Biso   1.000  C
  H182     1.0000 0.40340  0.72330  0.66080  Biso   1.000  H
  N27      1.0000 0.94200  0.68690  0.00561  Biso   1.000  N
  C170     1.0000 0.93840  0.60940  0.00379  Biso   1.000  C
  H183     1.0000 0.96640  0.58470  0.98740  Biso   1.000  H
  C171     1.0000 0.89560  0.56420  0.02486  Biso   1.000  C
  H184     1.0000 0.89500  0.51050  0.02240  Biso   1.000  H
  C172     1.0000 0.85380  0.59860  0.04958  Biso   1.000  C
  C173     1.0000 0.85750  0.67860  0.05222  Biso   1.000  C
  H185     1.0000 0.83100  0.70410  0.06890  Biso   1.000  H
  C174     1.0000 0.90110  0.72040  0.02978  Biso   1.000  C
  H186     1.0000 0.90210  0.77420  0.03160  Biso   1.000  H
  C175     1.0000 0.80690  0.54890  0.07300  Biso   1.000  C
  H187     1.0000 0.77300  0.51510  0.06050  Biso   1.000  H
  H188     1.0000 0.77450  0.58230  0.08630  Biso   1.000  H
  C176     1.0000 0.85830  0.49910  0.09540  Biso   1.000  C
  H189     1.0000 0.89500  0.46980  0.08230  Biso   1.000  H
  H190     1.0000 0.88760  0.53250  0.11000  Biso   1.000  H
  C177     1.0000 0.80880  0.44380  0.11523  Biso   1.000  C
  H191     1.0000 0.76860  0.47340  0.12620  Biso   1.000  H
  H192     1.0000 0.78340  0.40780  0.10050  Biso   1.000  H
  N28      1.0000 0.94090  0.31200  0.18574  Biso   1.000  N
  C178     1.0000 0.93650  0.39000  0.18757  Biso   1.000  C
  H193     1.0000 0.96290  0.41540  0.20420  Biso   1.000  H
  C179     1.0000 0.89380  0.43360  0.16543  Biso   1.000  C
  H194     1.0000 0.89220  0.48740  0.16760  Biso   1.000  H
  C180     1.0000 0.85360  0.39830  0.14024  Biso   1.000  C
  C181     1.0000 0.85880  0.31730  0.13875  Biso   1.000  C
  H195     1.0000 0.83350  0.29020  0.12220  Biso   1.000  H
  C182     1.0000 0.90180  0.27720  0.16197  Biso   1.000  C
  H196     1.0000 0.90340  0.22330  0.16080  Biso   1.000  H
  N29      1.0000 0.05800  0.81310  0.00561  Biso   1.000  N
  C183     1.0000 0.06160  0.89060  0.00379  Biso   1.000  C
  H197     1.0000 0.03360  0.91530  0.98740  Biso   1.000  H
  C184     1.0000 0.10440  0.93580  0.02486  Biso   1.000  C
  H198     1.0000 0.10500  0.98950  0.02240  Biso   1.000  H
  C185     1.0000 0.14620  0.90140  0.04958  Biso   1.000  C
  C186     1.0000 0.14250  0.82140  0.05222  Biso   1.000  C
  H199     1.0000 0.16900  0.79590  0.06890  Biso   1.000  H
  C187     1.0000 0.09890  0.77960  0.02978  Biso   1.000  C
  H200     1.0000 0.09790  0.72580  0.03160  Biso   1.000  H
  C188     1.0000 0.19310  0.95110  0.07300  Biso   1.000  C
  H201     1.0000 0.22700  0.98490  0.06050  Biso   1.000  H
  H202     1.0000 0.22550  0.91770  0.08630  Biso   1.000  H
  C189     1.0000 0.14170  0.00090  0.09540  Biso   1.000  C
  H203     1.0000 0.10500  0.03020  0.08230  Biso   1.000  H
  H204     1.0000 0.11240  0.96750  0.11000  Biso   1.000  H
  C190     1.0000 0.19120  0.05620  0.11523  Biso   1.000  C
  H205     1.0000 0.23140  0.02660  0.12620  Biso   1.000  H
  H206     1.0000 0.21660  0.09220  0.10050  Biso   1.000  H
  N30      1.0000 0.05910  0.18800  0.18574  Biso   1.000  N
  C191     1.0000 0.06350  0.11000  0.18757  Biso   1.000  C
  H207     1.0000 0.03710  0.08460  0.20420  Biso   1.000  H
  C192     1.0000 0.10620  0.06640  0.16543  Biso   1.000  C
  H208     1.0000 0.10780  0.01260  0.16760  Biso   1.000  H
  C193     1.0000 0.14640  0.10170  0.14024  Biso   1.000  C
  C194     1.0000 0.14120  0.18270  0.13875  Biso   1.000  C
  H209     1.0000 0.16650  0.20980  0.12220  Biso   1.000  H
  C195     1.0000 0.09820  0.22280  0.16197  Biso   1.000  C
  H210     1.0000 0.09660  0.27670  0.16080  Biso   1.000  H
  N31      1.0000 0.55800  0.31310  0.50561  Biso   1.000  N
  C196     1.0000 0.56160  0.39060  0.50379  Biso   1.000  C
  H211     1.0000 0.53360  0.41530  0.48740  Biso   1.000  H
  C197     1.0000 0.60440  0.43580  0.52486  Biso   1.000  C
  H212     1.0000 0.60500  0.48950  0.52240  Biso   1.000  H
  C198     1.0000 0.64620  0.40140  0.54958  Biso   1.000  C
  C199     1.0000 0.64250  0.32140  0.55222  Biso   1.000  C
  H213     1.0000 0.66900  0.29590  0.56890  Biso   1.000  H
  C200     1.0000 0.59890  0.27960  0.52978  Biso   1.000  C
  H214     1.0000 0.59790  0.22580  0.53160  Biso   1.000  H
  C201     1.0000 0.69310  0.45110  0.57300  Biso   1.000  C
  H215     1.0000 0.72700  0.48490  0.56050  Biso   1.000  H
  H216     1.0000 0.72550  0.41770  0.58630  Biso   1.000  H
  C202     1.0000 0.64170  0.50090  0.59540  Biso   1.000  C
  H217     1.0000 0.60500  0.53020  0.58230  Biso   1.000  H
  H218     1.0000 0.61240  0.46750  0.61000  Biso   1.000  H
  C203     1.0000 0.69120  0.55620  0.61523  Biso   1.000  C
  H219     1.0000 0.73140  0.52660  0.62620  Biso   1.000  H
  H220     1.0000 0.71660  0.59220  0.60050  Biso   1.000  H
  N32      1.0000 0.55910  0.68800  0.68574  Biso   1.000  N
  C204     1.0000 0.56350  0.61000  0.68757  Biso   1.000  C
  H221     1.0000 0.53710  0.58460  0.70420  Biso   1.000  H
  C205     1.0000 0.60620  0.56640  0.66543  Biso   1.000  C
  H222     1.0000 0.60780  0.51260  0.66760  Biso   1.000  H
  C206     1.0000 0.64640  0.60170  0.64024  Biso   1.000  C
  C207     1.0000 0.64120  0.68270  0.63875  Biso   1.000  C
  H223     1.0000 0.66650  0.70980  0.62220  Biso   1.000  H
  C208     1.0000 0.59820  0.72280  0.66197  Biso   1.000  C
  H224     1.0000 0.59660  0.77670  0.66080  Biso   1.000  H
  Cu5      1.0000 0.00000  0.25000  0.22114  Biso   1.000  Cu
  Cu6      1.0000 0.50000  0.75000  0.72114  Biso   1.000  Cu
  Cu7      1.0000 0.50000  0.25000  0.47114  Biso   1.000  Cu
  Cu8      1.0000 0.00000  0.75000  0.97114  Biso   1.000  Cu
  N33      1.0000 0.06090  0.18980  0.87029  Biso   1.000  N
  C209     1.0000 0.13860  0.18380  0.86930  Biso   1.000  C
  H225     1.0000 0.16480  0.20840  0.85230  Biso   1.000  H
  C210     1.0000 0.18130  0.14380  0.89160  Biso   1.000  C
  H226     1.0000 0.23500  0.14150  0.88960  Biso   1.000  H
  C211     1.0000 0.14440  0.10650  0.91739  Biso   1.000  C
  C212     1.0000 0.06450  0.10970  0.91820  Biso   1.000  C
  H227     1.0000 0.03750  0.08310  0.93440  Biso   1.000  H
  C213     1.0000 0.02410  0.15170  0.89514  Biso   1.000  C
  H228     1.0000 0.97030  0.15430  0.89650  Biso   1.000  H
  C214     1.0000 0.19180  0.06050  0.94250  Biso   1.000  C
  H229     1.0000 0.21940  0.01940  0.93120  Biso   1.000  H
  H230     1.0000 0.15630  0.03640  0.95780  Biso   1.000  H
  C215     1.0000 0.24980  0.10850  0.96140  Biso   1.000  C
  H231     1.0000 0.28520  0.13340  0.94630  Biso   1.000  H
  H232     1.0000 0.22260  0.14890  0.97330  Biso   1.000  H
  C216     1.0000 0.29610  0.05950  0.98530  Biso   1.000  C
  H233     1.0000 0.32880  0.02410  0.97310  Biso   1.000  H
  H234     1.0000 0.26030  0.02860  0.99820  Biso   1.000  H
  N34      1.0000 0.43700  0.19360  0.05113  Biso   1.000  N
  C217     1.0000 0.35910  0.19600  0.05230  Biso   1.000  C
  H235     1.0000 0.33540  0.22730  0.06790  Biso   1.000  H
  C218     1.0000 0.31270  0.15350  0.03110  Biso   1.000  C
  H236     1.0000 0.25890  0.15700  0.03260  Biso   1.000  H
  C219     1.0000 0.34600  0.10630  0.00790  Biso   1.000  C
  C220     1.0000 0.42640  0.10490  0.00670  Biso   1.000  C
  H237     1.0000 0.45150  0.07340  0.99150  Biso   1.000  H
  C221     1.0000 0.46960  0.15040  0.02800  Biso   1.000  C
  H238     1.0000 0.52340  0.15070  0.02610  Biso   1.000  H
  N35      1.0000 0.56090  0.68980  0.37029  Biso   1.000  N
  C222     1.0000 0.63860  0.68380  0.36930  Biso   1.000  C
  H239     1.0000 0.66480  0.70840  0.35230  Biso   1.000  H
  C223     1.0000 0.68130  0.64380  0.39160  Biso   1.000  C
  H240     1.0000 0.73500  0.64150  0.38960  Biso   1.000  H
  C224     1.0000 0.64440  0.60650  0.41739  Biso   1.000  C
  C225     1.0000 0.56450  0.60970  0.41820  Biso   1.000  C
  H241     1.0000 0.53750  0.58310  0.43440  Biso   1.000  H
  C226     1.0000 0.52410  0.65170  0.39514  Biso   1.000  C
  H242     1.0000 0.47030  0.65430  0.39650  Biso   1.000  H
  C227     1.0000 0.69180  0.56050  0.44250  Biso   1.000  C
  H243     1.0000 0.71940  0.51940  0.43120  Biso   1.000  H
  H244     1.0000 0.65630  0.53640  0.45780  Biso   1.000  H
  C228     1.0000 0.74980  0.60850  0.46140  Biso   1.000  C
  H245     1.0000 0.78520  0.63340  0.44630  Biso   1.000  H
  H246     1.0000 0.72260  0.64890  0.47330  Biso   1.000  H
  C229     1.0000 0.79610  0.55950  0.48530  Biso   1.000  C
  H247     1.0000 0.82880  0.52410  0.47310  Biso   1.000  H
  H248     1.0000 0.76030  0.52860  0.49820  Biso   1.000  H
  N36      1.0000 0.93700  0.69360  0.55113  Biso   1.000  N
  C230     1.0000 0.85910  0.69600  0.55230  Biso   1.000  C
  H249     1.0000 0.83540  0.72730  0.56790  Biso   1.000  H
  C231     1.0000 0.81270  0.65350  0.53110  Biso   1.000  C
  H250     1.0000 0.75890  0.65700  0.53260  Biso   1.000  H
  C232     1.0000 0.84600  0.60630  0.50790  Biso   1.000  C
  C233     1.0000 0.92640  0.60490  0.50670  Biso   1.000  C
  H251     1.0000 0.95150  0.57340  0.49150  Biso   1.000  H
  C234     1.0000 0.96960  0.65040  0.52800  Biso   1.000  C
  H252     1.0000 0.02340  0.65070  0.52610  Biso   1.000  H
  N37      1.0000 0.43910  0.81020  0.37029  Biso   1.000  N
  C235     1.0000 0.36140  0.81620  0.36930  Biso   1.000  C
  H253     1.0000 0.33520  0.79160  0.35230  Biso   1.000  H
  C236     1.0000 0.31870  0.85620  0.39160  Biso   1.000  C
  H254     1.0000 0.26500  0.85850  0.38960  Biso   1.000  H
  C237     1.0000 0.35560  0.89350  0.41739  Biso   1.000  C
  C238     1.0000 0.43550  0.89030  0.41820  Biso   1.000  C
  H255     1.0000 0.46250  0.91690  0.43440  Biso   1.000  H
  C239     1.0000 0.47590  0.84830  0.39514  Biso   1.000  C
  H256     1.0000 0.52970  0.84570  0.39650  Biso   1.000  H
  C240     1.0000 0.30820  0.93950  0.44250  Biso   1.000  C
  H257     1.0000 0.28060  0.98060  0.43120  Biso   1.000  H
  H258     1.0000 0.34370  0.96360  0.45780  Biso   1.000  H
  C241     1.0000 0.25020  0.89150  0.46140  Biso   1.000  C
  H259     1.0000 0.21480  0.86660  0.44630  Biso   1.000  H
  H260     1.0000 0.27740  0.85110  0.47330  Biso   1.000  H
  C242     1.0000 0.20390  0.94050  0.48530  Biso   1.000  C
  H261     1.0000 0.17120  0.97590  0.47310  Biso   1.000  H
  H262     1.0000 0.23970  0.97140  0.49820  Biso   1.000  H
  N38      1.0000 0.06300  0.80640  0.55113  Biso   1.000  N
  C243     1.0000 0.14090  0.80400  0.55230  Biso   1.000  C
  H263     1.0000 0.16460  0.77270  0.56790  Biso   1.000  H
  C244     1.0000 0.18730  0.84650  0.53110  Biso   1.000  C
  H264     1.0000 0.24110  0.84300  0.53260  Biso   1.000  H
  C245     1.0000 0.15400  0.89370  0.50790  Biso   1.000  C
  C246     1.0000 0.07360  0.89510  0.50670  Biso   1.000  C
  H265     1.0000 0.04850  0.92660  0.49150  Biso   1.000  H
  C247     1.0000 0.03040  0.84960  0.52800  Biso   1.000  C
  H266     1.0000 0.97660  0.84930  0.52610  Biso   1.000  H
  N39      1.0000 0.93910  0.31020  0.87029  Biso   1.000  N
  C248     1.0000 0.86140  0.31620  0.86930  Biso   1.000  C
  H267     1.0000 0.83520  0.29160  0.85230  Biso   1.000  H
  C249     1.0000 0.81870  0.35620  0.89160  Biso   1.000  C
  H268     1.0000 0.76500  0.35850  0.88960  Biso   1.000  H
  C250     1.0000 0.85560  0.39350  0.91739  Biso   1.000  C
  C251     1.0000 0.93550  0.39030  0.91820  Biso   1.000  C
  H269     1.0000 0.96250  0.41690  0.93440  Biso   1.000  H
  C252     1.0000 0.97590  0.34830  0.89514  Biso   1.000  C
  H270     1.0000 0.02970  0.34570  0.89650  Biso   1.000  H
  C253     1.0000 0.80820  0.43950  0.94250  Biso   1.000  C
  H271     1.0000 0.78060  0.48060  0.93120  Biso   1.000  H
  H272     1.0000 0.84370  0.46360  0.95780  Biso   1.000  H
  C254     1.0000 0.75020  0.39150  0.96140  Biso   1.000  C
  H273     1.0000 0.71480  0.36660  0.94630  Biso   1.000  H
  H274     1.0000 0.77740  0.35110  0.97330  Biso   1.000  H
  C255     1.0000 0.70390  0.44050  0.98530  Biso   1.000  C
  H275     1.0000 0.67120  0.47590  0.97310  Biso   1.000  H
  H276     1.0000 0.73970  0.47140  0.99820  Biso   1.000  H
  N40      1.0000 0.56300  0.30640  0.05113  Biso   1.000  N
  C256     1.0000 0.64090  0.30400  0.05230  Biso   1.000  C
  H277     1.0000 0.66460  0.27270  0.06790  Biso   1.000  H
  C257     1.0000 0.68730  0.34650  0.03110  Biso   1.000  C
  H278     1.0000 0.74110  0.34300  0.03260  Biso   1.000  H
  C258     1.0000 0.65400  0.39370  0.00790  Biso   1.000  C
  C259     1.0000 0.57360  0.39510  0.00670  Biso   1.000  C
  H279     1.0000 0.54850  0.42660  0.99150  Biso   1.000  H
  C260     1.0000 0.53040  0.34960  0.02800  Biso   1.000  C
  H280     1.0000 0.47660  0.34930  0.02610  Biso   1.000  H
  N41      1.0000 0.06020  0.81090  0.62029  Biso   1.000  N
  C261     1.0000 0.06620  0.88860  0.61930  Biso   1.000  C
  H281     1.0000 0.04160  0.91480  0.60230  Biso   1.000  H
  C262     1.0000 0.10620  0.93130  0.64160  Biso   1.000  C
  H282     1.0000 0.10850  0.98500  0.63960  Biso   1.000  H
  C263     1.0000 0.14350  0.89440  0.66739  Biso   1.000  C
  C264     1.0000 0.14030  0.81450  0.66820  Biso   1.000  C
  H283     1.0000 0.16690  0.78750  0.68440  Biso   1.000  H
  C265     1.0000 0.09830  0.77410  0.64514  Biso   1.000  C
  H284     1.0000 0.09570  0.72030  0.64650  Biso   1.000  H
  C266     1.0000 0.18950  0.94180  0.69250  Biso   1.000  C
  H285     1.0000 0.23060  0.96940  0.68120  Biso   1.000  H
  H286     1.0000 0.21360  0.90630  0.70780  Biso   1.000  H
  C267     1.0000 0.14150  0.99980  0.71140  Biso   1.000  C
  H287     1.0000 0.11660  0.03520  0.69630  Biso   1.000  H
  H288     1.0000 0.10110  0.97260  0.72330  Biso   1.000  H
  C268     1.0000 0.19050  0.04610  0.73530  Biso   1.000  C
  H289     1.0000 0.22590  0.07880  0.72310  Biso   1.000  H
  H290     1.0000 0.22140  0.01030  0.74820  Biso   1.000  H
  N42      1.0000 0.05640  0.18700  0.80113  Biso   1.000  N
  C269     1.0000 0.05400  0.10910  0.80230  Biso   1.000  C
  H291     1.0000 0.02270  0.08540  0.81790  Biso   1.000  H
  C270     1.0000 0.09650  0.06270  0.78110  Biso   1.000  C
  H292     1.0000 0.09300  0.00890  0.78260  Biso   1.000  H
  C271     1.0000 0.14370  0.09600  0.75790  Biso   1.000  C
  C272     1.0000 0.14510  0.17640  0.75670  Biso   1.000  C
  H293     1.0000 0.17660  0.20150  0.74150  Biso   1.000  H
  C273     1.0000 0.09960  0.21960  0.77800  Biso   1.000  C
  H294     1.0000 0.09930  0.27340  0.77610  Biso   1.000  H
  N43      1.0000 0.56020  0.31090  0.12029  Biso   1.000  N
  C274     1.0000 0.56620  0.38860  0.11930  Biso   1.000  C
  H295     1.0000 0.54160  0.41480  0.10230  Biso   1.000  H
  C275     1.0000 0.60620  0.43130  0.14160  Biso   1.000  C
  H296     1.0000 0.60850  0.48500  0.13960  Biso   1.000  H
  C276     1.0000 0.64350  0.39440  0.16739  Biso   1.000  C
  C277     1.0000 0.64030  0.31450  0.16820  Biso   1.000  C
  H297     1.0000 0.66690  0.28750  0.18440  Biso   1.000  H
  C278     1.0000 0.59830  0.27410  0.14514  Biso   1.000  C
  H298     1.0000 0.59570  0.22030  0.14650  Biso   1.000  H
  C279     1.0000 0.68950  0.44180  0.19250  Biso   1.000  C
  H299     1.0000 0.73060  0.46940  0.18120  Biso   1.000  H
  H300     1.0000 0.71360  0.40630  0.20780  Biso   1.000  H
  C280     1.0000 0.64150  0.49980  0.21140  Biso   1.000  C
  H301     1.0000 0.61660  0.53520  0.19630  Biso   1.000  H
  H302     1.0000 0.60110  0.47260  0.22330  Biso   1.000  H
  C281     1.0000 0.69050  0.54610  0.23530  Biso   1.000  C
  H303     1.0000 0.72590  0.57880  0.22310  Biso   1.000  H
  H304     1.0000 0.72140  0.51030  0.24820  Biso   1.000  H
  N44      1.0000 0.55640  0.68700  0.30113  Biso   1.000  N
  C282     1.0000 0.55400  0.60910  0.30230  Biso   1.000  C
  H305     1.0000 0.52270  0.58540  0.31790  Biso   1.000  H
  C283     1.0000 0.59650  0.56270  0.28110  Biso   1.000  C
  H306     1.0000 0.59300  0.50890  0.28260  Biso   1.000  H
  C284     1.0000 0.64370  0.59600  0.25790  Biso   1.000  C
  C285     1.0000 0.64510  0.67640  0.25670  Biso   1.000  C
  H307     1.0000 0.67660  0.70150  0.24150  Biso   1.000  H
  C286     1.0000 0.59960  0.71960  0.27800  Biso   1.000  C
  H308     1.0000 0.59930  0.77340  0.27610  Biso   1.000  H
  N45      1.0000 0.43980  0.18910  0.12029  Biso   1.000  N
  C287     1.0000 0.43380  0.11140  0.11930  Biso   1.000  C
  H309     1.0000 0.45840  0.08520  0.10230  Biso   1.000  H
  C288     1.0000 0.39380  0.06870  0.14160  Biso   1.000  C
  H310     1.0000 0.39150  0.01500  0.13960  Biso   1.000  H
  C289     1.0000 0.35650  0.10560  0.16739  Biso   1.000  C
  C290     1.0000 0.35970  0.18550  0.16820  Biso   1.000  C
  H311     1.0000 0.33310  0.21250  0.18440  Biso   1.000  H
  C291     1.0000 0.40170  0.22590  0.14514  Biso   1.000  C
  H312     1.0000 0.40430  0.27970  0.14650  Biso   1.000  H
  C292     1.0000 0.31050  0.05820  0.19250  Biso   1.000  C
  H313     1.0000 0.26940  0.03060  0.18120  Biso   1.000  H
  H314     1.0000 0.28640  0.09370  0.20780  Biso   1.000  H
  C293     1.0000 0.35850  0.00020  0.21140  Biso   1.000  C
  H315     1.0000 0.38340  0.96480  0.19630  Biso   1.000  H
  H316     1.0000 0.39890  0.02740  0.22330  Biso   1.000  H
  C294     1.0000 0.30950  0.95390  0.23530  Biso   1.000  C
  H317     1.0000 0.27410  0.92120  0.22310  Biso   1.000  H
  H318     1.0000 0.27860  0.98970  0.24820  Biso   1.000  H
  N46      1.0000 0.44360  0.81300  0.30113  Biso   1.000  N
  C295     1.0000 0.44600  0.89090  0.30230  Biso   1.000  C
  H319     1.0000 0.47730  0.91460  0.31790  Biso   1.000  H
  C296     1.0000 0.40350  0.93730  0.28110  Biso   1.000  C
  H320     1.0000 0.40700  0.99110  0.28260  Biso   1.000  H
  C297     1.0000 0.35630  0.90400  0.25790  Biso   1.000  C
  C298     1.0000 0.35490  0.82360  0.25670  Biso   1.000  C
  H321     1.0000 0.32340  0.79850  0.24150  Biso   1.000  H
  C299     1.0000 0.40040  0.78040  0.27800  Biso   1.000  C
  H322     1.0000 0.40070  0.72660  0.27610  Biso   1.000  H
  N47      1.0000 0.93980  0.68910  0.62029  Biso   1.000  N
  C300     1.0000 0.93380  0.61140  0.61930  Biso   1.000  C
  H323     1.0000 0.95840  0.58520  0.60230  Biso   1.000  H
  C301     1.0000 0.89380  0.56870  0.64160  Biso   1.000  C
  H324     1.0000 0.89150  0.51500  0.63960  Biso   1.000  H
  C302     1.0000 0.85650  0.60560  0.66739  Biso   1.000  C
  C303     1.0000 0.85970  0.68550  0.66820  Biso   1.000  C
  H325     1.0000 0.83310  0.71250  0.68440  Biso   1.000  H
  C304     1.0000 0.90170  0.72590  0.64514  Biso   1.000  C
  H326     1.0000 0.90430  0.77970  0.64650  Biso   1.000  H
  C305     1.0000 0.81050  0.55820  0.69250  Biso   1.000  C
  H327     1.0000 0.76940  0.53060  0.68120  Biso   1.000  H
  H328     1.0000 0.78640  0.59370  0.70780  Biso   1.000  H
  C306     1.0000 0.85850  0.50020  0.71140  Biso   1.000  C
  H329     1.0000 0.88340  0.46480  0.69630  Biso   1.000  H
  H330     1.0000 0.89890  0.52740  0.72330  Biso   1.000  H
  C307     1.0000 0.80950  0.45390  0.73530  Biso   1.000  C
  H331     1.0000 0.77410  0.42120  0.72310  Biso   1.000  H
  H332     1.0000 0.77860  0.48970  0.74820  Biso   1.000  H
  N48      1.0000 0.94360  0.31300  0.80113  Biso   1.000  N
  C308     1.0000 0.94600  0.39090  0.80230  Biso   1.000  C
  H333     1.0000 0.97730  0.41460  0.81790  Biso   1.000  H
  C309     1.0000 0.90350  0.43730  0.78110  Biso   1.000  C
  H334     1.0000 0.90700  0.49110  0.78260  Biso   1.000  H
  C310     1.0000 0.85630  0.40400  0.75790  Biso   1.000  C
  C311     1.0000 0.85490  0.32360  0.75670  Biso   1.000  C
  H335     1.0000 0.82340  0.29850  0.74150  Biso   1.000  H
  C312     1.0000 0.90040  0.28040  0.77800  Biso   1.000  C
  H336     1.0000 0.90070  0.22660  0.77610  Biso   1.000  H
  Cu9      1.0000 0.00000  0.25000  0.83588  Biso   1.000  Cu
  Cu10     1.0000 0.50000  0.75000  0.33588  Biso   1.000  Cu
  Cu11     1.0000 0.00000  0.75000  0.58588  Biso   1.000  Cu
  Cu12     1.0000 0.50000  0.25000  0.08588  Biso   1.000  Cu
  N49      1.0000 0.06310  0.69200  0.74439  Biso   1.000  N
  C313     1.0000 0.14060  0.68840  0.74621  Biso   1.000  C
  H337     1.0000 0.16530  0.71640  0.76260  Biso   1.000  H
  C314     1.0000 0.18580  0.64560  0.72514  Biso   1.000  C
  H338     1.0000 0.23950  0.64500  0.72760  Biso   1.000  H
  C315     1.0000 0.15140  0.60380  0.70042  Biso   1.000  C
  C316     1.0000 0.07140  0.60750  0.69778  Biso   1.000  C
  H339     1.0000 0.04590  0.58100  0.68110  Biso   1.000  H
  C317     1.0000 0.02960  0.65110  0.72022  Biso   1.000  C
  H340     1.0000 0.97580  0.65210  0.71840  Biso   1.000  H
  C318     1.0000 0.20110  0.55690  0.67700  Biso   1.000  C
  H341     1.0000 0.23490  0.52300  0.68950  Biso   1.000  H
  H342     1.0000 0.16770  0.52450  0.66370  Biso   1.000  H
  C319     1.0000 0.25090  0.60830  0.65460  Biso   1.000  C
  H343     1.0000 0.28020  0.64500  0.66770  Biso   1.000  H
  H344     1.0000 0.21750  0.63760  0.64000  Biso   1.000  H
  C320     1.0000 0.30620  0.55880  0.63477  Biso   1.000  C
  H345     1.0000 0.27660  0.51860  0.62380  Biso   1.000  H
  H346     1.0000 0.34220  0.53340  0.64950  Biso   1.000  H
  N50      1.0000 0.43800  0.69090  0.56426  Biso   1.000  N
  C321     1.0000 0.36000  0.68650  0.56243  Biso   1.000  C
  H347     1.0000 0.33460  0.71290  0.54580  Biso   1.000  H
  C322     1.0000 0.31640  0.64380  0.58457  Biso   1.000  C
  H348     1.0000 0.26260  0.64220  0.58240  Biso   1.000  H
  C323     1.0000 0.35170  0.60360  0.60976  Biso   1.000  C
  C324     1.0000 0.43270  0.60880  0.61125  Biso   1.000  C
  H349     1.0000 0.45980  0.58350  0.62780  Biso   1.000  H
  C325     1.0000 0.47280  0.65180  0.58803  Biso   1.000  C
  H350     1.0000 0.52670  0.65340  0.58920  Biso   1.000  H
  N51      1.0000 0.56310  0.19200  0.24439  Biso   1.000  N
  C326     1.0000 0.64060  0.18840  0.24621  Biso   1.000  C
  H351     1.0000 0.66530  0.21640  0.26260  Biso   1.000  H
  C327     1.0000 0.68580  0.14560  0.22514  Biso   1.000  C
  H352     1.0000 0.73950  0.14500  0.22760  Biso   1.000  H
  C328     1.0000 0.65140  0.10380  0.20042  Biso   1.000  C
  C329     1.0000 0.57140  0.10750  0.19778  Biso   1.000  C
  H353     1.0000 0.54590  0.08100  0.18110  Biso   1.000  H
  C330     1.0000 0.52960  0.15110  0.22022  Biso   1.000  C
  H354     1.0000 0.47580  0.15210  0.21840  Biso   1.000  H
  C331     1.0000 0.70110  0.05690  0.17700  Biso   1.000  C
  H355     1.0000 0.73490  0.02300  0.18950  Biso   1.000  H
  H356     1.0000 0.66770  0.02450  0.16370  Biso   1.000  H
  C332     1.0000 0.75090  0.10830  0.15460  Biso   1.000  C
  H357     1.0000 0.78020  0.14500  0.16770  Biso   1.000  H
  H358     1.0000 0.71750  0.13760  0.14000  Biso   1.000  H
  C333     1.0000 0.80620  0.05880  0.13477  Biso   1.000  C
  H359     1.0000 0.77660  0.01860  0.12380  Biso   1.000  H
  H360     1.0000 0.84220  0.03340  0.14950  Biso   1.000  H
  N52      1.0000 0.93800  0.19090  0.06426  Biso   1.000  N
  C334     1.0000 0.86000  0.18650  0.06243  Biso   1.000  C
  H361     1.0000 0.83460  0.21290  0.04580  Biso   1.000  H
  C335     1.0000 0.81640  0.14380  0.08457  Biso   1.000  C
  H362     1.0000 0.76260  0.14220  0.08240  Biso   1.000  H
  C336     1.0000 0.85170  0.10360  0.10976  Biso   1.000  C
  C337     1.0000 0.93270  0.10880  0.11125  Biso   1.000  C
  H363     1.0000 0.95980  0.08350  0.12780  Biso   1.000  H
  C338     1.0000 0.97280  0.15180  0.08803  Biso   1.000  C
  H364     1.0000 0.02670  0.15340  0.08920  Biso   1.000  H
  N53      1.0000 0.43690  0.30800  0.24439  Biso   1.000  N
  C339     1.0000 0.35940  0.31160  0.24621  Biso   1.000  C
  H365     1.0000 0.33470  0.28360  0.26260  Biso   1.000  H
  C340     1.0000 0.31420  0.35440  0.22514  Biso   1.000  C
  H366     1.0000 0.26050  0.35500  0.22760  Biso   1.000  H
  C341     1.0000 0.34860  0.39620  0.20042  Biso   1.000  C
  C342     1.0000 0.42860  0.39250  0.19778  Biso   1.000  C
  H367     1.0000 0.45410  0.41900  0.18110  Biso   1.000  H
  C343     1.0000 0.47040  0.34890  0.22022  Biso   1.000  C
  H368     1.0000 0.52420  0.34790  0.21840  Biso   1.000  H
  C344     1.0000 0.29890  0.44310  0.17700  Biso   1.000  C
  H369     1.0000 0.26510  0.47700  0.18950  Biso   1.000  H
  H370     1.0000 0.33230  0.47550  0.16370  Biso   1.000  H
  C345     1.0000 0.24910  0.39170  0.15460  Biso   1.000  C
  H371     1.0000 0.21980  0.35500  0.16770  Biso   1.000  H
  H372     1.0000 0.28250  0.36240  0.14000  Biso   1.000  H
  C346     1.0000 0.19380  0.44120  0.13477  Biso   1.000  C
  H373     1.0000 0.22340  0.48140  0.12380  Biso   1.000  H
  H374     1.0000 0.15780  0.46660  0.14950  Biso   1.000  H
  N54      1.0000 0.06200  0.30910  0.06426  Biso   1.000  N
  C347     1.0000 0.14000  0.31350  0.06243  Biso   1.000  C
  H375     1.0000 0.16540  0.28710  0.04580  Biso   1.000  H
  C348     1.0000 0.18360  0.35620  0.08457  Biso   1.000  C
  H376     1.0000 0.23740  0.35780  0.08240  Biso   1.000  H
  C349     1.0000 0.14830  0.39640  0.10976  Biso   1.000  C
  C350     1.0000 0.06730  0.39120  0.11125  Biso   1.000  C
  H377     1.0000 0.04020  0.41650  0.12780  Biso   1.000  H
  C351     1.0000 0.02720  0.34820  0.08803  Biso   1.000  C
  H378     1.0000 0.97330  0.34660  0.08920  Biso   1.000  H
  N55      1.0000 0.93690  0.80800  0.74439  Biso   1.000  N
  C352     1.0000 0.85940  0.81160  0.74621  Biso   1.000  C
  H379     1.0000 0.83470  0.78360  0.76260  Biso   1.000  H
  C353     1.0000 0.81420  0.85440  0.72514  Biso   1.000  C
  H380     1.0000 0.76050  0.85500  0.72760  Biso   1.000  H
  C354     1.0000 0.84860  0.89620  0.70042  Biso   1.000  C
  C355     1.0000 0.92860  0.89250  0.69778  Biso   1.000  C
  H381     1.0000 0.95410  0.91900  0.68110  Biso   1.000  H
  C356     1.0000 0.97040  0.84890  0.72022  Biso   1.000  C
  H382     1.0000 0.02420  0.84790  0.71840  Biso   1.000  H
  C357     1.0000 0.79890  0.94310  0.67700  Biso   1.000  C
  H383     1.0000 0.76510  0.97700  0.68950  Biso   1.000  H
  H384     1.0000 0.83230  0.97550  0.66370  Biso   1.000  H
  C358     1.0000 0.74910  0.89170  0.65460  Biso   1.000  C
  H385     1.0000 0.71980  0.85500  0.66770  Biso   1.000  H
  H386     1.0000 0.78250  0.86240  0.64000  Biso   1.000  H
  C359     1.0000 0.69380  0.94120  0.63477  Biso   1.000  C
  H387     1.0000 0.72340  0.98140  0.62380  Biso   1.000  H
  H388     1.0000 0.65780  0.96660  0.64950  Biso   1.000  H
  N56      1.0000 0.56200  0.80910  0.56426  Biso   1.000  N
  C360     1.0000 0.64000  0.81350  0.56243  Biso   1.000  C
  H389     1.0000 0.66540  0.78710  0.54580  Biso   1.000  H
  C361     1.0000 0.68360  0.85620  0.58457  Biso   1.000  C
  H390     1.0000 0.73740  0.85780  0.58240  Biso   1.000  H
  C362     1.0000 0.64830  0.89640  0.60976  Biso   1.000  C
  C363     1.0000 0.56730  0.89120  0.61125  Biso   1.000  C
  H391     1.0000 0.54020  0.91650  0.62780  Biso   1.000  H
  C364     1.0000 0.52720  0.84820  0.58803  Biso   1.000  C
  H392     1.0000 0.47330  0.84660  0.58920  Biso   1.000  H
  N57      1.0000 0.55800  0.81310  0.49439  Biso   1.000  N
  C365     1.0000 0.56160  0.89060  0.49621  Biso   1.000  C
  H393     1.0000 0.53360  0.91530  0.51260  Biso   1.000  H
  C366     1.0000 0.60440  0.93580  0.47514  Biso   1.000  C
  H394     1.0000 0.60500  0.98950  0.47760  Biso   1.000  H
  C367     1.0000 0.64620  0.90140  0.45042  Biso   1.000  C
  C368     1.0000 0.64250  0.82140  0.44778  Biso   1.000  C
  H395     1.0000 0.66900  0.79590  0.43110  Biso   1.000  H
  C369     1.0000 0.59890  0.77960  0.47022  Biso   1.000  C
  H396     1.0000 0.59790  0.72580  0.46840  Biso   1.000  H
  C370     1.0000 0.69310  0.95110  0.42700  Biso   1.000  C
  H397     1.0000 0.72700  0.98490  0.43950  Biso   1.000  H
  H398     1.0000 0.72550  0.91770  0.41370  Biso   1.000  H
  C371     1.0000 0.64170  0.00090  0.40460  Biso   1.000  C
  H399     1.0000 0.60500  0.03020  0.41770  Biso   1.000  H
  H400     1.0000 0.61240  0.96750  0.39000  Biso   1.000  H
  C372     1.0000 0.69120  0.05620  0.38477  Biso   1.000  C
  H401     1.0000 0.73140  0.02660  0.37380  Biso   1.000  H
  H402     1.0000 0.71660  0.09220  0.39950  Biso   1.000  H
  N58      1.0000 0.55910  0.18800  0.31426  Biso   1.000  N
  C373     1.0000 0.56350  0.11000  0.31243  Biso   1.000  C
  H403     1.0000 0.53710  0.08460  0.29580  Biso   1.000  H
  C374     1.0000 0.60620  0.06640  0.33457  Biso   1.000  C
  H404     1.0000 0.60780  0.01260  0.33240  Biso   1.000  H
  C375     1.0000 0.64640  0.10170  0.35976  Biso   1.000  C
  C376     1.0000 0.64120  0.18270  0.36125  Biso   1.000  C
  H405     1.0000 0.66650  0.20980  0.37780  Biso   1.000  H
  C377     1.0000 0.59820  0.22280  0.33803  Biso   1.000  C
  H406     1.0000 0.59660  0.27670  0.33920  Biso   1.000  H
  N59      1.0000 0.05800  0.31310  0.99439  Biso   1.000  N
  C378     1.0000 0.06160  0.39060  0.99621  Biso   1.000  C
  H407     1.0000 0.03360  0.41530  0.01260  Biso   1.000  H
  C379     1.0000 0.10440  0.43580  0.97514  Biso   1.000  C
  H408     1.0000 0.10500  0.48950  0.97760  Biso   1.000  H
  C380     1.0000 0.14620  0.40140  0.95042  Biso   1.000  C
  C381     1.0000 0.14250  0.32140  0.94778  Biso   1.000  C
  H409     1.0000 0.16900  0.29590  0.93110  Biso   1.000  H
  C382     1.0000 0.09890  0.27960  0.97022  Biso   1.000  C
  H410     1.0000 0.09790  0.22580  0.96840  Biso   1.000  H
  C383     1.0000 0.19310  0.45110  0.92700  Biso   1.000  C
  H411     1.0000 0.22700  0.48490  0.93950  Biso   1.000  H
  H412     1.0000 0.22550  0.41770  0.91370  Biso   1.000  H
  C384     1.0000 0.14170  0.50090  0.90460  Biso   1.000  C
  H413     1.0000 0.10500  0.53020  0.91770  Biso   1.000  H
  H414     1.0000 0.11240  0.46750  0.89000  Biso   1.000  H
  C385     1.0000 0.19120  0.55620  0.88477  Biso   1.000  C
  H415     1.0000 0.23140  0.52660  0.87380  Biso   1.000  H
  H416     1.0000 0.21660  0.59220  0.89950  Biso   1.000  H
  N60      1.0000 0.05910  0.68800  0.81426  Biso   1.000  N
  C386     1.0000 0.06350  0.61000  0.81243  Biso   1.000  C
  H417     1.0000 0.03710  0.58460  0.79580  Biso   1.000  H
  C387     1.0000 0.10620  0.56640  0.83457  Biso   1.000  C
  H418     1.0000 0.10780  0.51260  0.83240  Biso   1.000  H
  C388     1.0000 0.14640  0.60170  0.85976  Biso   1.000  C
  C389     1.0000 0.14120  0.68270  0.86125  Biso   1.000  C
  H419     1.0000 0.16650  0.70980  0.87780  Biso   1.000  H
  C390     1.0000 0.09820  0.72280  0.83803  Biso   1.000  C
  H420     1.0000 0.09660  0.77670  0.83920  Biso   1.000  H
  N61      1.0000 0.94200  0.18690  0.99439  Biso   1.000  N
  C391     1.0000 0.93840  0.10940  0.99621  Biso   1.000  C
  H421     1.0000 0.96640  0.08470  0.01260  Biso   1.000  H
  C392     1.0000 0.89560  0.06420  0.97514  Biso   1.000  C
  H422     1.0000 0.89500  0.01050  0.97760  Biso   1.000  H
  C393     1.0000 0.85380  0.09860  0.95042  Biso   1.000  C
  C394     1.0000 0.85750  0.17860  0.94778  Biso   1.000  C
  H423     1.0000 0.83100  0.20410  0.93110  Biso   1.000  H
  C395     1.0000 0.90110  0.22040  0.97022  Biso   1.000  C
  H424     1.0000 0.90210  0.27420  0.96840  Biso   1.000  H
  C396     1.0000 0.80690  0.04890  0.92700  Biso   1.000  C
  H425     1.0000 0.77300  0.01510  0.93950  Biso   1.000  H
  H426     1.0000 0.77450  0.08230  0.91370  Biso   1.000  H
  C397     1.0000 0.85830  0.99910  0.90460  Biso   1.000  C
  H427     1.0000 0.89500  0.96980  0.91770  Biso   1.000  H
  H428     1.0000 0.88760  0.03250  0.89000  Biso   1.000  H
  C398     1.0000 0.80880  0.94380  0.88477  Biso   1.000  C
  H429     1.0000 0.76860  0.97340  0.87380  Biso   1.000  H
  H430     1.0000 0.78340  0.90780  0.89950  Biso   1.000  H
  N62      1.0000 0.94090  0.81200  0.81426  Biso   1.000  N
  C399     1.0000 0.93650  0.89000  0.81243  Biso   1.000  C
  H431     1.0000 0.96290  0.91540  0.79580  Biso   1.000  H
  C400     1.0000 0.89380  0.93360  0.83457  Biso   1.000  C
  H432     1.0000 0.89220  0.98740  0.83240  Biso   1.000  H
  C401     1.0000 0.85360  0.89830  0.85976  Biso   1.000  C
  C402     1.0000 0.85880  0.81730  0.86125  Biso   1.000  C
  H433     1.0000 0.83350  0.79020  0.87780  Biso   1.000  H
  C403     1.0000 0.90180  0.77720  0.83803  Biso   1.000  C
  H434     1.0000 0.90340  0.72330  0.83920  Biso   1.000  H
  N63      1.0000 0.44200  0.68690  0.49439  Biso   1.000  N
  C404     1.0000 0.43840  0.60940  0.49621  Biso   1.000  C
  H435     1.0000 0.46640  0.58470  0.51260  Biso   1.000  H
  C405     1.0000 0.39560  0.56420  0.47514  Biso   1.000  C
  H436     1.0000 0.39500  0.51050  0.47760  Biso   1.000  H
  C406     1.0000 0.35380  0.59860  0.45042  Biso   1.000  C
  C407     1.0000 0.35750  0.67860  0.44778  Biso   1.000  C
  H437     1.0000 0.33100  0.70410  0.43110  Biso   1.000  H
  C408     1.0000 0.40110  0.72040  0.47022  Biso   1.000  C
  H438     1.0000 0.40210  0.77420  0.46840  Biso   1.000  H
  C409     1.0000 0.30690  0.54890  0.42700  Biso   1.000  C
  H439     1.0000 0.27300  0.51510  0.43950  Biso   1.000  H
  H440     1.0000 0.27450  0.58230  0.41370  Biso   1.000  H
  C410     1.0000 0.35830  0.49910  0.40460  Biso   1.000  C
  H441     1.0000 0.39500  0.46980  0.41770  Biso   1.000  H
  H442     1.0000 0.38760  0.53250  0.39000  Biso   1.000  H
  C411     1.0000 0.30880  0.44380  0.38477  Biso   1.000  C
  H443     1.0000 0.26860  0.47340  0.37380  Biso   1.000  H
  H444     1.0000 0.28340  0.40780  0.39950  Biso   1.000  H
  N64      1.0000 0.44090  0.31200  0.31426  Biso   1.000  N
  C412     1.0000 0.43650  0.39000  0.31243  Biso   1.000  C
  H445     1.0000 0.46290  0.41540  0.29580  Biso   1.000  H
  C413     1.0000 0.39380  0.43360  0.33457  Biso   1.000  C
  H446     1.0000 0.39220  0.48740  0.33240  Biso   1.000  H
  C414     1.0000 0.35360  0.39830  0.35976  Biso   1.000  C
  C415     1.0000 0.35880  0.31730  0.36125  Biso   1.000  C
  H447     1.0000 0.33350  0.29020  0.37780  Biso   1.000  H
  C416     1.0000 0.40180  0.27720  0.33803  Biso   1.000  C
  H448     1.0000 0.40340  0.22330  0.33920  Biso   1.000  H
  Cu13     1.0000 0.00000  0.75000  0.77886  Biso   1.000  Cu
  Cu14     1.0000 0.50000  0.25000  0.27886  Biso   1.000  Cu
  Cu15     1.0000 0.50000  0.75000  0.52886  Biso   1.000  Cu
  Cu16     1.0000 0.00000  0.25000  0.02886  Biso   1.000  Cu
