data_image0
_cell_length_a       24.9933
_cell_length_b       28.2078
_cell_length_c       38.8733
_cell_angle_alpha    90
_cell_angle_beta     90
_cell_angle_gamma    90

_symmetry_space_group_name_H-M    "P 1"
_symmetry_int_tables_number       1

loop_
  _symmetry_equiv_pos_as_xyz
  'x, y, z'

loop_
  _atom_site_label
  _atom_site_occupancy
  _atom_site_fract_x
  _atom_site_fract_y
  _atom_site_fract_z
  _atom_site_thermal_displace_type
  _atom_site_B_iso_or_equiv
  _atom_site_type_symbol
  O1       1.0000 0.24053  0.04888  0.20514  Biso   1.000  O
  O2       1.0000 0.05462  0.23720  0.20526  Biso   1.000  O
  C1       1.0000 0.20037  0.06391  0.21933  Biso   1.000  C
  C2       1.0000 0.07057  0.20119  0.22065  Biso   1.000  C
  C3       1.0000 0.11035  0.16998  0.20210  Biso   1.000  C
  C4       1.0000 0.12240  0.17995  0.16813  Biso   1.000  C
  H1       1.0000 0.10630  0.20530  0.15690  Biso   1.000  H
  C5       1.0000 0.15892  0.15141  0.15122  Biso   1.000  C
  C6       1.0000 0.13422  0.13214  0.21838  Biso   1.000  C
  H2       1.0000 0.12530  0.12510  0.24100  Biso   1.000  H
  C7       1.0000 0.17109  0.10468  0.20130  Biso   1.000  C
  C8       1.0000 0.18388  0.11416  0.16749  Biso   1.000  C
  H3       1.0000 0.20890  0.09570  0.15590  Biso   1.000  H
  C9       1.0000 0.16040  0.19750  0.09587  Biso   1.000  C
  H4       1.0000 0.14500  0.22590  0.10290  Biso   1.000  H
  C10      1.0000 0.17650  0.18604  0.06351  Biso   1.000  C
  C11      1.0000 0.17720  0.21350  0.03127  Biso   1.000  C
  N1       1.0000 0.17096  0.16010  0.11552  Biso   1.000  N
  N2       1.0000 0.19530  0.12764  0.09663  Biso   1.000  N
  N3       1.0000 0.19660  0.14350  0.06464  Biso   1.000  N
  O3       1.0000 0.17916  0.04970  0.24681  Biso   1.000  O
  O4       1.0000 0.05519  0.18670  0.24937  Biso   1.000  O
  C12      1.0000 0.16970  0.26100  0.03141  Biso   1.000  C
  H5       1.0000 0.16760  0.27720  0.05220  Biso   1.000  H
  O5       1.0000 0.24053  0.54888  0.70514  Biso   1.000  O
  O6       1.0000 0.05462  0.73720  0.70526  Biso   1.000  O
  C13      1.0000 0.20037  0.56391  0.71933  Biso   1.000  C
  C14      1.0000 0.07057  0.70119  0.72065  Biso   1.000  C
  C15      1.0000 0.11035  0.66998  0.70210  Biso   1.000  C
  C16      1.0000 0.12240  0.67995  0.66813  Biso   1.000  C
  H6       1.0000 0.10630  0.70530  0.65690  Biso   1.000  H
  C17      1.0000 0.15892  0.65141  0.65122  Biso   1.000  C
  C18      1.0000 0.13422  0.63214  0.71838  Biso   1.000  C
  H7       1.0000 0.12530  0.62510  0.74100  Biso   1.000  H
  C19      1.0000 0.17109  0.60468  0.70130  Biso   1.000  C
  C20      1.0000 0.18388  0.61416  0.66749  Biso   1.000  C
  H8       1.0000 0.20890  0.59570  0.65590  Biso   1.000  H
  C21      1.0000 0.16040  0.69750  0.59587  Biso   1.000  C
  H9       1.0000 0.14500  0.72590  0.60290  Biso   1.000  H
  C22      1.0000 0.17650  0.68604  0.56351  Biso   1.000  C
  C23      1.0000 0.17720  0.71350  0.53127  Biso   1.000  C
  N4       1.0000 0.17096  0.66010  0.61552  Biso   1.000  N
  N5       1.0000 0.19530  0.62764  0.59663  Biso   1.000  N
  N6       1.0000 0.19660  0.64350  0.56464  Biso   1.000  N
  O7       1.0000 0.17916  0.54970  0.74681  Biso   1.000  O
  O8       1.0000 0.05519  0.68670  0.74937  Biso   1.000  O
  C24      1.0000 0.16970  0.76100  0.53141  Biso   1.000  C
  H10      1.0000 0.16760  0.77720  0.55220  Biso   1.000  H
  O9       1.0000 0.74053  0.04888  0.70514  Biso   1.000  O
  O10      1.0000 0.55462  0.23720  0.70526  Biso   1.000  O
  C25      1.0000 0.70037  0.06391  0.71933  Biso   1.000  C
  C26      1.0000 0.57057  0.20119  0.72065  Biso   1.000  C
  C27      1.0000 0.61035  0.16998  0.70210  Biso   1.000  C
  C28      1.0000 0.62240  0.17995  0.66813  Biso   1.000  C
  H11      1.0000 0.60630  0.20530  0.65690  Biso   1.000  H
  C29      1.0000 0.65892  0.15141  0.65122  Biso   1.000  C
  C30      1.0000 0.63422  0.13214  0.71838  Biso   1.000  C
  H12      1.0000 0.62530  0.12510  0.74100  Biso   1.000  H
  C31      1.0000 0.67109  0.10468  0.70130  Biso   1.000  C
  C32      1.0000 0.68388  0.11416  0.66749  Biso   1.000  C
  H13      1.0000 0.70890  0.09570  0.65590  Biso   1.000  H
  C33      1.0000 0.66040  0.19750  0.59587  Biso   1.000  C
  H14      1.0000 0.64500  0.22590  0.60290  Biso   1.000  H
  C34      1.0000 0.67650  0.18604  0.56351  Biso   1.000  C
  C35      1.0000 0.67720  0.21350  0.53127  Biso   1.000  C
  N7       1.0000 0.67096  0.16010  0.61552  Biso   1.000  N
  N8       1.0000 0.69530  0.12764  0.59663  Biso   1.000  N
  N9       1.0000 0.69660  0.14350  0.56464  Biso   1.000  N
  O11      1.0000 0.67916  0.04970  0.74681  Biso   1.000  O
  O12      1.0000 0.55519  0.18670  0.74937  Biso   1.000  O
  C36      1.0000 0.66970  0.26100  0.53141  Biso   1.000  C
  H15      1.0000 0.66760  0.27720  0.55220  Biso   1.000  H
  O13      1.0000 0.74053  0.54888  0.20514  Biso   1.000  O
  O14      1.0000 0.55462  0.73720  0.20526  Biso   1.000  O
  C37      1.0000 0.70037  0.56391  0.21933  Biso   1.000  C
  C38      1.0000 0.57057  0.70119  0.22065  Biso   1.000  C
  C39      1.0000 0.61035  0.66998  0.20210  Biso   1.000  C
  C40      1.0000 0.62240  0.67995  0.16813  Biso   1.000  C
  H16      1.0000 0.60630  0.70530  0.15690  Biso   1.000  H
  C41      1.0000 0.65892  0.65141  0.15122  Biso   1.000  C
  C42      1.0000 0.63422  0.63214  0.21838  Biso   1.000  C
  H17      1.0000 0.62530  0.62510  0.24100  Biso   1.000  H
  C43      1.0000 0.67109  0.60468  0.20130  Biso   1.000  C
  C44      1.0000 0.68388  0.61416  0.16749  Biso   1.000  C
  H18      1.0000 0.70890  0.59570  0.15590  Biso   1.000  H
  C45      1.0000 0.66040  0.69750  0.09587  Biso   1.000  C
  H19      1.0000 0.64500  0.72590  0.10290  Biso   1.000  H
  C46      1.0000 0.67650  0.68604  0.06351  Biso   1.000  C
  C47      1.0000 0.67720  0.71350  0.03127  Biso   1.000  C
  N10      1.0000 0.67096  0.66010  0.11552  Biso   1.000  N
  N11      1.0000 0.69530  0.62764  0.09663  Biso   1.000  N
  N12      1.0000 0.69660  0.64350  0.06464  Biso   1.000  N
  O15      1.0000 0.67916  0.54970  0.24681  Biso   1.000  O
  O16      1.0000 0.55519  0.68670  0.24937  Biso   1.000  O
  C48      1.0000 0.66970  0.76100  0.03141  Biso   1.000  C
  H20      1.0000 0.66760  0.77720  0.05220  Biso   1.000  H
  O17      1.0000 0.75947  0.95112  0.20514  Biso   1.000  O
  O18      1.0000 0.94538  0.76280  0.20526  Biso   1.000  O
  C49      1.0000 0.79963  0.93609  0.21933  Biso   1.000  C
  C50      1.0000 0.92943  0.79881  0.22065  Biso   1.000  C
  C51      1.0000 0.88965  0.83002  0.20210  Biso   1.000  C
  C52      1.0000 0.87760  0.82005  0.16813  Biso   1.000  C
  H21      1.0000 0.89370  0.79470  0.15690  Biso   1.000  H
  C53      1.0000 0.84108  0.84859  0.15122  Biso   1.000  C
  C54      1.0000 0.86578  0.86786  0.21838  Biso   1.000  C
  H22      1.0000 0.87470  0.87490  0.24100  Biso   1.000  H
  C55      1.0000 0.82891  0.89532  0.20130  Biso   1.000  C
  C56      1.0000 0.81612  0.88584  0.16749  Biso   1.000  C
  H23      1.0000 0.79110  0.90430  0.15590  Biso   1.000  H
  C57      1.0000 0.83960  0.80250  0.09587  Biso   1.000  C
  H24      1.0000 0.85500  0.77410  0.10290  Biso   1.000  H
  C58      1.0000 0.82350  0.81396  0.06351  Biso   1.000  C
  C59      1.0000 0.82280  0.78650  0.03127  Biso   1.000  C
  N13      1.0000 0.82904  0.83990  0.11552  Biso   1.000  N
  N14      1.0000 0.80470  0.87236  0.09663  Biso   1.000  N
  N15      1.0000 0.80340  0.85650  0.06464  Biso   1.000  N
  O19      1.0000 0.82084  0.95030  0.24681  Biso   1.000  O
  O20      1.0000 0.94481  0.81330  0.24937  Biso   1.000  O
  C60      1.0000 0.83030  0.73900  0.03141  Biso   1.000  C
  H25      1.0000 0.83240  0.72280  0.05220  Biso   1.000  H
  O21      1.0000 0.75947  0.45112  0.70514  Biso   1.000  O
  O22      1.0000 0.94538  0.26280  0.70526  Biso   1.000  O
  C61      1.0000 0.79963  0.43609  0.71933  Biso   1.000  C
  C62      1.0000 0.92943  0.29881  0.72065  Biso   1.000  C
  C63      1.0000 0.88965  0.33002  0.70210  Biso   1.000  C
  C64      1.0000 0.87760  0.32005  0.66813  Biso   1.000  C
  H26      1.0000 0.89370  0.29470  0.65690  Biso   1.000  H
  C65      1.0000 0.84108  0.34859  0.65122  Biso   1.000  C
  C66      1.0000 0.86578  0.36786  0.71838  Biso   1.000  C
  H27      1.0000 0.87470  0.37490  0.74100  Biso   1.000  H
  C67      1.0000 0.82891  0.39532  0.70130  Biso   1.000  C
  C68      1.0000 0.81612  0.38584  0.66749  Biso   1.000  C
  H28      1.0000 0.79110  0.40430  0.65590  Biso   1.000  H
  C69      1.0000 0.83960  0.30250  0.59587  Biso   1.000  C
  H29      1.0000 0.85500  0.27410  0.60290  Biso   1.000  H
  C70      1.0000 0.82350  0.31396  0.56351  Biso   1.000  C
  C71      1.0000 0.82280  0.28650  0.53127  Biso   1.000  C
  N16      1.0000 0.82904  0.33990  0.61552  Biso   1.000  N
  N17      1.0000 0.80470  0.37236  0.59663  Biso   1.000  N
  N18      1.0000 0.80340  0.35650  0.56464  Biso   1.000  N
  O23      1.0000 0.82084  0.45030  0.74681  Biso   1.000  O
  O24      1.0000 0.94481  0.31330  0.74937  Biso   1.000  O
  C72      1.0000 0.83030  0.23900  0.53141  Biso   1.000  C
  H30      1.0000 0.83240  0.22280  0.55220  Biso   1.000  H
  O25      1.0000 0.25947  0.95112  0.70514  Biso   1.000  O
  O26      1.0000 0.44538  0.76280  0.70526  Biso   1.000  O
  C73      1.0000 0.29963  0.93609  0.71933  Biso   1.000  C
  C74      1.0000 0.42943  0.79881  0.72065  Biso   1.000  C
  C75      1.0000 0.38965  0.83002  0.70210  Biso   1.000  C
  C76      1.0000 0.37760  0.82005  0.66813  Biso   1.000  C
  H31      1.0000 0.39370  0.79470  0.65690  Biso   1.000  H
  C77      1.0000 0.34108  0.84859  0.65122  Biso   1.000  C
  C78      1.0000 0.36578  0.86786  0.71838  Biso   1.000  C
  H32      1.0000 0.37470  0.87490  0.74100  Biso   1.000  H
  C79      1.0000 0.32891  0.89532  0.70130  Biso   1.000  C
  C80      1.0000 0.31612  0.88584  0.66749  Biso   1.000  C
  H33      1.0000 0.29110  0.90430  0.65590  Biso   1.000  H
  C81      1.0000 0.33960  0.80250  0.59587  Biso   1.000  C
  H34      1.0000 0.35500  0.77410  0.60290  Biso   1.000  H
  C82      1.0000 0.32350  0.81396  0.56351  Biso   1.000  C
  C83      1.0000 0.32280  0.78650  0.53127  Biso   1.000  C
  N19      1.0000 0.32904  0.83990  0.61552  Biso   1.000  N
  N20      1.0000 0.30470  0.87236  0.59663  Biso   1.000  N
  N21      1.0000 0.30340  0.85650  0.56464  Biso   1.000  N
  O27      1.0000 0.32084  0.95030  0.74681  Biso   1.000  O
  O28      1.0000 0.44481  0.81330  0.74937  Biso   1.000  O
  C84      1.0000 0.33030  0.73900  0.53141  Biso   1.000  C
  H35      1.0000 0.33240  0.72280  0.55220  Biso   1.000  H
  O29      1.0000 0.25947  0.45112  0.20514  Biso   1.000  O
  O30      1.0000 0.44538  0.26280  0.20526  Biso   1.000  O
  C85      1.0000 0.29963  0.43609  0.21933  Biso   1.000  C
  C86      1.0000 0.42943  0.29881  0.22065  Biso   1.000  C
  C87      1.0000 0.38965  0.33002  0.20210  Biso   1.000  C
  C88      1.0000 0.37760  0.32005  0.16813  Biso   1.000  C
  H36      1.0000 0.39370  0.29470  0.15690  Biso   1.000  H
  C89      1.0000 0.34108  0.34859  0.15122  Biso   1.000  C
  C90      1.0000 0.36578  0.36786  0.21838  Biso   1.000  C
  H37      1.0000 0.37470  0.37490  0.24100  Biso   1.000  H
  C91      1.0000 0.32891  0.39532  0.20130  Biso   1.000  C
  C92      1.0000 0.31612  0.38584  0.16749  Biso   1.000  C
  H38      1.0000 0.29110  0.40430  0.15590  Biso   1.000  H
  C93      1.0000 0.33960  0.30250  0.09587  Biso   1.000  C
  H39      1.0000 0.35500  0.27410  0.10290  Biso   1.000  H
  C94      1.0000 0.32350  0.31396  0.06351  Biso   1.000  C
  C95      1.0000 0.32280  0.28650  0.03127  Biso   1.000  C
  N22      1.0000 0.32904  0.33990  0.11552  Biso   1.000  N
  N23      1.0000 0.30470  0.37236  0.09663  Biso   1.000  N
  N24      1.0000 0.30340  0.35650  0.06464  Biso   1.000  N
  O31      1.0000 0.32084  0.45030  0.24681  Biso   1.000  O
  O32      1.0000 0.44481  0.31330  0.24937  Biso   1.000  O
  C96      1.0000 0.33030  0.23900  0.03141  Biso   1.000  C
  H40      1.0000 0.33240  0.22280  0.05220  Biso   1.000  H
  O33      1.0000 0.75947  0.04888  0.79486  Biso   1.000  O
  O34      1.0000 0.94538  0.23720  0.79474  Biso   1.000  O
  C97      1.0000 0.79963  0.06391  0.78067  Biso   1.000  C
  C98      1.0000 0.92943  0.20119  0.77935  Biso   1.000  C
  C99      1.0000 0.88965  0.16998  0.79790  Biso   1.000  C
  C100     1.0000 0.87760  0.17995  0.83187  Biso   1.000  C
  H41      1.0000 0.89370  0.20530  0.84310  Biso   1.000  H
  C101     1.0000 0.84108  0.15141  0.84878  Biso   1.000  C
  C102     1.0000 0.86578  0.13214  0.78162  Biso   1.000  C
  H42      1.0000 0.87470  0.12510  0.75900  Biso   1.000  H
  C103     1.0000 0.82891  0.10468  0.79870  Biso   1.000  C
  C104     1.0000 0.81612  0.11416  0.83251  Biso   1.000  C
  H43      1.0000 0.79110  0.09570  0.84410  Biso   1.000  H
  C105     1.0000 0.83960  0.19750  0.90413  Biso   1.000  C
  H44      1.0000 0.85500  0.22590  0.89710  Biso   1.000  H
  C106     1.0000 0.82350  0.18604  0.93649  Biso   1.000  C
  C107     1.0000 0.82280  0.21350  0.96873  Biso   1.000  C
  N25      1.0000 0.82904  0.16010  0.88448  Biso   1.000  N
  N26      1.0000 0.80470  0.12764  0.90337  Biso   1.000  N
  N27      1.0000 0.80340  0.14350  0.93536  Biso   1.000  N
  O35      1.0000 0.82084  0.04970  0.75319  Biso   1.000  O
  O36      1.0000 0.94481  0.18670  0.75063  Biso   1.000  O
  C108     1.0000 0.83030  0.26100  0.96859  Biso   1.000  C
  H45      1.0000 0.83240  0.27720  0.94780  Biso   1.000  H
  O37      1.0000 0.75947  0.54888  0.29486  Biso   1.000  O
  O38      1.0000 0.94538  0.73720  0.29474  Biso   1.000  O
  C109     1.0000 0.79963  0.56391  0.28067  Biso   1.000  C
  C110     1.0000 0.92943  0.70119  0.27935  Biso   1.000  C
  C111     1.0000 0.88965  0.66998  0.29790  Biso   1.000  C
  C112     1.0000 0.87760  0.67995  0.33187  Biso   1.000  C
  H46      1.0000 0.89370  0.70530  0.34310  Biso   1.000  H
  C113     1.0000 0.84108  0.65141  0.34878  Biso   1.000  C
  C114     1.0000 0.86578  0.63214  0.28162  Biso   1.000  C
  H47      1.0000 0.87470  0.62510  0.25900  Biso   1.000  H
  C115     1.0000 0.82891  0.60468  0.29870  Biso   1.000  C
  C116     1.0000 0.81612  0.61416  0.33251  Biso   1.000  C
  H48      1.0000 0.79110  0.59570  0.34410  Biso   1.000  H
  C117     1.0000 0.83960  0.69750  0.40413  Biso   1.000  C
  H49      1.0000 0.85500  0.72590  0.39710  Biso   1.000  H
  C118     1.0000 0.82350  0.68604  0.43649  Biso   1.000  C
  C119     1.0000 0.82280  0.71350  0.46873  Biso   1.000  C
  N28      1.0000 0.82904  0.66010  0.38448  Biso   1.000  N
  N29      1.0000 0.80470  0.62764  0.40337  Biso   1.000  N
  N30      1.0000 0.80340  0.64350  0.43536  Biso   1.000  N
  O39      1.0000 0.82084  0.54970  0.25319  Biso   1.000  O
  O40      1.0000 0.94481  0.68670  0.25063  Biso   1.000  O
  C120     1.0000 0.83030  0.76100  0.46859  Biso   1.000  C
  H50      1.0000 0.83240  0.77720  0.44780  Biso   1.000  H
  O41      1.0000 0.25947  0.04888  0.29486  Biso   1.000  O
  O42      1.0000 0.44538  0.23720  0.29474  Biso   1.000  O
  C121     1.0000 0.29963  0.06391  0.28067  Biso   1.000  C
  C122     1.0000 0.42943  0.20119  0.27935  Biso   1.000  C
  C123     1.0000 0.38965  0.16998  0.29790  Biso   1.000  C
  C124     1.0000 0.37760  0.17995  0.33187  Biso   1.000  C
  H51      1.0000 0.39370  0.20530  0.34310  Biso   1.000  H
  C125     1.0000 0.34108  0.15141  0.34878  Biso   1.000  C
  C126     1.0000 0.36578  0.13214  0.28162  Biso   1.000  C
  H52      1.0000 0.37470  0.12510  0.25900  Biso   1.000  H
  C127     1.0000 0.32891  0.10468  0.29870  Biso   1.000  C
  C128     1.0000 0.31612  0.11416  0.33251  Biso   1.000  C
  H53      1.0000 0.29110  0.09570  0.34410  Biso   1.000  H
  C129     1.0000 0.33960  0.19750  0.40413  Biso   1.000  C
  H54      1.0000 0.35500  0.22590  0.39710  Biso   1.000  H
  C130     1.0000 0.32350  0.18604  0.43649  Biso   1.000  C
  C131     1.0000 0.32280  0.21350  0.46873  Biso   1.000  C
  N31      1.0000 0.32904  0.16010  0.38448  Biso   1.000  N
  N32      1.0000 0.30470  0.12764  0.40337  Biso   1.000  N
  N33      1.0000 0.30340  0.14350  0.43536  Biso   1.000  N
  O43      1.0000 0.32084  0.04970  0.25319  Biso   1.000  O
  O44      1.0000 0.44481  0.18670  0.25063  Biso   1.000  O
  C132     1.0000 0.33030  0.26100  0.46859  Biso   1.000  C
  H55      1.0000 0.33240  0.27720  0.44780  Biso   1.000  H
  O45      1.0000 0.25947  0.54888  0.79486  Biso   1.000  O
  O46      1.0000 0.44538  0.73720  0.79474  Biso   1.000  O
  C133     1.0000 0.29963  0.56391  0.78067  Biso   1.000  C
  C134     1.0000 0.42943  0.70119  0.77935  Biso   1.000  C
  C135     1.0000 0.38965  0.66998  0.79790  Biso   1.000  C
  C136     1.0000 0.37760  0.67995  0.83187  Biso   1.000  C
  H56      1.0000 0.39370  0.70530  0.84310  Biso   1.000  H
  C137     1.0000 0.34108  0.65141  0.84878  Biso   1.000  C
  C138     1.0000 0.36578  0.63214  0.78162  Biso   1.000  C
  H57      1.0000 0.37470  0.62510  0.75900  Biso   1.000  H
  C139     1.0000 0.32891  0.60468  0.79870  Biso   1.000  C
  C140     1.0000 0.31612  0.61416  0.83251  Biso   1.000  C
  H58      1.0000 0.29110  0.59570  0.84410  Biso   1.000  H
  C141     1.0000 0.33960  0.69750  0.90413  Biso   1.000  C
  H59      1.0000 0.35500  0.72590  0.89710  Biso   1.000  H
  C142     1.0000 0.32350  0.68604  0.93649  Biso   1.000  C
  C143     1.0000 0.32280  0.71350  0.96873  Biso   1.000  C
  N34      1.0000 0.32904  0.66010  0.88448  Biso   1.000  N
  N35      1.0000 0.30470  0.62764  0.90337  Biso   1.000  N
  N36      1.0000 0.30340  0.64350  0.93536  Biso   1.000  N
  O47      1.0000 0.32084  0.54970  0.75319  Biso   1.000  O
  O48      1.0000 0.44481  0.68670  0.75063  Biso   1.000  O
  C144     1.0000 0.33030  0.76100  0.96859  Biso   1.000  C
  H60      1.0000 0.33240  0.77720  0.94780  Biso   1.000  H
  O49      1.0000 0.24053  0.95112  0.79486  Biso   1.000  O
  O50      1.0000 0.05462  0.76280  0.79474  Biso   1.000  O
  C145     1.0000 0.20037  0.93609  0.78067  Biso   1.000  C
  C146     1.0000 0.07057  0.79881  0.77935  Biso   1.000  C
  C147     1.0000 0.11035  0.83002  0.79790  Biso   1.000  C
  C148     1.0000 0.12240  0.82005  0.83187  Biso   1.000  C
  H61      1.0000 0.10630  0.79470  0.84310  Biso   1.000  H
  C149     1.0000 0.15892  0.84859  0.84878  Biso   1.000  C
  C150     1.0000 0.13422  0.86786  0.78162  Biso   1.000  C
  H62      1.0000 0.12530  0.87490  0.75900  Biso   1.000  H
  C151     1.0000 0.17109  0.89532  0.79870  Biso   1.000  C
  C152     1.0000 0.18388  0.88584  0.83251  Biso   1.000  C
  H63      1.0000 0.20890  0.90430  0.84410  Biso   1.000  H
  C153     1.0000 0.16040  0.80250  0.90413  Biso   1.000  C
  H64      1.0000 0.14500  0.77410  0.89710  Biso   1.000  H
  C154     1.0000 0.17650  0.81396  0.93649  Biso   1.000  C
  C155     1.0000 0.17720  0.78650  0.96873  Biso   1.000  C
  N37      1.0000 0.17096  0.83990  0.88448  Biso   1.000  N
  N38      1.0000 0.19530  0.87236  0.90337  Biso   1.000  N
  N39      1.0000 0.19660  0.85650  0.93536  Biso   1.000  N
  O51      1.0000 0.17916  0.95030  0.75319  Biso   1.000  O
  O52      1.0000 0.05519  0.81330  0.75063  Biso   1.000  O
  C156     1.0000 0.16970  0.73900  0.96859  Biso   1.000  C
  H65      1.0000 0.16760  0.72280  0.94780  Biso   1.000  H
  O53      1.0000 0.24053  0.45112  0.29486  Biso   1.000  O
  O54      1.0000 0.05462  0.26280  0.29474  Biso   1.000  O
  C157     1.0000 0.20037  0.43609  0.28067  Biso   1.000  C
  C158     1.0000 0.07057  0.29881  0.27935  Biso   1.000  C
  C159     1.0000 0.11035  0.33002  0.29790  Biso   1.000  C
  C160     1.0000 0.12240  0.32005  0.33187  Biso   1.000  C
  H66      1.0000 0.10630  0.29470  0.34310  Biso   1.000  H
  C161     1.0000 0.15892  0.34859  0.34878  Biso   1.000  C
  C162     1.0000 0.13422  0.36786  0.28162  Biso   1.000  C
  H67      1.0000 0.12530  0.37490  0.25900  Biso   1.000  H
  C163     1.0000 0.17109  0.39532  0.29870  Biso   1.000  C
  C164     1.0000 0.18388  0.38584  0.33251  Biso   1.000  C
  H68      1.0000 0.20890  0.40430  0.34410  Biso   1.000  H
  C165     1.0000 0.16040  0.30250  0.40413  Biso   1.000  C
  H69      1.0000 0.14500  0.27410  0.39710  Biso   1.000  H
  C166     1.0000 0.17650  0.31396  0.43649  Biso   1.000  C
  C167     1.0000 0.17720  0.28650  0.46873  Biso   1.000  C
  N40      1.0000 0.17096  0.33990  0.38448  Biso   1.000  N
  N41      1.0000 0.19530  0.37236  0.40337  Biso   1.000  N
  N42      1.0000 0.19660  0.35650  0.43536  Biso   1.000  N
  O55      1.0000 0.17916  0.45030  0.25319  Biso   1.000  O
  O56      1.0000 0.05519  0.31330  0.25063  Biso   1.000  O
  C168     1.0000 0.16970  0.23900  0.46859  Biso   1.000  C
  H70      1.0000 0.16760  0.22280  0.44780  Biso   1.000  H
  O57      1.0000 0.74053  0.95112  0.29486  Biso   1.000  O
  O58      1.0000 0.55462  0.76280  0.29474  Biso   1.000  O
  C169     1.0000 0.70037  0.93609  0.28067  Biso   1.000  C
  C170     1.0000 0.57057  0.79881  0.27935  Biso   1.000  C
  C171     1.0000 0.61035  0.83002  0.29790  Biso   1.000  C
  C172     1.0000 0.62240  0.82005  0.33187  Biso   1.000  C
  H71      1.0000 0.60630  0.79470  0.34310  Biso   1.000  H
  C173     1.0000 0.65892  0.84859  0.34878  Biso   1.000  C
  C174     1.0000 0.63422  0.86786  0.28162  Biso   1.000  C
  H72      1.0000 0.62530  0.87490  0.25900  Biso   1.000  H
  C175     1.0000 0.67109  0.89532  0.29870  Biso   1.000  C
  C176     1.0000 0.68388  0.88584  0.33251  Biso   1.000  C
  H73      1.0000 0.70890  0.90430  0.34410  Biso   1.000  H
  C177     1.0000 0.66040  0.80250  0.40413  Biso   1.000  C
  H74      1.0000 0.64500  0.77410  0.39710  Biso   1.000  H
  C178     1.0000 0.67650  0.81396  0.43649  Biso   1.000  C
  C179     1.0000 0.67720  0.78650  0.46873  Biso   1.000  C
  N43      1.0000 0.67096  0.83990  0.38448  Biso   1.000  N
  N44      1.0000 0.69530  0.87236  0.40337  Biso   1.000  N
  N45      1.0000 0.69660  0.85650  0.43536  Biso   1.000  N
  O59      1.0000 0.67916  0.95030  0.25319  Biso   1.000  O
  O60      1.0000 0.55519  0.81330  0.25063  Biso   1.000  O
  C180     1.0000 0.66970  0.73900  0.46859  Biso   1.000  C
  H75      1.0000 0.66760  0.72280  0.44780  Biso   1.000  H
  O61      1.0000 0.74053  0.45112  0.79486  Biso   1.000  O
  O62      1.0000 0.55462  0.26280  0.79474  Biso   1.000  O
  C181     1.0000 0.70037  0.43609  0.78067  Biso   1.000  C
  C182     1.0000 0.57057  0.29881  0.77935  Biso   1.000  C
  C183     1.0000 0.61035  0.33002  0.79790  Biso   1.000  C
  C184     1.0000 0.62240  0.32005  0.83187  Biso   1.000  C
  H76      1.0000 0.60630  0.29470  0.84310  Biso   1.000  H
  C185     1.0000 0.65892  0.34859  0.84878  Biso   1.000  C
  C186     1.0000 0.63422  0.36786  0.78162  Biso   1.000  C
  H77      1.0000 0.62530  0.37490  0.75900  Biso   1.000  H
  C187     1.0000 0.67109  0.39532  0.79870  Biso   1.000  C
  C188     1.0000 0.68388  0.38584  0.83251  Biso   1.000  C
  H78      1.0000 0.70890  0.40430  0.84410  Biso   1.000  H
  C189     1.0000 0.66040  0.30250  0.90413  Biso   1.000  C
  H79      1.0000 0.64500  0.27410  0.89710  Biso   1.000  H
  C190     1.0000 0.67650  0.31396  0.93649  Biso   1.000  C
  C191     1.0000 0.67720  0.28650  0.96873  Biso   1.000  C
  N46      1.0000 0.67096  0.33990  0.88448  Biso   1.000  N
  N47      1.0000 0.69530  0.37236  0.90337  Biso   1.000  N
  N48      1.0000 0.69660  0.35650  0.93536  Biso   1.000  N
  O63      1.0000 0.67916  0.45030  0.75319  Biso   1.000  O
  O64      1.0000 0.55519  0.31330  0.75063  Biso   1.000  O
  C192     1.0000 0.66970  0.23900  0.96859  Biso   1.000  C
  H80      1.0000 0.66760  0.22280  0.94780  Biso   1.000  H
  O65      1.0000 0.75947  0.95112  0.79486  Biso   1.000  O
  O66      1.0000 0.94538  0.76280  0.79474  Biso   1.000  O
  C193     1.0000 0.79963  0.93609  0.78067  Biso   1.000  C
  C194     1.0000 0.92943  0.79881  0.77935  Biso   1.000  C
  C195     1.0000 0.88965  0.83002  0.79790  Biso   1.000  C
  C196     1.0000 0.87760  0.82005  0.83187  Biso   1.000  C
  H81      1.0000 0.89370  0.79470  0.84310  Biso   1.000  H
  C197     1.0000 0.84108  0.84859  0.84878  Biso   1.000  C
  C198     1.0000 0.86578  0.86786  0.78162  Biso   1.000  C
  H82      1.0000 0.87470  0.87490  0.75900  Biso   1.000  H
  C199     1.0000 0.82891  0.89532  0.79870  Biso   1.000  C
  C200     1.0000 0.81612  0.88584  0.83251  Biso   1.000  C
  H83      1.0000 0.79110  0.90430  0.84410  Biso   1.000  H
  C201     1.0000 0.83960  0.80250  0.90413  Biso   1.000  C
  H84      1.0000 0.85500  0.77410  0.89710  Biso   1.000  H
  C202     1.0000 0.82350  0.81396  0.93649  Biso   1.000  C
  C203     1.0000 0.82280  0.78650  0.96873  Biso   1.000  C
  N49      1.0000 0.82904  0.83990  0.88448  Biso   1.000  N
  N50      1.0000 0.80470  0.87236  0.90337  Biso   1.000  N
  N51      1.0000 0.80340  0.85650  0.93536  Biso   1.000  N
  O67      1.0000 0.82084  0.95030  0.75319  Biso   1.000  O
  O68      1.0000 0.94481  0.81330  0.75063  Biso   1.000  O
  C204     1.0000 0.83030  0.73900  0.96859  Biso   1.000  C
  H85      1.0000 0.83240  0.72280  0.94780  Biso   1.000  H
  O69      1.0000 0.75947  0.45112  0.29486  Biso   1.000  O
  O70      1.0000 0.94538  0.26280  0.29474  Biso   1.000  O
  C205     1.0000 0.79963  0.43609  0.28067  Biso   1.000  C
  C206     1.0000 0.92943  0.29881  0.27935  Biso   1.000  C
  C207     1.0000 0.88965  0.33002  0.29790  Biso   1.000  C
  C208     1.0000 0.87760  0.32005  0.33187  Biso   1.000  C
  H86      1.0000 0.89370  0.29470  0.34310  Biso   1.000  H
  C209     1.0000 0.84108  0.34859  0.34878  Biso   1.000  C
  C210     1.0000 0.86578  0.36786  0.28162  Biso   1.000  C
  H87      1.0000 0.87470  0.37490  0.25900  Biso   1.000  H
  C211     1.0000 0.82891  0.39532  0.29870  Biso   1.000  C
  C212     1.0000 0.81612  0.38584  0.33251  Biso   1.000  C
  H88      1.0000 0.79110  0.40430  0.34410  Biso   1.000  H
  C213     1.0000 0.83960  0.30250  0.40413  Biso   1.000  C
  H89      1.0000 0.85500  0.27410  0.39710  Biso   1.000  H
  C214     1.0000 0.82350  0.31396  0.43649  Biso   1.000  C
  C215     1.0000 0.82280  0.28650  0.46873  Biso   1.000  C
  N52      1.0000 0.82904  0.33990  0.38448  Biso   1.000  N
  N53      1.0000 0.80470  0.37236  0.40337  Biso   1.000  N
  N54      1.0000 0.80340  0.35650  0.43536  Biso   1.000  N
  O71      1.0000 0.82084  0.45030  0.25319  Biso   1.000  O
  O72      1.0000 0.94481  0.31330  0.25063  Biso   1.000  O
  C216     1.0000 0.83030  0.23900  0.46859  Biso   1.000  C
  H90      1.0000 0.83240  0.22280  0.44780  Biso   1.000  H
  O73      1.0000 0.25947  0.95112  0.29486  Biso   1.000  O
  O74      1.0000 0.44538  0.76280  0.29474  Biso   1.000  O
  C217     1.0000 0.29963  0.93609  0.28067  Biso   1.000  C
  C218     1.0000 0.42943  0.79881  0.27935  Biso   1.000  C
  C219     1.0000 0.38965  0.83002  0.29790  Biso   1.000  C
  C220     1.0000 0.37760  0.82005  0.33187  Biso   1.000  C
  H91      1.0000 0.39370  0.79470  0.34310  Biso   1.000  H
  C221     1.0000 0.34108  0.84859  0.34878  Biso   1.000  C
  C222     1.0000 0.36578  0.86786  0.28162  Biso   1.000  C
  H92      1.0000 0.37470  0.87490  0.25900  Biso   1.000  H
  C223     1.0000 0.32891  0.89532  0.29870  Biso   1.000  C
  C224     1.0000 0.31612  0.88584  0.33251  Biso   1.000  C
  H93      1.0000 0.29110  0.90430  0.34410  Biso   1.000  H
  C225     1.0000 0.33960  0.80250  0.40413  Biso   1.000  C
  H94      1.0000 0.35500  0.77410  0.39710  Biso   1.000  H
  C226     1.0000 0.32350  0.81396  0.43649  Biso   1.000  C
  C227     1.0000 0.32280  0.78650  0.46873  Biso   1.000  C
  N55      1.0000 0.32904  0.83990  0.38448  Biso   1.000  N
  N56      1.0000 0.30470  0.87236  0.40337  Biso   1.000  N
  N57      1.0000 0.30340  0.85650  0.43536  Biso   1.000  N
  O75      1.0000 0.32084  0.95030  0.25319  Biso   1.000  O
  O76      1.0000 0.44481  0.81330  0.25063  Biso   1.000  O
  C228     1.0000 0.33030  0.73900  0.46859  Biso   1.000  C
  H95      1.0000 0.33240  0.72280  0.44780  Biso   1.000  H
  O77      1.0000 0.25947  0.45112  0.79486  Biso   1.000  O
  O78      1.0000 0.44538  0.26280  0.79474  Biso   1.000  O
  C229     1.0000 0.29963  0.43609  0.78067  Biso   1.000  C
  C230     1.0000 0.42943  0.29881  0.77935  Biso   1.000  C
  C231     1.0000 0.38965  0.33002  0.79790  Biso   1.000  C
  C232     1.0000 0.37760  0.32005  0.83187  Biso   1.000  C
  H96      1.0000 0.39370  0.29470  0.84310  Biso   1.000  H
  C233     1.0000 0.34108  0.34859  0.84878  Biso   1.000  C
  C234     1.0000 0.36578  0.36786  0.78162  Biso   1.000  C
  H97      1.0000 0.37470  0.37490  0.75900  Biso   1.000  H
  C235     1.0000 0.32891  0.39532  0.79870  Biso   1.000  C
  C236     1.0000 0.31612  0.38584  0.83251  Biso   1.000  C
  H98      1.0000 0.29110  0.40430  0.84410  Biso   1.000  H
  C237     1.0000 0.33960  0.30250  0.90413  Biso   1.000  C
  H99      1.0000 0.35500  0.27410  0.89710  Biso   1.000  H
  C238     1.0000 0.32350  0.31396  0.93649  Biso   1.000  C
  C239     1.0000 0.32280  0.28650  0.96873  Biso   1.000  C
  N58      1.0000 0.32904  0.33990  0.88448  Biso   1.000  N
  N59      1.0000 0.30470  0.37236  0.90337  Biso   1.000  N
  N60      1.0000 0.30340  0.35650  0.93536  Biso   1.000  N
  O79      1.0000 0.32084  0.45030  0.75319  Biso   1.000  O
  O80      1.0000 0.44481  0.31330  0.75063  Biso   1.000  O
  C240     1.0000 0.33030  0.23900  0.96859  Biso   1.000  C
  H100     1.0000 0.33240  0.22280  0.94780  Biso   1.000  H
  O81      1.0000 0.24053  0.04888  0.79486  Biso   1.000  O
  O82      1.0000 0.05462  0.23720  0.79474  Biso   1.000  O
  C241     1.0000 0.20037  0.06391  0.78067  Biso   1.000  C
  C242     1.0000 0.07057  0.20119  0.77935  Biso   1.000  C
  C243     1.0000 0.11035  0.16998  0.79790  Biso   1.000  C
  C244     1.0000 0.12240  0.17995  0.83187  Biso   1.000  C
  H101     1.0000 0.10630  0.20530  0.84310  Biso   1.000  H
  C245     1.0000 0.15892  0.15141  0.84878  Biso   1.000  C
  C246     1.0000 0.13422  0.13214  0.78162  Biso   1.000  C
  H102     1.0000 0.12530  0.12510  0.75900  Biso   1.000  H
  C247     1.0000 0.17109  0.10468  0.79870  Biso   1.000  C
  C248     1.0000 0.18388  0.11416  0.83251  Biso   1.000  C
  H103     1.0000 0.20890  0.09570  0.84410  Biso   1.000  H
  C249     1.0000 0.16040  0.19750  0.90413  Biso   1.000  C
  H104     1.0000 0.14500  0.22590  0.89710  Biso   1.000  H
  C250     1.0000 0.17650  0.18604  0.93649  Biso   1.000  C
  C251     1.0000 0.17720  0.21350  0.96873  Biso   1.000  C
  N61      1.0000 0.17096  0.16010  0.88448  Biso   1.000  N
  N62      1.0000 0.19530  0.12764  0.90337  Biso   1.000  N
  N63      1.0000 0.19660  0.14350  0.93536  Biso   1.000  N
  O83      1.0000 0.17916  0.04970  0.75319  Biso   1.000  O
  O84      1.0000 0.05519  0.18670  0.75063  Biso   1.000  O
  C252     1.0000 0.16970  0.26100  0.96859  Biso   1.000  C
  H105     1.0000 0.16760  0.27720  0.94780  Biso   1.000  H
  O85      1.0000 0.24053  0.54888  0.29486  Biso   1.000  O
  O86      1.0000 0.05462  0.73720  0.29474  Biso   1.000  O
  C253     1.0000 0.20037  0.56391  0.28067  Biso   1.000  C
  C254     1.0000 0.07057  0.70119  0.27935  Biso   1.000  C
  C255     1.0000 0.11035  0.66998  0.29790  Biso   1.000  C
  C256     1.0000 0.12240  0.67995  0.33187  Biso   1.000  C
  H106     1.0000 0.10630  0.70530  0.34310  Biso   1.000  H
  C257     1.0000 0.15892  0.65141  0.34878  Biso   1.000  C
  C258     1.0000 0.13422  0.63214  0.28162  Biso   1.000  C
  H107     1.0000 0.12530  0.62510  0.25900  Biso   1.000  H
  C259     1.0000 0.17109  0.60468  0.29870  Biso   1.000  C
  C260     1.0000 0.18388  0.61416  0.33251  Biso   1.000  C
  H108     1.0000 0.20890  0.59570  0.34410  Biso   1.000  H
  C261     1.0000 0.16040  0.69750  0.40413  Biso   1.000  C
  H109     1.0000 0.14500  0.72590  0.39710  Biso   1.000  H
  C262     1.0000 0.17650  0.68604  0.43649  Biso   1.000  C
  C263     1.0000 0.17720  0.71350  0.46873  Biso   1.000  C
  N64      1.0000 0.17096  0.66010  0.38448  Biso   1.000  N
  N65      1.0000 0.19530  0.62764  0.40337  Biso   1.000  N
  N66      1.0000 0.19660  0.64350  0.43536  Biso   1.000  N
  O87      1.0000 0.17916  0.54970  0.25319  Biso   1.000  O
  O88      1.0000 0.05519  0.68670  0.25063  Biso   1.000  O
  C264     1.0000 0.16970  0.76100  0.46859  Biso   1.000  C
  H110     1.0000 0.16760  0.77720  0.44780  Biso   1.000  H
  O89      1.0000 0.74053  0.04888  0.29486  Biso   1.000  O
  O90      1.0000 0.55462  0.23720  0.29474  Biso   1.000  O
  C265     1.0000 0.70037  0.06391  0.28067  Biso   1.000  C
  C266     1.0000 0.57057  0.20119  0.27935  Biso   1.000  C
  C267     1.0000 0.61035  0.16998  0.29790  Biso   1.000  C
  C268     1.0000 0.62240  0.17995  0.33187  Biso   1.000  C
  H111     1.0000 0.60630  0.20530  0.34310  Biso   1.000  H
  C269     1.0000 0.65892  0.15141  0.34878  Biso   1.000  C
  C270     1.0000 0.63422  0.13214  0.28162  Biso   1.000  C
  H112     1.0000 0.62530  0.12510  0.25900  Biso   1.000  H
  C271     1.0000 0.67109  0.10468  0.29870  Biso   1.000  C
  C272     1.0000 0.68388  0.11416  0.33251  Biso   1.000  C
  H113     1.0000 0.70890  0.09570  0.34410  Biso   1.000  H
  C273     1.0000 0.66040  0.19750  0.40413  Biso   1.000  C
  H114     1.0000 0.64500  0.22590  0.39710  Biso   1.000  H
  C274     1.0000 0.67650  0.18604  0.43649  Biso   1.000  C
  C275     1.0000 0.67720  0.21350  0.46873  Biso   1.000  C
  N67      1.0000 0.67096  0.16010  0.38448  Biso   1.000  N
  N68      1.0000 0.69530  0.12764  0.40337  Biso   1.000  N
  N69      1.0000 0.69660  0.14350  0.43536  Biso   1.000  N
  O91      1.0000 0.67916  0.04970  0.25319  Biso   1.000  O
  O92      1.0000 0.55519  0.18670  0.25063  Biso   1.000  O
  C276     1.0000 0.66970  0.26100  0.46859  Biso   1.000  C
  H115     1.0000 0.66760  0.27720  0.44780  Biso   1.000  H
  O93      1.0000 0.74053  0.54888  0.79486  Biso   1.000  O
  O94      1.0000 0.55462  0.73720  0.79474  Biso   1.000  O
  C277     1.0000 0.70037  0.56391  0.78067  Biso   1.000  C
  C278     1.0000 0.57057  0.70119  0.77935  Biso   1.000  C
  C279     1.0000 0.61035  0.66998  0.79790  Biso   1.000  C
  C280     1.0000 0.62240  0.67995  0.83187  Biso   1.000  C
  H116     1.0000 0.60630  0.70530  0.84310  Biso   1.000  H
  C281     1.0000 0.65892  0.65141  0.84878  Biso   1.000  C
  C282     1.0000 0.63422  0.63214  0.78162  Biso   1.000  C
  H117     1.0000 0.62530  0.62510  0.75900  Biso   1.000  H
  C283     1.0000 0.67109  0.60468  0.79870  Biso   1.000  C
  C284     1.0000 0.68388  0.61416  0.83251  Biso   1.000  C
  H118     1.0000 0.70890  0.59570  0.84410  Biso   1.000  H
  C285     1.0000 0.66040  0.69750  0.90413  Biso   1.000  C
  H119     1.0000 0.64500  0.72590  0.89710  Biso   1.000  H
  C286     1.0000 0.67650  0.68604  0.93649  Biso   1.000  C
  C287     1.0000 0.67720  0.71350  0.96873  Biso   1.000  C
  N70      1.0000 0.67096  0.66010  0.88448  Biso   1.000  N
  N71      1.0000 0.69530  0.62764  0.90337  Biso   1.000  N
  N72      1.0000 0.69660  0.64350  0.93536  Biso   1.000  N
  O95      1.0000 0.67916  0.54970  0.75319  Biso   1.000  O
  O96      1.0000 0.55519  0.68670  0.75063  Biso   1.000  O
  C288     1.0000 0.66970  0.76100  0.96859  Biso   1.000  C
  H120     1.0000 0.66760  0.77720  0.94780  Biso   1.000  H
  O97      1.0000 0.24053  0.95112  0.20514  Biso   1.000  O
  O98      1.0000 0.05462  0.76280  0.20526  Biso   1.000  O
  C289     1.0000 0.20037  0.93609  0.21933  Biso   1.000  C
  C290     1.0000 0.07057  0.79881  0.22065  Biso   1.000  C
  C291     1.0000 0.11035  0.83002  0.20210  Biso   1.000  C
  C292     1.0000 0.12240  0.82005  0.16813  Biso   1.000  C
  H121     1.0000 0.10630  0.79470  0.15690  Biso   1.000  H
  C293     1.0000 0.15892  0.84859  0.15122  Biso   1.000  C
  C294     1.0000 0.13422  0.86786  0.21838  Biso   1.000  C
  H122     1.0000 0.12530  0.87490  0.24100  Biso   1.000  H
  C295     1.0000 0.17109  0.89532  0.20130  Biso   1.000  C
  C296     1.0000 0.18388  0.88584  0.16749  Biso   1.000  C
  H123     1.0000 0.20890  0.90430  0.15590  Biso   1.000  H
  C297     1.0000 0.16040  0.80250  0.09587  Biso   1.000  C
  H124     1.0000 0.14500  0.77410  0.10290  Biso   1.000  H
  C298     1.0000 0.17650  0.81396  0.06351  Biso   1.000  C
  C299     1.0000 0.17720  0.78650  0.03127  Biso   1.000  C
  N73      1.0000 0.17096  0.83990  0.11552  Biso   1.000  N
  N74      1.0000 0.19530  0.87236  0.09663  Biso   1.000  N
  N75      1.0000 0.19660  0.85650  0.06464  Biso   1.000  N
  O99      1.0000 0.17916  0.95030  0.24681  Biso   1.000  O
  O100     1.0000 0.05519  0.81330  0.24937  Biso   1.000  O
  C300     1.0000 0.16970  0.73900  0.03141  Biso   1.000  C
  H125     1.0000 0.16760  0.72280  0.05220  Biso   1.000  H
  O101     1.0000 0.24053  0.45112  0.70514  Biso   1.000  O
  O102     1.0000 0.05462  0.26280  0.70526  Biso   1.000  O
  C301     1.0000 0.20037  0.43609  0.71933  Biso   1.000  C
  C302     1.0000 0.07057  0.29881  0.72065  Biso   1.000  C
  C303     1.0000 0.11035  0.33002  0.70210  Biso   1.000  C
  C304     1.0000 0.12240  0.32005  0.66813  Biso   1.000  C
  H126     1.0000 0.10630  0.29470  0.65690  Biso   1.000  H
  C305     1.0000 0.15892  0.34859  0.65122  Biso   1.000  C
  C306     1.0000 0.13422  0.36786  0.71838  Biso   1.000  C
  H127     1.0000 0.12530  0.37490  0.74100  Biso   1.000  H
  C307     1.0000 0.17109  0.39532  0.70130  Biso   1.000  C
  C308     1.0000 0.18388  0.38584  0.66749  Biso   1.000  C
  H128     1.0000 0.20890  0.40430  0.65590  Biso   1.000  H
  C309     1.0000 0.16040  0.30250  0.59587  Biso   1.000  C
  H129     1.0000 0.14500  0.27410  0.60290  Biso   1.000  H
  C310     1.0000 0.17650  0.31396  0.56351  Biso   1.000  C
  C311     1.0000 0.17720  0.28650  0.53127  Biso   1.000  C
  N76      1.0000 0.17096  0.33990  0.61552  Biso   1.000  N
  N77      1.0000 0.19530  0.37236  0.59663  Biso   1.000  N
  N78      1.0000 0.19660  0.35650  0.56464  Biso   1.000  N
  O103     1.0000 0.17916  0.45030  0.74681  Biso   1.000  O
  O104     1.0000 0.05519  0.31330  0.74937  Biso   1.000  O
  C312     1.0000 0.16970  0.23900  0.53141  Biso   1.000  C
  H130     1.0000 0.16760  0.22280  0.55220  Biso   1.000  H
  O105     1.0000 0.74053  0.95112  0.70514  Biso   1.000  O
  O106     1.0000 0.55462  0.76280  0.70526  Biso   1.000  O
  C313     1.0000 0.70037  0.93609  0.71933  Biso   1.000  C
  C314     1.0000 0.57057  0.79881  0.72065  Biso   1.000  C
  C315     1.0000 0.61035  0.83002  0.70210  Biso   1.000  C
  C316     1.0000 0.62240  0.82005  0.66813  Biso   1.000  C
  H131     1.0000 0.60630  0.79470  0.65690  Biso   1.000  H
  C317     1.0000 0.65892  0.84859  0.65122  Biso   1.000  C
  C318     1.0000 0.63422  0.86786  0.71838  Biso   1.000  C
  H132     1.0000 0.62530  0.87490  0.74100  Biso   1.000  H
  C319     1.0000 0.67109  0.89532  0.70130  Biso   1.000  C
  C320     1.0000 0.68388  0.88584  0.66749  Biso   1.000  C
  H133     1.0000 0.70890  0.90430  0.65590  Biso   1.000  H
  C321     1.0000 0.66040  0.80250  0.59587  Biso   1.000  C
  H134     1.0000 0.64500  0.77410  0.60290  Biso   1.000  H
  C322     1.0000 0.67650  0.81396  0.56351  Biso   1.000  C
  C323     1.0000 0.67720  0.78650  0.53127  Biso   1.000  C
  N79      1.0000 0.67096  0.83990  0.61552  Biso   1.000  N
  N80      1.0000 0.69530  0.87236  0.59663  Biso   1.000  N
  N81      1.0000 0.69660  0.85650  0.56464  Biso   1.000  N
  O107     1.0000 0.67916  0.95030  0.74681  Biso   1.000  O
  O108     1.0000 0.55519  0.81330  0.74937  Biso   1.000  O
  C324     1.0000 0.66970  0.73900  0.53141  Biso   1.000  C
  H135     1.0000 0.66760  0.72280  0.55220  Biso   1.000  H
  O109     1.0000 0.74053  0.45112  0.20514  Biso   1.000  O
  O110     1.0000 0.55462  0.26280  0.20526  Biso   1.000  O
  C325     1.0000 0.70037  0.43609  0.21933  Biso   1.000  C
  C326     1.0000 0.57057  0.29881  0.22065  Biso   1.000  C
  C327     1.0000 0.61035  0.33002  0.20210  Biso   1.000  C
  C328     1.0000 0.62240  0.32005  0.16813  Biso   1.000  C
  H136     1.0000 0.60630  0.29470  0.15690  Biso   1.000  H
  C329     1.0000 0.65892  0.34859  0.15122  Biso   1.000  C
  C330     1.0000 0.63422  0.36786  0.21838  Biso   1.000  C
  H137     1.0000 0.62530  0.37490  0.24100  Biso   1.000  H
  C331     1.0000 0.67109  0.39532  0.20130  Biso   1.000  C
  C332     1.0000 0.68388  0.38584  0.16749  Biso   1.000  C
  H138     1.0000 0.70890  0.40430  0.15590  Biso   1.000  H
  C333     1.0000 0.66040  0.30250  0.09587  Biso   1.000  C
  H139     1.0000 0.64500  0.27410  0.10290  Biso   1.000  H
  C334     1.0000 0.67650  0.31396  0.06351  Biso   1.000  C
  C335     1.0000 0.67720  0.28650  0.03127  Biso   1.000  C
  N82      1.0000 0.67096  0.33990  0.11552  Biso   1.000  N
  N83      1.0000 0.69530  0.37236  0.09663  Biso   1.000  N
  N84      1.0000 0.69660  0.35650  0.06464  Biso   1.000  N
  O111     1.0000 0.67916  0.45030  0.24681  Biso   1.000  O
  O112     1.0000 0.55519  0.31330  0.24937  Biso   1.000  O
  C336     1.0000 0.66970  0.23900  0.03141  Biso   1.000  C
  H140     1.0000 0.66760  0.22280  0.05220  Biso   1.000  H
  O113     1.0000 0.75947  0.04888  0.20514  Biso   1.000  O
  O114     1.0000 0.94538  0.23720  0.20526  Biso   1.000  O
  C337     1.0000 0.79963  0.06391  0.21933  Biso   1.000  C
  C338     1.0000 0.92943  0.20119  0.22065  Biso   1.000  C
  C339     1.0000 0.88965  0.16998  0.20210  Biso   1.000  C
  C340     1.0000 0.87760  0.17995  0.16813  Biso   1.000  C
  H141     1.0000 0.89370  0.20530  0.15690  Biso   1.000  H
  C341     1.0000 0.84108  0.15141  0.15122  Biso   1.000  C
  C342     1.0000 0.86578  0.13214  0.21838  Biso   1.000  C
  H142     1.0000 0.87470  0.12510  0.24100  Biso   1.000  H
  C343     1.0000 0.82891  0.10468  0.20130  Biso   1.000  C
  C344     1.0000 0.81612  0.11416  0.16749  Biso   1.000  C
  H143     1.0000 0.79110  0.09570  0.15590  Biso   1.000  H
  C345     1.0000 0.83960  0.19750  0.09587  Biso   1.000  C
  H144     1.0000 0.85500  0.22590  0.10290  Biso   1.000  H
  C346     1.0000 0.82350  0.18604  0.06351  Biso   1.000  C
  C347     1.0000 0.82280  0.21350  0.03127  Biso   1.000  C
  N85      1.0000 0.82904  0.16010  0.11552  Biso   1.000  N
  N86      1.0000 0.80470  0.12764  0.09663  Biso   1.000  N
  N87      1.0000 0.80340  0.14350  0.06464  Biso   1.000  N
  O115     1.0000 0.82084  0.04970  0.24681  Biso   1.000  O
  O116     1.0000 0.94481  0.18670  0.24937  Biso   1.000  O
  C348     1.0000 0.83030  0.26100  0.03141  Biso   1.000  C
  H145     1.0000 0.83240  0.27720  0.05220  Biso   1.000  H
  O117     1.0000 0.75947  0.54888  0.70514  Biso   1.000  O
  O118     1.0000 0.94538  0.73720  0.70526  Biso   1.000  O
  C349     1.0000 0.79963  0.56391  0.71933  Biso   1.000  C
  C350     1.0000 0.92943  0.70119  0.72065  Biso   1.000  C
  C351     1.0000 0.88965  0.66998  0.70210  Biso   1.000  C
  C352     1.0000 0.87760  0.67995  0.66813  Biso   1.000  C
  H146     1.0000 0.89370  0.70530  0.65690  Biso   1.000  H
  C353     1.0000 0.84108  0.65141  0.65122  Biso   1.000  C
  C354     1.0000 0.86578  0.63214  0.71838  Biso   1.000  C
  H147     1.0000 0.87470  0.62510  0.74100  Biso   1.000  H
  C355     1.0000 0.82891  0.60468  0.70130  Biso   1.000  C
  C356     1.0000 0.81612  0.61416  0.66749  Biso   1.000  C
  H148     1.0000 0.79110  0.59570  0.65590  Biso   1.000  H
  C357     1.0000 0.83960  0.69750  0.59587  Biso   1.000  C
  H149     1.0000 0.85500  0.72590  0.60290  Biso   1.000  H
  C358     1.0000 0.82350  0.68604  0.56351  Biso   1.000  C
  C359     1.0000 0.82280  0.71350  0.53127  Biso   1.000  C
  N88      1.0000 0.82904  0.66010  0.61552  Biso   1.000  N
  N89      1.0000 0.80470  0.62764  0.59663  Biso   1.000  N
  N90      1.0000 0.80340  0.64350  0.56464  Biso   1.000  N
  O119     1.0000 0.82084  0.54970  0.74681  Biso   1.000  O
  O120     1.0000 0.94481  0.68670  0.74937  Biso   1.000  O
  C360     1.0000 0.83030  0.76100  0.53141  Biso   1.000  C
  H150     1.0000 0.83240  0.77720  0.55220  Biso   1.000  H
  O121     1.0000 0.25947  0.04888  0.70514  Biso   1.000  O
  O122     1.0000 0.44538  0.23720  0.70526  Biso   1.000  O
  C361     1.0000 0.29963  0.06391  0.71933  Biso   1.000  C
  C362     1.0000 0.42943  0.20119  0.72065  Biso   1.000  C
  C363     1.0000 0.38965  0.16998  0.70210  Biso   1.000  C
  C364     1.0000 0.37760  0.17995  0.66813  Biso   1.000  C
  H151     1.0000 0.39370  0.20530  0.65690  Biso   1.000  H
  C365     1.0000 0.34108  0.15141  0.65122  Biso   1.000  C
  C366     1.0000 0.36578  0.13214  0.71838  Biso   1.000  C
  H152     1.0000 0.37470  0.12510  0.74100  Biso   1.000  H
  C367     1.0000 0.32891  0.10468  0.70130  Biso   1.000  C
  C368     1.0000 0.31612  0.11416  0.66749  Biso   1.000  C
  H153     1.0000 0.29110  0.09570  0.65590  Biso   1.000  H
  C369     1.0000 0.33960  0.19750  0.59587  Biso   1.000  C
  H154     1.0000 0.35500  0.22590  0.60290  Biso   1.000  H
  C370     1.0000 0.32350  0.18604  0.56351  Biso   1.000  C
  C371     1.0000 0.32280  0.21350  0.53127  Biso   1.000  C
  N91      1.0000 0.32904  0.16010  0.61552  Biso   1.000  N
  N92      1.0000 0.30470  0.12764  0.59663  Biso   1.000  N
  N93      1.0000 0.30340  0.14350  0.56464  Biso   1.000  N
  O123     1.0000 0.32084  0.04970  0.74681  Biso   1.000  O
  O124     1.0000 0.44481  0.18670  0.74937  Biso   1.000  O
  C372     1.0000 0.33030  0.26100  0.53141  Biso   1.000  C
  H155     1.0000 0.33240  0.27720  0.55220  Biso   1.000  H
  O125     1.0000 0.25947  0.54888  0.20514  Biso   1.000  O
  O126     1.0000 0.44538  0.73720  0.20526  Biso   1.000  O
  C373     1.0000 0.29963  0.56391  0.21933  Biso   1.000  C
  C374     1.0000 0.42943  0.70119  0.22065  Biso   1.000  C
  C375     1.0000 0.38965  0.66998  0.20210  Biso   1.000  C
  C376     1.0000 0.37760  0.67995  0.16813  Biso   1.000  C
  H156     1.0000 0.39370  0.70530  0.15690  Biso   1.000  H
  C377     1.0000 0.34108  0.65141  0.15122  Biso   1.000  C
  C378     1.0000 0.36578  0.63214  0.21838  Biso   1.000  C
  H157     1.0000 0.37470  0.62510  0.24100  Biso   1.000  H
  C379     1.0000 0.32891  0.60468  0.20130  Biso   1.000  C
  C380     1.0000 0.31612  0.61416  0.16749  Biso   1.000  C
  H158     1.0000 0.29110  0.59570  0.15590  Biso   1.000  H
  C381     1.0000 0.33960  0.69750  0.09587  Biso   1.000  C
  H159     1.0000 0.35500  0.72590  0.10290  Biso   1.000  H
  C382     1.0000 0.32350  0.68604  0.06351  Biso   1.000  C
  C383     1.0000 0.32280  0.71350  0.03127  Biso   1.000  C
  N94      1.0000 0.32904  0.66010  0.11552  Biso   1.000  N
  N95      1.0000 0.30470  0.62764  0.09663  Biso   1.000  N
  N96      1.0000 0.30340  0.64350  0.06464  Biso   1.000  N
  O127     1.0000 0.32084  0.54970  0.24681  Biso   1.000  O
  O128     1.0000 0.44481  0.68670  0.24937  Biso   1.000  O
  C384     1.0000 0.33030  0.76100  0.03141  Biso   1.000  C
  H160     1.0000 0.33240  0.77720  0.05220  Biso   1.000  H
  Cu1      1.0000 0.00000  0.27981  0.22391  Biso   1.000  Cu
  Cu2      1.0000 0.00000  0.77981  0.72391  Biso   1.000  Cu
  Cu3      1.0000 0.50000  0.27981  0.72391  Biso   1.000  Cu
  Cu4      1.0000 0.50000  0.77981  0.22391  Biso   1.000  Cu
  Cu5      1.0000 0.00000  0.72019  0.22391  Biso   1.000  Cu
  Cu6      1.0000 0.00000  0.22019  0.72391  Biso   1.000  Cu
  Cu7      1.0000 0.50000  0.72019  0.72391  Biso   1.000  Cu
  Cu8      1.0000 0.50000  0.22019  0.22391  Biso   1.000  Cu
  Cu9      1.0000 0.00000  0.27981  0.77609  Biso   1.000  Cu
  Cu10     1.0000 0.00000  0.77981  0.27609  Biso   1.000  Cu
  Cu11     1.0000 0.50000  0.27981  0.27609  Biso   1.000  Cu
  Cu12     1.0000 0.50000  0.77981  0.77609  Biso   1.000  Cu
  Cu13     1.0000 0.00000  0.72019  0.77609  Biso   1.000  Cu
  Cu14     1.0000 0.00000  0.22019  0.27609  Biso   1.000  Cu
  Cu15     1.0000 0.50000  0.72019  0.27609  Biso   1.000  Cu
  Cu16     1.0000 0.50000  0.22019  0.77609  Biso   1.000  Cu
  Cu17     1.0000 0.28657  0.00000  0.22531  Biso   1.000  Cu
  Cu18     1.0000 0.28657  0.50000  0.72531  Biso   1.000  Cu
  Cu19     1.0000 0.78657  0.00000  0.72531  Biso   1.000  Cu
  Cu20     1.0000 0.78657  0.50000  0.22531  Biso   1.000  Cu
  Cu21     1.0000 0.71343  0.00000  0.22531  Biso   1.000  Cu
  Cu22     1.0000 0.71343  0.50000  0.72531  Biso   1.000  Cu
  Cu23     1.0000 0.21343  0.00000  0.72531  Biso   1.000  Cu
  Cu24     1.0000 0.21343  0.50000  0.22531  Biso   1.000  Cu
  Cu25     1.0000 0.71343  0.00000  0.77469  Biso   1.000  Cu
  Cu26     1.0000 0.71343  0.50000  0.27469  Biso   1.000  Cu
  Cu27     1.0000 0.21343  0.00000  0.27469  Biso   1.000  Cu
  Cu28     1.0000 0.21343  0.50000  0.77469  Biso   1.000  Cu
  Cu29     1.0000 0.28657  0.00000  0.77469  Biso   1.000  Cu
  Cu30     1.0000 0.28657  0.50000  0.27469  Biso   1.000  Cu
  Cu31     1.0000 0.78657  0.00000  0.27469  Biso   1.000  Cu
  Cu32     1.0000 0.78657  0.50000  0.77469  Biso   1.000  Cu
  C385     1.0000 0.18060  0.18770  0.00000  Biso   1.000  C
  H161     1.0000 0.18490  0.15500  0.00000  Biso   1.000  H
  C386     1.0000 0.16510  0.28620  0.00000  Biso   1.000  C
  H162     1.0000 0.15910  0.31870  0.00000  Biso   1.000  H
  C387     1.0000 0.18060  0.68770  0.50000  Biso   1.000  C
  H163     1.0000 0.18490  0.65500  0.50000  Biso   1.000  H
  C388     1.0000 0.16510  0.78620  0.50000  Biso   1.000  C
  H164     1.0000 0.15910  0.81870  0.50000  Biso   1.000  H
  C389     1.0000 0.68060  0.18770  0.50000  Biso   1.000  C
  H165     1.0000 0.68490  0.15500  0.50000  Biso   1.000  H
  C390     1.0000 0.66510  0.28620  0.50000  Biso   1.000  C
  H166     1.0000 0.65910  0.31870  0.50000  Biso   1.000  H
  C391     1.0000 0.68060  0.68770  0.00000  Biso   1.000  C
  H167     1.0000 0.68490  0.65500  0.00000  Biso   1.000  H
  C392     1.0000 0.66510  0.78620  0.00000  Biso   1.000  C
  H168     1.0000 0.65910  0.81870  0.00000  Biso   1.000  H
  C393     1.0000 0.81940  0.81230  0.00000  Biso   1.000  C
  H169     1.0000 0.81510  0.84500  0.00000  Biso   1.000  H
  C394     1.0000 0.83490  0.71380  0.00000  Biso   1.000  C
  H170     1.0000 0.84090  0.68130  0.00000  Biso   1.000  H
  C395     1.0000 0.81940  0.31230  0.50000  Biso   1.000  C
  H171     1.0000 0.81510  0.34500  0.50000  Biso   1.000  H
  C396     1.0000 0.83490  0.21380  0.50000  Biso   1.000  C
  H172     1.0000 0.84090  0.18130  0.50000  Biso   1.000  H
  C397     1.0000 0.31940  0.81230  0.50000  Biso   1.000  C
  H173     1.0000 0.31510  0.84500  0.50000  Biso   1.000  H
  C398     1.0000 0.33490  0.71380  0.50000  Biso   1.000  C
  H174     1.0000 0.34090  0.68130  0.50000  Biso   1.000  H
  C399     1.0000 0.31940  0.31230  0.00000  Biso   1.000  C
  H175     1.0000 0.31510  0.34500  0.00000  Biso   1.000  H
  C400     1.0000 0.33490  0.21380  0.00000  Biso   1.000  C
  H176     1.0000 0.34090  0.18130  0.00000  Biso   1.000  H
  C401     1.0000 0.81940  0.18770  0.00000  Biso   1.000  C
  H177     1.0000 0.81510  0.15500  0.00000  Biso   1.000  H
  C402     1.0000 0.83490  0.28620  0.00000  Biso   1.000  C
  H178     1.0000 0.84090  0.31870  0.00000  Biso   1.000  H
  C403     1.0000 0.81940  0.68770  0.50000  Biso   1.000  C
  H179     1.0000 0.81510  0.65500  0.50000  Biso   1.000  H
  C404     1.0000 0.83490  0.78620  0.50000  Biso   1.000  C
  H180     1.0000 0.84090  0.81870  0.50000  Biso   1.000  H
  C405     1.0000 0.31940  0.18770  0.50000  Biso   1.000  C
  H181     1.0000 0.31510  0.15500  0.50000  Biso   1.000  H
  C406     1.0000 0.33490  0.28620  0.50000  Biso   1.000  C
  H182     1.0000 0.34090  0.31870  0.50000  Biso   1.000  H
  C407     1.0000 0.31940  0.68770  0.00000  Biso   1.000  C
  H183     1.0000 0.31510  0.65500  0.00000  Biso   1.000  H
  C408     1.0000 0.33490  0.78620  0.00000  Biso   1.000  C
  H184     1.0000 0.34090  0.81870  0.00000  Biso   1.000  H
  C409     1.0000 0.18060  0.81230  0.00000  Biso   1.000  C
  H185     1.0000 0.18490  0.84500  0.00000  Biso   1.000  H
  C410     1.0000 0.16510  0.71380  0.00000  Biso   1.000  C
  H186     1.0000 0.15910  0.68130  0.00000  Biso   1.000  H
  C411     1.0000 0.18060  0.31230  0.50000  Biso   1.000  C
  H187     1.0000 0.18490  0.34500  0.50000  Biso   1.000  H
  C412     1.0000 0.16510  0.21380  0.50000  Biso   1.000  C
  H188     1.0000 0.15910  0.18130  0.50000  Biso   1.000  H
  C413     1.0000 0.68060  0.81230  0.50000  Biso   1.000  C
  H189     1.0000 0.68490  0.84500  0.50000  Biso   1.000  H
  C414     1.0000 0.66510  0.71380  0.50000  Biso   1.000  C
  H190     1.0000 0.65910  0.68130  0.50000  Biso   1.000  H
  C415     1.0000 0.68060  0.31230  0.00000  Biso   1.000  C
  H191     1.0000 0.68490  0.34500  0.00000  Biso   1.000  H
  C416     1.0000 0.66510  0.21380  0.00000  Biso   1.000  C
  H192     1.0000 0.65910  0.18130  0.00000  Biso   1.000  H
