data_image0
_cell_length_a       39.074
_cell_length_b       9.9645
_cell_length_c       38.846
_cell_angle_alpha    90
_cell_angle_beta     136.438
_cell_angle_gamma    90

_symmetry_space_group_name_H-M    "P 1"
_symmetry_int_tables_number       1

loop_
  _symmetry_equiv_pos_as_xyz
  'x, y, z'

loop_
  _atom_site_label
  _atom_site_occupancy
  _atom_site_fract_x
  _atom_site_fract_y
  _atom_site_fract_z
  _atom_site_thermal_displace_type
  _atom_site_B_iso_or_equiv
  _atom_site_type_symbol
  C1       1.0000 0.36510  0.22740  0.09000  Biso   1.000  C
  N1       1.0000 0.22210  0.34600  0.04720  Biso   1.000  N
  H1       1.0000 0.19280  0.33940  0.01720  Biso   1.000  H
  Zn1      1.0000 0.32502  0.31988  0.13035  Biso   1.000  Zn
  O1       1.0000 0.32580  0.24090  0.04430  Biso   1.000  O
  N2       1.0000 0.05700  0.33680  0.04720  Biso   1.000  N
  H2       1.0000 0.05920  0.36720  0.06940  Biso   1.000  H
  H3       1.0000 0.02920  0.30570  0.01950  Biso   1.000  H
  C2       1.0000 0.41110  0.18700  0.10400  Biso   1.000  C
  H4       1.0000 0.40650  0.09910  0.09110  Biso   1.000  H
  H5       1.0000 0.43900  0.18620  0.13970  Biso   1.000  H
  H6       1.0000 0.41710  0.25010  0.09020  Biso   1.000  H
  Zn2      1.0000 0.38484  0.20435  0.25416  Biso   1.000  Zn
  N3       1.0000 0.39700  0.44430  0.22320  Biso   1.000  N
  H7       1.0000 0.41780  0.46120  0.25460  Biso   1.000  H
  O2       1.0000 0.36930  0.24430  0.12490  Biso   1.000  O
  Zn3      1.0000 0.44640  0.08808  0.37755  Biso   1.000  Zn
  O3       1.0000 0.26284  0.34370  0.05550  Biso   1.000  O
  N4       1.0000 0.44190  0.07410  0.26920  Biso   1.000  N
  H8       1.0000 0.43280  0.14120  0.25020  Biso   1.000  H
  H9       1.0000 0.45880  0.08720  0.30000  Biso   1.000  H
  O4       1.0000 0.27010  0.37410  0.12830  Biso   1.000  O
  N5       1.0000 0.36840  0.96610  0.28300  Biso   1.000  N
  H10      1.0000 0.34540  0.95360  0.25120  Biso   1.000  H
  C3       1.0000 0.22750  0.35790  0.08430  Biso   1.000  C
  O5       1.0000 0.38050  0.31580  0.20650  Biso   1.000  O
  C4       1.0000 0.18200  0.35220  0.07320  Biso   1.000  C
  N6       1.0000 0.32680  0.33410  0.23750  Biso   1.000  N
  H11      1.0000 0.30890  0.31910  0.20650  Biso   1.000  H
  H12      1.0000 0.33830  0.26810  0.25770  Biso   1.000  H
  O6       1.0000 0.35310  0.51760  0.14670  Biso   1.000  O
  N7       1.0000 0.53260  0.93990  0.45460  Biso   1.000  N
  H13      1.0000 0.55300  0.88950  0.48050  Biso   1.000  H
  C5       1.0000 0.13730  0.29810  0.02910  Biso   1.000  C
  H14      1.0000 0.13520  0.26520  0.00520  Biso   1.000  H
  O7       1.0000 0.30210  0.11740  0.12630  Biso   1.000  O
  C6       1.0000 0.09890  0.33790  0.05610  Biso   1.000  C
  N8       1.0000 0.64440  0.54490  0.43060  Biso   1.000  N
  H15      1.0000 0.63980  0.53350  0.40550  Biso   1.000  H
  H16      1.0000 0.66520  0.49500  0.45660  Biso   1.000  H
  O8       1.0000 0.32270  0.08140  0.19520  Biso   1.000  O
  C7       1.0000 0.14310  0.38750  0.10030  Biso   1.000  C
  H17      1.0000 0.14550  0.41770  0.12460  Biso   1.000  H
  O9       1.0000 0.44470  0.32900  0.31280  Biso   1.000  O
  C8       1.0000 0.18420  0.39300  0.10890  Biso   1.000  C
  H18      1.0000 0.21410  0.42490  0.13940  Biso   1.000  H
  O10      1.0000 0.46940  0.28030  0.38390  Biso   1.000  O
  C9       1.0000 0.38180  0.54140  0.19230  Biso   1.000  C
  O11      1.0000 0.38959  0.09050  0.30180  Biso   1.000  O
  C10      1.0000 0.40060  0.67870  0.21370  Biso   1.000  C
  O12      1.0000 0.41410  0.88640  0.36010  Biso   1.000  O
  C11      1.0000 0.42770  0.70730  0.26220  Biso   1.000  C
  H19      1.0000 0.43720  0.63720  0.28360  Biso   1.000  H
  O13      1.0000 0.50175  0.02530  0.44960  Biso   1.000  O
  C12      1.0000 0.44140  0.83640  0.28070  Biso   1.000  C
  H20      1.0000 0.45880  0.85290  0.31360  Biso   1.000  H
  O14      1.0000 0.50130  0.00850  0.38230  Biso   1.000  O
  C13      1.0000 0.42900  0.94190  0.24980  Biso   1.000  C
  O15      1.0000 0.40210  0.16200  0.38470  Biso   1.000  O
  C14      1.0000 0.40240  0.91550  0.20150  Biso   1.000  C
  H21      1.0000 0.39370  0.98550  0.18050  Biso   1.000  H
  O16      1.0000 0.44420  0.14960  0.46460  Biso   1.000  O
  C15      1.0000 0.38780  0.78340  0.18280  Biso   1.000  C
  H22      1.0000 0.36960  0.76660  0.14960  Biso   1.000  H
  C16      1.0000 0.29520  0.06660  0.15000  Biso   1.000  C
  C17      1.0000 0.25100  0.97840  0.12310  Biso   1.000  C
  H23      1.0000 0.24590  0.96460  0.14360  Biso   1.000  H
  H24      1.0000 0.25650  0.89350  0.11610  Biso   1.000  H
  H25      1.0000 0.22210  0.02030  0.09230  Biso   1.000  H
  C18      1.0000 0.47050  0.34970  0.35810  Biso   1.000  C
  C19      1.0000 0.50420  0.46930  0.38240  Biso   1.000  C
  H26      1.0000 0.48870  0.54200  0.38320  Biso   1.000  H
  H27      1.0000 0.51060  0.49580  0.36370  Biso   1.000  H
  H28      1.0000 0.53500  0.44660  0.41590  Biso   1.000  H
  C20      1.0000 0.38270  0.86650  0.31290  Biso   1.000  C
  C21      1.0000 0.36310  0.73120  0.29140  Biso   1.000  C
  C22      1.0000 0.33200  0.70480  0.24170  Biso   1.000  C
  H29      1.0000 0.31900  0.77590  0.21960  Biso   1.000  H
  C23      1.0000 0.31930  0.57450  0.22340  Biso   1.000  C
  H30      1.0000 0.29850  0.55920  0.18960  Biso   1.000  H
  C24      1.0000 0.33750  0.46790  0.25530  Biso   1.000  C
  C25      1.0000 0.36630  0.49310  0.30490  Biso   1.000  C
  H31      1.0000 0.37730  0.42240  0.32650  Biso   1.000  H
  C26      1.0000 0.37900  0.62370  0.32250  Biso   1.000  C
  H32      1.0000 0.39870  0.63950  0.35610  Biso   1.000  H
  C27      1.0000 0.53090  0.93550  0.41890  Biso   1.000  C
  C28      1.0000 0.56390  0.83720  0.42550  Biso   1.000  C
  C29      1.0000 0.56020  0.82090  0.38790  Biso   1.000  C
  H33      1.0000 0.53950  0.87850  0.36060  Biso   1.000  H
  C30      1.0000 0.58560  0.72310  0.38870  Biso   1.000  C
  H34      1.0000 0.58010  0.71210  0.36120  Biso   1.000  H
  C31      1.0000 0.61860  0.64270  0.42910  Biso   1.000  C
  C32      1.0000 0.62400  0.65570  0.46940  Biso   1.000  C
  H35      1.0000 0.64580  0.60040  0.49730  Biso   1.000  H
  C33      1.0000 0.59640  0.75210  0.46630  Biso   1.000  C
  H36      1.0000 0.59960  0.76010  0.49240  Biso   1.000  H
  C34      1.0000 0.40860  0.18840  0.42000  Biso   1.000  C
  C35      1.0000 0.37070  0.27860  0.41080  Biso   1.000  C
  H37      1.0000 0.38760  0.35210  0.43390  Biso   1.000  H
  H38      1.0000 0.35340  0.22730  0.41540  Biso   1.000  H
  H39      1.0000 0.34720  0.31270  0.37720  Biso   1.000  H
  C36      1.0000 0.09610  0.29220  0.02010  Biso   1.000  C
  H40      1.0000 0.06630  0.25790  0.99000  Biso   1.000  H
  C37      1.0000 0.86510  0.72740  0.09000  Biso   1.000  C
  N9       1.0000 0.72210  0.84600  0.04720  Biso   1.000  N
  H41      1.0000 0.69280  0.83940  0.01720  Biso   1.000  H
  Zn4      1.0000 0.82502  0.81988  0.13035  Biso   1.000  Zn
  O17      1.0000 0.82580  0.74090  0.04430  Biso   1.000  O
  N10      1.0000 0.55700  0.83680  0.04720  Biso   1.000  N
  H42      1.0000 0.55920  0.86720  0.06940  Biso   1.000  H
  H43      1.0000 0.52920  0.80570  0.01950  Biso   1.000  H
  C38      1.0000 0.91110  0.68700  0.10400  Biso   1.000  C
  H44      1.0000 0.90650  0.59910  0.09110  Biso   1.000  H
  H45      1.0000 0.93900  0.68620  0.13970  Biso   1.000  H
  H46      1.0000 0.91710  0.75010  0.09020  Biso   1.000  H
  Zn5      1.0000 0.88484  0.70435  0.25416  Biso   1.000  Zn
  N11      1.0000 0.89700  0.94430  0.22320  Biso   1.000  N
  H47      1.0000 0.91780  0.96120  0.25460  Biso   1.000  H
  O18      1.0000 0.86930  0.74430  0.12490  Biso   1.000  O
  Zn6      1.0000 0.94640  0.58808  0.37755  Biso   1.000  Zn
  O19      1.0000 0.76284  0.84370  0.05550  Biso   1.000  O
  N12      1.0000 0.94190  0.57410  0.26920  Biso   1.000  N
  H48      1.0000 0.93280  0.64120  0.25020  Biso   1.000  H
  H49      1.0000 0.95880  0.58720  0.30000  Biso   1.000  H
  O20      1.0000 0.77010  0.87410  0.12830  Biso   1.000  O
  N13      1.0000 0.86840  0.46610  0.28300  Biso   1.000  N
  H50      1.0000 0.84540  0.45360  0.25120  Biso   1.000  H
  C39      1.0000 0.72750  0.85790  0.08430  Biso   1.000  C
  O21      1.0000 0.88050  0.81580  0.20650  Biso   1.000  O
  C40      1.0000 0.68200  0.85220  0.07320  Biso   1.000  C
  N14      1.0000 0.82680  0.83410  0.23750  Biso   1.000  N
  H51      1.0000 0.80890  0.81910  0.20650  Biso   1.000  H
  H52      1.0000 0.83830  0.76810  0.25770  Biso   1.000  H
  O22      1.0000 0.85310  0.01760  0.14670  Biso   1.000  O
  N15      1.0000 0.03260  0.43990  0.45460  Biso   1.000  N
  H53      1.0000 0.05300  0.38950  0.48050  Biso   1.000  H
  C41      1.0000 0.63730  0.79810  0.02910  Biso   1.000  C
  H54      1.0000 0.63520  0.76520  0.00520  Biso   1.000  H
  O23      1.0000 0.80210  0.61740  0.12630  Biso   1.000  O
  C42      1.0000 0.59890  0.83790  0.05610  Biso   1.000  C
  N16      1.0000 0.14440  0.04490  0.43060  Biso   1.000  N
  H55      1.0000 0.13980  0.03350  0.40550  Biso   1.000  H
  H56      1.0000 0.16520  0.99500  0.45660  Biso   1.000  H
  O24      1.0000 0.82270  0.58140  0.19520  Biso   1.000  O
  C43      1.0000 0.64310  0.88750  0.10030  Biso   1.000  C
  H57      1.0000 0.64550  0.91770  0.12460  Biso   1.000  H
  O25      1.0000 0.94470  0.82900  0.31280  Biso   1.000  O
  C44      1.0000 0.68420  0.89300  0.10890  Biso   1.000  C
  H58      1.0000 0.71410  0.92490  0.13940  Biso   1.000  H
  O26      1.0000 0.96940  0.78030  0.38390  Biso   1.000  O
  C45      1.0000 0.88180  0.04140  0.19230  Biso   1.000  C
  O27      1.0000 0.88959  0.59050  0.30180  Biso   1.000  O
  C46      1.0000 0.90060  0.17870  0.21370  Biso   1.000  C
  O28      1.0000 0.91410  0.38640  0.36010  Biso   1.000  O
  C47      1.0000 0.92770  0.20730  0.26220  Biso   1.000  C
  H59      1.0000 0.93720  0.13720  0.28360  Biso   1.000  H
  O29      1.0000 0.00175  0.52530  0.44960  Biso   1.000  O
  C48      1.0000 0.94140  0.33640  0.28070  Biso   1.000  C
  H60      1.0000 0.95880  0.35290  0.31360  Biso   1.000  H
  O30      1.0000 0.00130  0.50850  0.38230  Biso   1.000  O
  C49      1.0000 0.92900  0.44190  0.24980  Biso   1.000  C
  O31      1.0000 0.90210  0.66200  0.38470  Biso   1.000  O
  C50      1.0000 0.90240  0.41550  0.20150  Biso   1.000  C
  H61      1.0000 0.89370  0.48550  0.18050  Biso   1.000  H
  O32      1.0000 0.94420  0.64960  0.46460  Biso   1.000  O
  C51      1.0000 0.88780  0.28340  0.18280  Biso   1.000  C
  H62      1.0000 0.86960  0.26660  0.14960  Biso   1.000  H
  C52      1.0000 0.79520  0.56660  0.15000  Biso   1.000  C
  C53      1.0000 0.75100  0.47840  0.12310  Biso   1.000  C
  H63      1.0000 0.74590  0.46460  0.14360  Biso   1.000  H
  H64      1.0000 0.75650  0.39350  0.11610  Biso   1.000  H
  H65      1.0000 0.72210  0.52030  0.09230  Biso   1.000  H
  C54      1.0000 0.97050  0.84970  0.35810  Biso   1.000  C
  C55      1.0000 0.00420  0.96930  0.38240  Biso   1.000  C
  H66      1.0000 0.98870  0.04200  0.38320  Biso   1.000  H
  H67      1.0000 0.01060  0.99580  0.36370  Biso   1.000  H
  H68      1.0000 0.03500  0.94660  0.41590  Biso   1.000  H
  C56      1.0000 0.88270  0.36650  0.31290  Biso   1.000  C
  C57      1.0000 0.86310  0.23120  0.29140  Biso   1.000  C
  C58      1.0000 0.83200  0.20480  0.24170  Biso   1.000  C
  H69      1.0000 0.81900  0.27590  0.21960  Biso   1.000  H
  C59      1.0000 0.81930  0.07450  0.22340  Biso   1.000  C
  H70      1.0000 0.79850  0.05920  0.18960  Biso   1.000  H
  C60      1.0000 0.83750  0.96790  0.25530  Biso   1.000  C
  C61      1.0000 0.86630  0.99310  0.30490  Biso   1.000  C
  H71      1.0000 0.87730  0.92240  0.32650  Biso   1.000  H
  C62      1.0000 0.87900  0.12370  0.32250  Biso   1.000  C
  H72      1.0000 0.89870  0.13950  0.35610  Biso   1.000  H
  C63      1.0000 0.03090  0.43550  0.41890  Biso   1.000  C
  C64      1.0000 0.06390  0.33720  0.42550  Biso   1.000  C
  C65      1.0000 0.06020  0.32090  0.38790  Biso   1.000  C
  H73      1.0000 0.03950  0.37850  0.36060  Biso   1.000  H
  C66      1.0000 0.08560  0.22310  0.38870  Biso   1.000  C
  H74      1.0000 0.08010  0.21210  0.36120  Biso   1.000  H
  C67      1.0000 0.11860  0.14270  0.42910  Biso   1.000  C
  C68      1.0000 0.12400  0.15570  0.46940  Biso   1.000  C
  H75      1.0000 0.14580  0.10040  0.49730  Biso   1.000  H
  C69      1.0000 0.09640  0.25210  0.46630  Biso   1.000  C
  H76      1.0000 0.09960  0.26010  0.49240  Biso   1.000  H
  C70      1.0000 0.90860  0.68840  0.42000  Biso   1.000  C
  C71      1.0000 0.87070  0.77860  0.41080  Biso   1.000  C
  H77      1.0000 0.88760  0.85210  0.43390  Biso   1.000  H
  H78      1.0000 0.85340  0.72730  0.41540  Biso   1.000  H
  H79      1.0000 0.84720  0.81270  0.37720  Biso   1.000  H
  C72      1.0000 0.59610  0.79220  0.02010  Biso   1.000  C
  H80      1.0000 0.56630  0.75790  0.99000  Biso   1.000  H
  C73      1.0000 0.63490  0.77260  0.91000  Biso   1.000  C
  N17      1.0000 0.77790  0.65400  0.95280  Biso   1.000  N
  H81      1.0000 0.80720  0.66060  0.98280  Biso   1.000  H
  Zn7      1.0000 0.67498  0.68012  0.86965  Biso   1.000  Zn
  O33      1.0000 0.67420  0.75910  0.95570  Biso   1.000  O
  N18      1.0000 0.94300  0.66320  0.95280  Biso   1.000  N
  H82      1.0000 0.94080  0.63280  0.93060  Biso   1.000  H
  H83      1.0000 0.97080  0.69430  0.98050  Biso   1.000  H
  C74      1.0000 0.58890  0.81300  0.89600  Biso   1.000  C
  H84      1.0000 0.59350  0.90090  0.90890  Biso   1.000  H
  H85      1.0000 0.56100  0.81380  0.86030  Biso   1.000  H
  H86      1.0000 0.58290  0.74990  0.90980  Biso   1.000  H
  Zn8      1.0000 0.61516  0.79565  0.74584  Biso   1.000  Zn
  N19      1.0000 0.60300  0.55570  0.77680  Biso   1.000  N
  H87      1.0000 0.58220  0.53880  0.74540  Biso   1.000  H
  O34      1.0000 0.63070  0.75570  0.87510  Biso   1.000  O
  Zn9      1.0000 0.55360  0.91192  0.62245  Biso   1.000  Zn
  O35      1.0000 0.73716  0.65630  0.94450  Biso   1.000  O
  N20      1.0000 0.55810  0.92590  0.73080  Biso   1.000  N
  H88      1.0000 0.56720  0.85880  0.74980  Biso   1.000  H
  H89      1.0000 0.54120  0.91280  0.70000  Biso   1.000  H
  O36      1.0000 0.72990  0.62590  0.87170  Biso   1.000  O
  N21      1.0000 0.63160  0.03390  0.71700  Biso   1.000  N
  H90      1.0000 0.65460  0.04640  0.74880  Biso   1.000  H
  C75      1.0000 0.77250  0.64210  0.91570  Biso   1.000  C
  O37      1.0000 0.61950  0.68420  0.79350  Biso   1.000  O
  C76      1.0000 0.81800  0.64780  0.92680  Biso   1.000  C
  N22      1.0000 0.67320  0.66590  0.76250  Biso   1.000  N
  H91      1.0000 0.69110  0.68090  0.79350  Biso   1.000  H
  H92      1.0000 0.66170  0.73190  0.74230  Biso   1.000  H
  O38      1.0000 0.64690  0.48240  0.85330  Biso   1.000  O
  N23      1.0000 0.46740  0.06010  0.54540  Biso   1.000  N
  H93      1.0000 0.44700  0.11050  0.51950  Biso   1.000  H
  C77      1.0000 0.86270  0.70190  0.97090  Biso   1.000  C
  H94      1.0000 0.86480  0.73480  0.99480  Biso   1.000  H
  O39      1.0000 0.69790  0.88260  0.87370  Biso   1.000  O
  C78      1.0000 0.90110  0.66210  0.94390  Biso   1.000  C
  N24      1.0000 0.35560  0.45510  0.56940  Biso   1.000  N
  H95      1.0000 0.36020  0.46650  0.59450  Biso   1.000  H
  H96      1.0000 0.33480  0.50500  0.54340  Biso   1.000  H
  O40      1.0000 0.67730  0.91860  0.80480  Biso   1.000  O
  C79      1.0000 0.85690  0.61250  0.89970  Biso   1.000  C
  H97      1.0000 0.85450  0.58230  0.87540  Biso   1.000  H
  O41      1.0000 0.55530  0.67100  0.68720  Biso   1.000  O
  C80      1.0000 0.81580  0.60700  0.89110  Biso   1.000  C
  H98      1.0000 0.78590  0.57510  0.86060  Biso   1.000  H
  O42      1.0000 0.53060  0.71970  0.61610  Biso   1.000  O
  C81      1.0000 0.61820  0.45860  0.80770  Biso   1.000  C
  O43      1.0000 0.61041  0.90950  0.69820  Biso   1.000  O
  C82      1.0000 0.59940  0.32130  0.78630  Biso   1.000  C
  O44      1.0000 0.58590  0.11360  0.63990  Biso   1.000  O
  C83      1.0000 0.57230  0.29270  0.73780  Biso   1.000  C
  H99      1.0000 0.56280  0.36280  0.71640  Biso   1.000  H
  O45      1.0000 0.49825  0.97470  0.55040  Biso   1.000  O
  C84      1.0000 0.55860  0.16360  0.71930  Biso   1.000  C
  H100     1.0000 0.54120  0.14710  0.68640  Biso   1.000  H
  O46      1.0000 0.49870  0.99150  0.61770  Biso   1.000  O
  C85      1.0000 0.57100  0.05810  0.75020  Biso   1.000  C
  O47      1.0000 0.59790  0.83800  0.61530  Biso   1.000  O
  C86      1.0000 0.59760  0.08450  0.79850  Biso   1.000  C
  H101     1.0000 0.60630  0.01450  0.81950  Biso   1.000  H
  O48      1.0000 0.55580  0.85040  0.53540  Biso   1.000  O
  C87      1.0000 0.61220  0.21660  0.81720  Biso   1.000  C
  H102     1.0000 0.63040  0.23340  0.85040  Biso   1.000  H
  C88      1.0000 0.70480  0.93340  0.85000  Biso   1.000  C
  C89      1.0000 0.74900  0.02160  0.87690  Biso   1.000  C
  H103     1.0000 0.75410  0.03540  0.85640  Biso   1.000  H
  H104     1.0000 0.74350  0.10650  0.88390  Biso   1.000  H
  H105     1.0000 0.77790  0.97970  0.90770  Biso   1.000  H
  C90      1.0000 0.52950  0.65030  0.64190  Biso   1.000  C
  C91      1.0000 0.49580  0.53070  0.61760  Biso   1.000  C
  H106     1.0000 0.51130  0.45800  0.61680  Biso   1.000  H
  H107     1.0000 0.48940  0.50420  0.63630  Biso   1.000  H
  H108     1.0000 0.46500  0.55340  0.58410  Biso   1.000  H
  C92      1.0000 0.61730  0.13350  0.68710  Biso   1.000  C
  C93      1.0000 0.63690  0.26880  0.70860  Biso   1.000  C
  C94      1.0000 0.66800  0.29520  0.75830  Biso   1.000  C
  H109     1.0000 0.68100  0.22410  0.78040  Biso   1.000  H
  C95      1.0000 0.68070  0.42550  0.77660  Biso   1.000  C
  H110     1.0000 0.70150  0.44080  0.81040  Biso   1.000  H
  C96      1.0000 0.66250  0.53210  0.74470  Biso   1.000  C
  C97      1.0000 0.63370  0.50690  0.69510  Biso   1.000  C
  H111     1.0000 0.62270  0.57760  0.67350  Biso   1.000  H
  C98      1.0000 0.62100  0.37630  0.67750  Biso   1.000  C
  H112     1.0000 0.60130  0.36050  0.64390  Biso   1.000  H
  C99      1.0000 0.46910  0.06450  0.58110  Biso   1.000  C
  C100     1.0000 0.43610  0.16280  0.57450  Biso   1.000  C
  C101     1.0000 0.43980  0.17910  0.61210  Biso   1.000  C
  H113     1.0000 0.46050  0.12150  0.63940  Biso   1.000  H
  C102     1.0000 0.41440  0.27690  0.61130  Biso   1.000  C
  H114     1.0000 0.41990  0.28790  0.63880  Biso   1.000  H
  C103     1.0000 0.38140  0.35730  0.57090  Biso   1.000  C
  C104     1.0000 0.37600  0.34430  0.53060  Biso   1.000  C
  H115     1.0000 0.35420  0.39960  0.50270  Biso   1.000  H
  C105     1.0000 0.40360  0.24790  0.53370  Biso   1.000  C
  H116     1.0000 0.40040  0.23990  0.50760  Biso   1.000  H
  C106     1.0000 0.59140  0.81160  0.58000  Biso   1.000  C
  C107     1.0000 0.62930  0.72140  0.58920  Biso   1.000  C
  H117     1.0000 0.61240  0.64790  0.56610  Biso   1.000  H
  H118     1.0000 0.64660  0.77270  0.58460  Biso   1.000  H
  H119     1.0000 0.65280  0.68730  0.62280  Biso   1.000  H
  C108     1.0000 0.90390  0.70780  0.97990  Biso   1.000  C
  H120     1.0000 0.93370  0.74210  0.01000  Biso   1.000  H
  C109     1.0000 0.13490  0.27260  0.91000  Biso   1.000  C
  N25      1.0000 0.27790  0.15400  0.95280  Biso   1.000  N
  H121     1.0000 0.30720  0.16060  0.98280  Biso   1.000  H
  Zn10     1.0000 0.17498  0.18012  0.86965  Biso   1.000  Zn
  O49      1.0000 0.17420  0.25910  0.95570  Biso   1.000  O
  N26      1.0000 0.44300  0.16320  0.95280  Biso   1.000  N
  H122     1.0000 0.44080  0.13280  0.93060  Biso   1.000  H
  H123     1.0000 0.47080  0.19430  0.98050  Biso   1.000  H
  C110     1.0000 0.08890  0.31300  0.89600  Biso   1.000  C
  H124     1.0000 0.09350  0.40090  0.90890  Biso   1.000  H
  H125     1.0000 0.06100  0.31380  0.86030  Biso   1.000  H
  H126     1.0000 0.08290  0.24990  0.90980  Biso   1.000  H
  Zn11     1.0000 0.11516  0.29565  0.74584  Biso   1.000  Zn
  N27      1.0000 0.10300  0.05570  0.77680  Biso   1.000  N
  H127     1.0000 0.08220  0.03880  0.74540  Biso   1.000  H
  O50      1.0000 0.13070  0.25570  0.87510  Biso   1.000  O
  Zn12     1.0000 0.05360  0.41192  0.62245  Biso   1.000  Zn
  O51      1.0000 0.23716  0.15630  0.94450  Biso   1.000  O
  N28      1.0000 0.05810  0.42590  0.73080  Biso   1.000  N
  H128     1.0000 0.06720  0.35880  0.74980  Biso   1.000  H
  H129     1.0000 0.04120  0.41280  0.70000  Biso   1.000  H
  O52      1.0000 0.22990  0.12590  0.87170  Biso   1.000  O
  N29      1.0000 0.13160  0.53390  0.71700  Biso   1.000  N
  H130     1.0000 0.15460  0.54640  0.74880  Biso   1.000  H
  C111     1.0000 0.27250  0.14210  0.91570  Biso   1.000  C
  O53      1.0000 0.11950  0.18420  0.79350  Biso   1.000  O
  C112     1.0000 0.31800  0.14780  0.92680  Biso   1.000  C
  N30      1.0000 0.17320  0.16590  0.76250  Biso   1.000  N
  H131     1.0000 0.19110  0.18090  0.79350  Biso   1.000  H
  H132     1.0000 0.16170  0.23190  0.74230  Biso   1.000  H
  O54      1.0000 0.14690  0.98240  0.85330  Biso   1.000  O
  N31      1.0000 0.96740  0.56010  0.54540  Biso   1.000  N
  H133     1.0000 0.94700  0.61050  0.51950  Biso   1.000  H
  C113     1.0000 0.36270  0.20190  0.97090  Biso   1.000  C
  H134     1.0000 0.36480  0.23480  0.99480  Biso   1.000  H
  O55      1.0000 0.19790  0.38260  0.87370  Biso   1.000  O
  C114     1.0000 0.40110  0.16210  0.94390  Biso   1.000  C
  N32      1.0000 0.85560  0.95510  0.56940  Biso   1.000  N
  H135     1.0000 0.86020  0.96650  0.59450  Biso   1.000  H
  H136     1.0000 0.83480  0.00500  0.54340  Biso   1.000  H
  O56      1.0000 0.17730  0.41860  0.80480  Biso   1.000  O
  C115     1.0000 0.35690  0.11250  0.89970  Biso   1.000  C
  H137     1.0000 0.35450  0.08230  0.87540  Biso   1.000  H
  O57      1.0000 0.05530  0.17100  0.68720  Biso   1.000  O
  C116     1.0000 0.31580  0.10700  0.89110  Biso   1.000  C
  H138     1.0000 0.28590  0.07510  0.86060  Biso   1.000  H
  O58      1.0000 0.03060  0.21970  0.61610  Biso   1.000  O
  C117     1.0000 0.11820  0.95860  0.80770  Biso   1.000  C
  O59      1.0000 0.11041  0.40950  0.69820  Biso   1.000  O
  C118     1.0000 0.09940  0.82130  0.78630  Biso   1.000  C
  O60      1.0000 0.08590  0.61360  0.63990  Biso   1.000  O
  C119     1.0000 0.07230  0.79270  0.73780  Biso   1.000  C
  H139     1.0000 0.06280  0.86280  0.71640  Biso   1.000  H
  O61      1.0000 0.99825  0.47470  0.55040  Biso   1.000  O
  C120     1.0000 0.05860  0.66360  0.71930  Biso   1.000  C
  H140     1.0000 0.04120  0.64710  0.68640  Biso   1.000  H
  O62      1.0000 0.99870  0.49150  0.61770  Biso   1.000  O
  C121     1.0000 0.07100  0.55810  0.75020  Biso   1.000  C
  O63      1.0000 0.09790  0.33800  0.61530  Biso   1.000  O
  C122     1.0000 0.09760  0.58450  0.79850  Biso   1.000  C
  H141     1.0000 0.10630  0.51450  0.81950  Biso   1.000  H
  O64      1.0000 0.05580  0.35040  0.53540  Biso   1.000  O
  C123     1.0000 0.11220  0.71660  0.81720  Biso   1.000  C
  H142     1.0000 0.13040  0.73340  0.85040  Biso   1.000  H
  C124     1.0000 0.20480  0.43340  0.85000  Biso   1.000  C
  C125     1.0000 0.24900  0.52160  0.87690  Biso   1.000  C
  H143     1.0000 0.25410  0.53540  0.85640  Biso   1.000  H
  H144     1.0000 0.24350  0.60650  0.88390  Biso   1.000  H
  H145     1.0000 0.27790  0.47970  0.90770  Biso   1.000  H
  C126     1.0000 0.02950  0.15030  0.64190  Biso   1.000  C
  C127     1.0000 0.99580  0.03070  0.61760  Biso   1.000  C
  H146     1.0000 0.01130  0.95800  0.61680  Biso   1.000  H
  H147     1.0000 0.98940  0.00420  0.63630  Biso   1.000  H
  H148     1.0000 0.96500  0.05340  0.58410  Biso   1.000  H
  C128     1.0000 0.11730  0.63350  0.68710  Biso   1.000  C
  C129     1.0000 0.13690  0.76880  0.70860  Biso   1.000  C
  C130     1.0000 0.16800  0.79520  0.75830  Biso   1.000  C
  H149     1.0000 0.18100  0.72410  0.78040  Biso   1.000  H
  C131     1.0000 0.18070  0.92550  0.77660  Biso   1.000  C
  H150     1.0000 0.20150  0.94080  0.81040  Biso   1.000  H
  C132     1.0000 0.16250  0.03210  0.74470  Biso   1.000  C
  C133     1.0000 0.13370  0.00690  0.69510  Biso   1.000  C
  H151     1.0000 0.12270  0.07760  0.67350  Biso   1.000  H
  C134     1.0000 0.12100  0.87630  0.67750  Biso   1.000  C
  H152     1.0000 0.10130  0.86050  0.64390  Biso   1.000  H
  C135     1.0000 0.96910  0.56450  0.58110  Biso   1.000  C
  C136     1.0000 0.93610  0.66280  0.57450  Biso   1.000  C
  C137     1.0000 0.93980  0.67910  0.61210  Biso   1.000  C
  H153     1.0000 0.96050  0.62150  0.63940  Biso   1.000  H
  C138     1.0000 0.91440  0.77690  0.61130  Biso   1.000  C
  H154     1.0000 0.91990  0.78790  0.63880  Biso   1.000  H
  C139     1.0000 0.88140  0.85730  0.57090  Biso   1.000  C
  C140     1.0000 0.87600  0.84430  0.53060  Biso   1.000  C
  H155     1.0000 0.85420  0.89960  0.50270  Biso   1.000  H
  C141     1.0000 0.90360  0.74790  0.53370  Biso   1.000  C
  H156     1.0000 0.90040  0.73990  0.50760  Biso   1.000  H
  C142     1.0000 0.09140  0.31160  0.58000  Biso   1.000  C
  C143     1.0000 0.12930  0.22140  0.58920  Biso   1.000  C
  H157     1.0000 0.11240  0.14790  0.56610  Biso   1.000  H
  H158     1.0000 0.14660  0.27270  0.58460  Biso   1.000  H
  H159     1.0000 0.15280  0.18730  0.62280  Biso   1.000  H
  C144     1.0000 0.40390  0.20780  0.97990  Biso   1.000  C
  H160     1.0000 0.43370  0.24210  0.01000  Biso   1.000  H
  Zn13     1.0000 0.25000  0.25000  0.00000  Biso   1.000  Zn
  Zn14     1.0000 0.75000  0.75000  0.00000  Biso   1.000  Zn
  Zn15     1.0000 0.00000  0.50000  0.50000  Biso   1.000  Zn
  Zn16     1.0000 0.50000  0.00000  0.50000  Biso   1.000  Zn
  C145     1.0000 0.63490  0.22740  0.41000  Biso   1.000  C
  N33      1.0000 0.77790  0.34600  0.45280  Biso   1.000  N
  H161     1.0000 0.80720  0.33940  0.48280  Biso   1.000  H
  Zn17     1.0000 0.67498  0.31988  0.36965  Biso   1.000  Zn
  O65      1.0000 0.67420  0.24090  0.45570  Biso   1.000  O
  N34      1.0000 0.94300  0.33680  0.45280  Biso   1.000  N
  H162     1.0000 0.94080  0.36720  0.43060  Biso   1.000  H
  H163     1.0000 0.97080  0.30570  0.48050  Biso   1.000  H
  C146     1.0000 0.58890  0.18700  0.39600  Biso   1.000  C
  H164     1.0000 0.59350  0.09910  0.40890  Biso   1.000  H
  H165     1.0000 0.56100  0.18620  0.36030  Biso   1.000  H
  H166     1.0000 0.58290  0.25010  0.40980  Biso   1.000  H
  Zn18     1.0000 0.61516  0.20435  0.24584  Biso   1.000  Zn
  N35      1.0000 0.60300  0.44430  0.27680  Biso   1.000  N
  H167     1.0000 0.58220  0.46120  0.24540  Biso   1.000  H
  O66      1.0000 0.63070  0.24430  0.37510  Biso   1.000  O
  Zn19     1.0000 0.55360  0.08808  0.12245  Biso   1.000  Zn
  O67      1.0000 0.73716  0.34370  0.44450  Biso   1.000  O
  N36      1.0000 0.55810  0.07410  0.23080  Biso   1.000  N
  H168     1.0000 0.56720  0.14120  0.24980  Biso   1.000  H
  H169     1.0000 0.54120  0.08720  0.20000  Biso   1.000  H
  O68      1.0000 0.72990  0.37410  0.37170  Biso   1.000  O
  N37      1.0000 0.63160  0.96610  0.21700  Biso   1.000  N
  H170     1.0000 0.65460  0.95360  0.24880  Biso   1.000  H
  C147     1.0000 0.77250  0.35790  0.41570  Biso   1.000  C
  O69      1.0000 0.61950  0.31580  0.29350  Biso   1.000  O
  C148     1.0000 0.81800  0.35220  0.42680  Biso   1.000  C
  N38      1.0000 0.67320  0.33410  0.26250  Biso   1.000  N
  H171     1.0000 0.69110  0.31910  0.29350  Biso   1.000  H
  H172     1.0000 0.66170  0.26810  0.24230  Biso   1.000  H
  O70      1.0000 0.64690  0.51760  0.35330  Biso   1.000  O
  N39      1.0000 0.46740  0.93990  0.04540  Biso   1.000  N
  H173     1.0000 0.44700  0.88950  0.01950  Biso   1.000  H
  C149     1.0000 0.86270  0.29810  0.47090  Biso   1.000  C
  H174     1.0000 0.86480  0.26520  0.49480  Biso   1.000  H
  O71      1.0000 0.69790  0.11740  0.37370  Biso   1.000  O
  C150     1.0000 0.90110  0.33790  0.44390  Biso   1.000  C
  N40      1.0000 0.35560  0.54490  0.06940  Biso   1.000  N
  H175     1.0000 0.36020  0.53350  0.09450  Biso   1.000  H
  H176     1.0000 0.33480  0.49500  0.04340  Biso   1.000  H
  O72      1.0000 0.67730  0.08140  0.30480  Biso   1.000  O
  C151     1.0000 0.85690  0.38750  0.39970  Biso   1.000  C
  H177     1.0000 0.85450  0.41770  0.37540  Biso   1.000  H
  O73      1.0000 0.55530  0.32900  0.18720  Biso   1.000  O
  C152     1.0000 0.81580  0.39300  0.39110  Biso   1.000  C
  H178     1.0000 0.78590  0.42490  0.36060  Biso   1.000  H
  O74      1.0000 0.53060  0.28030  0.11610  Biso   1.000  O
  C153     1.0000 0.61820  0.54140  0.30770  Biso   1.000  C
  O75      1.0000 0.61041  0.09050  0.19820  Biso   1.000  O
  C154     1.0000 0.59940  0.67870  0.28630  Biso   1.000  C
  O76      1.0000 0.58590  0.88640  0.13990  Biso   1.000  O
  C155     1.0000 0.57230  0.70730  0.23780  Biso   1.000  C
  H179     1.0000 0.56280  0.63720  0.21640  Biso   1.000  H
  O77      1.0000 0.49825  0.02530  0.05040  Biso   1.000  O
  C156     1.0000 0.55860  0.83640  0.21930  Biso   1.000  C
  H180     1.0000 0.54120  0.85290  0.18640  Biso   1.000  H
  O78      1.0000 0.49870  0.00850  0.11770  Biso   1.000  O
  C157     1.0000 0.57100  0.94190  0.25020  Biso   1.000  C
  O79      1.0000 0.59790  0.16200  0.11530  Biso   1.000  O
  C158     1.0000 0.59760  0.91550  0.29850  Biso   1.000  C
  H181     1.0000 0.60630  0.98550  0.31950  Biso   1.000  H
  O80      1.0000 0.55580  0.14960  0.03540  Biso   1.000  O
  C159     1.0000 0.61220  0.78340  0.31720  Biso   1.000  C
  H182     1.0000 0.63040  0.76660  0.35040  Biso   1.000  H
  C160     1.0000 0.70480  0.06660  0.35000  Biso   1.000  C
  C161     1.0000 0.74900  0.97840  0.37690  Biso   1.000  C
  H183     1.0000 0.75410  0.96460  0.35640  Biso   1.000  H
  H184     1.0000 0.74350  0.89350  0.38390  Biso   1.000  H
  H185     1.0000 0.77790  0.02030  0.40770  Biso   1.000  H
  C162     1.0000 0.52950  0.34970  0.14190  Biso   1.000  C
  C163     1.0000 0.49580  0.46930  0.11760  Biso   1.000  C
  H186     1.0000 0.51130  0.54200  0.11680  Biso   1.000  H
  H187     1.0000 0.48940  0.49580  0.13630  Biso   1.000  H
  H188     1.0000 0.46500  0.44660  0.08410  Biso   1.000  H
  C164     1.0000 0.61730  0.86650  0.18710  Biso   1.000  C
  C165     1.0000 0.63690  0.73120  0.20860  Biso   1.000  C
  C166     1.0000 0.66800  0.70480  0.25830  Biso   1.000  C
  H189     1.0000 0.68100  0.77590  0.28040  Biso   1.000  H
  C167     1.0000 0.68070  0.57450  0.27660  Biso   1.000  C
  H190     1.0000 0.70150  0.55920  0.31040  Biso   1.000  H
  C168     1.0000 0.66250  0.46790  0.24470  Biso   1.000  C
  C169     1.0000 0.63370  0.49310  0.19510  Biso   1.000  C
  H191     1.0000 0.62270  0.42240  0.17350  Biso   1.000  H
  C170     1.0000 0.62100  0.62370  0.17750  Biso   1.000  C
  H192     1.0000 0.60130  0.63950  0.14390  Biso   1.000  H
  C171     1.0000 0.46910  0.93550  0.08110  Biso   1.000  C
  C172     1.0000 0.43610  0.83720  0.07450  Biso   1.000  C
  C173     1.0000 0.43980  0.82090  0.11210  Biso   1.000  C
  H193     1.0000 0.46050  0.87850  0.13940  Biso   1.000  H
  C174     1.0000 0.41440  0.72310  0.11130  Biso   1.000  C
  H194     1.0000 0.41990  0.71210  0.13880  Biso   1.000  H
  C175     1.0000 0.38140  0.64270  0.07090  Biso   1.000  C
  C176     1.0000 0.37600  0.65570  0.03060  Biso   1.000  C
  H195     1.0000 0.35420  0.60040  0.00270  Biso   1.000  H
  C177     1.0000 0.40360  0.75210  0.03370  Biso   1.000  C
  H196     1.0000 0.40040  0.76010  0.00760  Biso   1.000  H
  C178     1.0000 0.59140  0.18840  0.08000  Biso   1.000  C
  C179     1.0000 0.62930  0.27860  0.08920  Biso   1.000  C
  H197     1.0000 0.61240  0.35210  0.06610  Biso   1.000  H
  H198     1.0000 0.64660  0.22730  0.08460  Biso   1.000  H
  H199     1.0000 0.65280  0.31270  0.12280  Biso   1.000  H
  C180     1.0000 0.90390  0.29220  0.47990  Biso   1.000  C
  H200     1.0000 0.93370  0.25790  0.51000  Biso   1.000  H
  C181     1.0000 0.13490  0.72740  0.41000  Biso   1.000  C
  N41      1.0000 0.27790  0.84600  0.45280  Biso   1.000  N
  H201     1.0000 0.30720  0.83940  0.48280  Biso   1.000  H
  Zn20     1.0000 0.17498  0.81988  0.36965  Biso   1.000  Zn
  O81      1.0000 0.17420  0.74090  0.45570  Biso   1.000  O
  N42      1.0000 0.44300  0.83680  0.45280  Biso   1.000  N
  H202     1.0000 0.44080  0.86720  0.43060  Biso   1.000  H
  H203     1.0000 0.47080  0.80570  0.48050  Biso   1.000  H
  C182     1.0000 0.08890  0.68700  0.39600  Biso   1.000  C
  H204     1.0000 0.09350  0.59910  0.40890  Biso   1.000  H
  H205     1.0000 0.06100  0.68620  0.36030  Biso   1.000  H
  H206     1.0000 0.08290  0.75010  0.40980  Biso   1.000  H
  Zn21     1.0000 0.11516  0.70435  0.24584  Biso   1.000  Zn
  N43      1.0000 0.10300  0.94430  0.27680  Biso   1.000  N
  H207     1.0000 0.08220  0.96120  0.24540  Biso   1.000  H
  O82      1.0000 0.13070  0.74430  0.37510  Biso   1.000  O
  Zn22     1.0000 0.05360  0.58808  0.12245  Biso   1.000  Zn
  O83      1.0000 0.23716  0.84370  0.44450  Biso   1.000  O
  N44      1.0000 0.05810  0.57410  0.23080  Biso   1.000  N
  H208     1.0000 0.06720  0.64120  0.24980  Biso   1.000  H
  H209     1.0000 0.04120  0.58720  0.20000  Biso   1.000  H
  O84      1.0000 0.22990  0.87410  0.37170  Biso   1.000  O
  N45      1.0000 0.13160  0.46610  0.21700  Biso   1.000  N
  H210     1.0000 0.15460  0.45360  0.24880  Biso   1.000  H
  C183     1.0000 0.27250  0.85790  0.41570  Biso   1.000  C
  O85      1.0000 0.11950  0.81580  0.29350  Biso   1.000  O
  C184     1.0000 0.31800  0.85220  0.42680  Biso   1.000  C
  N46      1.0000 0.17320  0.83410  0.26250  Biso   1.000  N
  H211     1.0000 0.19110  0.81910  0.29350  Biso   1.000  H
  H212     1.0000 0.16170  0.76810  0.24230  Biso   1.000  H
  O86      1.0000 0.14690  0.01760  0.35330  Biso   1.000  O
  N47      1.0000 0.96740  0.43990  0.04540  Biso   1.000  N
  H213     1.0000 0.94700  0.38950  0.01950  Biso   1.000  H
  C185     1.0000 0.36270  0.79810  0.47090  Biso   1.000  C
  H214     1.0000 0.36480  0.76520  0.49480  Biso   1.000  H
  O87      1.0000 0.19790  0.61740  0.37370  Biso   1.000  O
  C186     1.0000 0.40110  0.83790  0.44390  Biso   1.000  C
  N48      1.0000 0.85560  0.04490  0.06940  Biso   1.000  N
  H215     1.0000 0.86020  0.03350  0.09450  Biso   1.000  H
  H216     1.0000 0.83480  0.99500  0.04340  Biso   1.000  H
  O88      1.0000 0.17730  0.58140  0.30480  Biso   1.000  O
  C187     1.0000 0.35690  0.88750  0.39970  Biso   1.000  C
  H217     1.0000 0.35450  0.91770  0.37540  Biso   1.000  H
  O89      1.0000 0.05530  0.82900  0.18720  Biso   1.000  O
  C188     1.0000 0.31580  0.89300  0.39110  Biso   1.000  C
  H218     1.0000 0.28590  0.92490  0.36060  Biso   1.000  H
  O90      1.0000 0.03060  0.78030  0.11610  Biso   1.000  O
  C189     1.0000 0.11820  0.04140  0.30770  Biso   1.000  C
  O91      1.0000 0.11041  0.59050  0.19820  Biso   1.000  O
  C190     1.0000 0.09940  0.17870  0.28630  Biso   1.000  C
  O92      1.0000 0.08590  0.38640  0.13990  Biso   1.000  O
  C191     1.0000 0.07230  0.20730  0.23780  Biso   1.000  C
  H219     1.0000 0.06280  0.13720  0.21640  Biso   1.000  H
  O93      1.0000 0.99825  0.52530  0.05040  Biso   1.000  O
  C192     1.0000 0.05860  0.33640  0.21930  Biso   1.000  C
  H220     1.0000 0.04120  0.35290  0.18640  Biso   1.000  H
  O94      1.0000 0.99870  0.50850  0.11770  Biso   1.000  O
  C193     1.0000 0.07100  0.44190  0.25020  Biso   1.000  C
  O95      1.0000 0.09790  0.66200  0.11530  Biso   1.000  O
  C194     1.0000 0.09760  0.41550  0.29850  Biso   1.000  C
  H221     1.0000 0.10630  0.48550  0.31950  Biso   1.000  H
  O96      1.0000 0.05580  0.64960  0.03540  Biso   1.000  O
  C195     1.0000 0.11220  0.28340  0.31720  Biso   1.000  C
  H222     1.0000 0.13040  0.26660  0.35040  Biso   1.000  H
  C196     1.0000 0.20480  0.56660  0.35000  Biso   1.000  C
  C197     1.0000 0.24900  0.47840  0.37690  Biso   1.000  C
  H223     1.0000 0.25410  0.46460  0.35640  Biso   1.000  H
  H224     1.0000 0.24350  0.39350  0.38390  Biso   1.000  H
  H225     1.0000 0.27790  0.52030  0.40770  Biso   1.000  H
  C198     1.0000 0.02950  0.84970  0.14190  Biso   1.000  C
  C199     1.0000 0.99580  0.96930  0.11760  Biso   1.000  C
  H226     1.0000 0.01130  0.04200  0.11680  Biso   1.000  H
  H227     1.0000 0.98940  0.99580  0.13630  Biso   1.000  H
  H228     1.0000 0.96500  0.94660  0.08410  Biso   1.000  H
  C200     1.0000 0.11730  0.36650  0.18710  Biso   1.000  C
  C201     1.0000 0.13690  0.23120  0.20860  Biso   1.000  C
  C202     1.0000 0.16800  0.20480  0.25830  Biso   1.000  C
  H229     1.0000 0.18100  0.27590  0.28040  Biso   1.000  H
  C203     1.0000 0.18070  0.07450  0.27660  Biso   1.000  C
  H230     1.0000 0.20150  0.05920  0.31040  Biso   1.000  H
  C204     1.0000 0.16250  0.96790  0.24470  Biso   1.000  C
  C205     1.0000 0.13370  0.99310  0.19510  Biso   1.000  C
  H231     1.0000 0.12270  0.92240  0.17350  Biso   1.000  H
  C206     1.0000 0.12100  0.12370  0.17750  Biso   1.000  C
  H232     1.0000 0.10130  0.13950  0.14390  Biso   1.000  H
  C207     1.0000 0.96910  0.43550  0.08110  Biso   1.000  C
  C208     1.0000 0.93610  0.33720  0.07450  Biso   1.000  C
  C209     1.0000 0.93980  0.32090  0.11210  Biso   1.000  C
  H233     1.0000 0.96050  0.37850  0.13940  Biso   1.000  H
  C210     1.0000 0.91440  0.22310  0.11130  Biso   1.000  C
  H234     1.0000 0.91990  0.21210  0.13880  Biso   1.000  H
  C211     1.0000 0.88140  0.14270  0.07090  Biso   1.000  C
  C212     1.0000 0.87600  0.15570  0.03060  Biso   1.000  C
  H235     1.0000 0.85420  0.10040  0.00270  Biso   1.000  H
  C213     1.0000 0.90360  0.25210  0.03370  Biso   1.000  C
  H236     1.0000 0.90040  0.26010  0.00760  Biso   1.000  H
  C214     1.0000 0.09140  0.68840  0.08000  Biso   1.000  C
  C215     1.0000 0.12930  0.77860  0.08920  Biso   1.000  C
  H237     1.0000 0.11240  0.85210  0.06610  Biso   1.000  H
  H238     1.0000 0.14660  0.72730  0.08460  Biso   1.000  H
  H239     1.0000 0.15280  0.81270  0.12280  Biso   1.000  H
  C216     1.0000 0.40390  0.79220  0.47990  Biso   1.000  C
  H240     1.0000 0.43370  0.75790  0.51000  Biso   1.000  H
  C217     1.0000 0.36510  0.77260  0.59000  Biso   1.000  C
  N49      1.0000 0.22210  0.65400  0.54720  Biso   1.000  N
  H241     1.0000 0.19280  0.66060  0.51720  Biso   1.000  H
  Zn23     1.0000 0.32502  0.68012  0.63035  Biso   1.000  Zn
  O97      1.0000 0.32580  0.75910  0.54430  Biso   1.000  O
  N50      1.0000 0.05700  0.66320  0.54720  Biso   1.000  N
  H242     1.0000 0.05920  0.63280  0.56940  Biso   1.000  H
  H243     1.0000 0.02920  0.69430  0.51950  Biso   1.000  H
  C218     1.0000 0.41110  0.81300  0.60400  Biso   1.000  C
  H244     1.0000 0.40650  0.90090  0.59110  Biso   1.000  H
  H245     1.0000 0.43900  0.81380  0.63970  Biso   1.000  H
  H246     1.0000 0.41710  0.74990  0.59020  Biso   1.000  H
  Zn24     1.0000 0.38484  0.79565  0.75416  Biso   1.000  Zn
  N51      1.0000 0.39700  0.55570  0.72320  Biso   1.000  N
  H247     1.0000 0.41780  0.53880  0.75460  Biso   1.000  H
  O98      1.0000 0.36930  0.75570  0.62490  Biso   1.000  O
  Zn25     1.0000 0.44640  0.91192  0.87755  Biso   1.000  Zn
  O99      1.0000 0.26284  0.65630  0.55550  Biso   1.000  O
  N52      1.0000 0.44190  0.92590  0.76920  Biso   1.000  N
  H248     1.0000 0.43280  0.85880  0.75020  Biso   1.000  H
  H249     1.0000 0.45880  0.91280  0.80000  Biso   1.000  H
  O100     1.0000 0.27010  0.62590  0.62830  Biso   1.000  O
  N53      1.0000 0.36840  0.03390  0.78300  Biso   1.000  N
  H250     1.0000 0.34540  0.04640  0.75120  Biso   1.000  H
  C219     1.0000 0.22750  0.64210  0.58430  Biso   1.000  C
  O101     1.0000 0.38050  0.68420  0.70650  Biso   1.000  O
  C220     1.0000 0.18200  0.64780  0.57320  Biso   1.000  C
  N54      1.0000 0.32680  0.66590  0.73750  Biso   1.000  N
  H251     1.0000 0.30890  0.68090  0.70650  Biso   1.000  H
  H252     1.0000 0.33830  0.73190  0.75770  Biso   1.000  H
  O102     1.0000 0.35310  0.48240  0.64670  Biso   1.000  O
  N55      1.0000 0.53260  0.06010  0.95460  Biso   1.000  N
  H253     1.0000 0.55300  0.11050  0.98050  Biso   1.000  H
  C221     1.0000 0.13730  0.70190  0.52910  Biso   1.000  C
  H254     1.0000 0.13520  0.73480  0.50520  Biso   1.000  H
  O103     1.0000 0.30210  0.88260  0.62630  Biso   1.000  O
  C222     1.0000 0.09890  0.66210  0.55610  Biso   1.000  C
  N56      1.0000 0.64440  0.45510  0.93060  Biso   1.000  N
  H255     1.0000 0.63980  0.46650  0.90550  Biso   1.000  H
  H256     1.0000 0.66520  0.50500  0.95660  Biso   1.000  H
  O104     1.0000 0.32270  0.91860  0.69520  Biso   1.000  O
  C223     1.0000 0.14310  0.61250  0.60030  Biso   1.000  C
  H257     1.0000 0.14550  0.58230  0.62460  Biso   1.000  H
  O105     1.0000 0.44470  0.67100  0.81280  Biso   1.000  O
  C224     1.0000 0.18420  0.60700  0.60890  Biso   1.000  C
  H258     1.0000 0.21410  0.57510  0.63940  Biso   1.000  H
  O106     1.0000 0.46940  0.71970  0.88390  Biso   1.000  O
  C225     1.0000 0.38180  0.45860  0.69230  Biso   1.000  C
  O107     1.0000 0.38959  0.90950  0.80180  Biso   1.000  O
  C226     1.0000 0.40060  0.32130  0.71370  Biso   1.000  C
  O108     1.0000 0.41410  0.11360  0.86010  Biso   1.000  O
  C227     1.0000 0.42770  0.29270  0.76220  Biso   1.000  C
  H259     1.0000 0.43720  0.36280  0.78360  Biso   1.000  H
  O109     1.0000 0.50175  0.97470  0.94960  Biso   1.000  O
  C228     1.0000 0.44140  0.16360  0.78070  Biso   1.000  C
  H260     1.0000 0.45880  0.14710  0.81360  Biso   1.000  H
  O110     1.0000 0.50130  0.99150  0.88230  Biso   1.000  O
  C229     1.0000 0.42900  0.05810  0.74980  Biso   1.000  C
  O111     1.0000 0.40210  0.83800  0.88470  Biso   1.000  O
  C230     1.0000 0.40240  0.08450  0.70150  Biso   1.000  C
  H261     1.0000 0.39370  0.01450  0.68050  Biso   1.000  H
  O112     1.0000 0.44420  0.85040  0.96460  Biso   1.000  O
  C231     1.0000 0.38780  0.21660  0.68280  Biso   1.000  C
  H262     1.0000 0.36960  0.23340  0.64960  Biso   1.000  H
  C232     1.0000 0.29520  0.93340  0.65000  Biso   1.000  C
  C233     1.0000 0.25100  0.02160  0.62310  Biso   1.000  C
  H263     1.0000 0.24590  0.03540  0.64360  Biso   1.000  H
  H264     1.0000 0.25650  0.10650  0.61610  Biso   1.000  H
  H265     1.0000 0.22210  0.97970  0.59230  Biso   1.000  H
  C234     1.0000 0.47050  0.65030  0.85810  Biso   1.000  C
  C235     1.0000 0.50420  0.53070  0.88240  Biso   1.000  C
  H266     1.0000 0.48870  0.45800  0.88320  Biso   1.000  H
  H267     1.0000 0.51060  0.50420  0.86370  Biso   1.000  H
  H268     1.0000 0.53500  0.55340  0.91590  Biso   1.000  H
  C236     1.0000 0.38270  0.13350  0.81290  Biso   1.000  C
  C237     1.0000 0.36310  0.26880  0.79140  Biso   1.000  C
  C238     1.0000 0.33200  0.29520  0.74170  Biso   1.000  C
  H269     1.0000 0.31900  0.22410  0.71960  Biso   1.000  H
  C239     1.0000 0.31930  0.42550  0.72340  Biso   1.000  C
  H270     1.0000 0.29850  0.44080  0.68960  Biso   1.000  H
  C240     1.0000 0.33750  0.53210  0.75530  Biso   1.000  C
  C241     1.0000 0.36630  0.50690  0.80490  Biso   1.000  C
  H271     1.0000 0.37730  0.57760  0.82650  Biso   1.000  H
  C242     1.0000 0.37900  0.37630  0.82250  Biso   1.000  C
  H272     1.0000 0.39870  0.36050  0.85610  Biso   1.000  H
  C243     1.0000 0.53090  0.06450  0.91890  Biso   1.000  C
  C244     1.0000 0.56390  0.16280  0.92550  Biso   1.000  C
  C245     1.0000 0.56020  0.17910  0.88790  Biso   1.000  C
  H273     1.0000 0.53950  0.12150  0.86060  Biso   1.000  H
  C246     1.0000 0.58560  0.27690  0.88870  Biso   1.000  C
  H274     1.0000 0.58010  0.28790  0.86120  Biso   1.000  H
  C247     1.0000 0.61860  0.35730  0.92910  Biso   1.000  C
  C248     1.0000 0.62400  0.34430  0.96940  Biso   1.000  C
  H275     1.0000 0.64580  0.39960  0.99730  Biso   1.000  H
  C249     1.0000 0.59640  0.24790  0.96630  Biso   1.000  C
  H276     1.0000 0.59960  0.23990  0.99240  Biso   1.000  H
  C250     1.0000 0.40860  0.81160  0.92000  Biso   1.000  C
  C251     1.0000 0.37070  0.72140  0.91080  Biso   1.000  C
  H277     1.0000 0.38760  0.64790  0.93390  Biso   1.000  H
  H278     1.0000 0.35340  0.77270  0.91540  Biso   1.000  H
  H279     1.0000 0.34720  0.68730  0.87720  Biso   1.000  H
  C252     1.0000 0.09610  0.70780  0.52010  Biso   1.000  C
  H280     1.0000 0.06630  0.74210  0.49000  Biso   1.000  H
  C253     1.0000 0.86510  0.27260  0.59000  Biso   1.000  C
  N57      1.0000 0.72210  0.15400  0.54720  Biso   1.000  N
  H281     1.0000 0.69280  0.16060  0.51720  Biso   1.000  H
  Zn26     1.0000 0.82502  0.18012  0.63035  Biso   1.000  Zn
  O113     1.0000 0.82580  0.25910  0.54430  Biso   1.000  O
  N58      1.0000 0.55700  0.16320  0.54720  Biso   1.000  N
  H282     1.0000 0.55920  0.13280  0.56940  Biso   1.000  H
  H283     1.0000 0.52920  0.19430  0.51950  Biso   1.000  H
  C254     1.0000 0.91110  0.31300  0.60400  Biso   1.000  C
  H284     1.0000 0.90650  0.40090  0.59110  Biso   1.000  H
  H285     1.0000 0.93900  0.31380  0.63970  Biso   1.000  H
  H286     1.0000 0.91710  0.24990  0.59020  Biso   1.000  H
  Zn27     1.0000 0.88484  0.29565  0.75416  Biso   1.000  Zn
  N59      1.0000 0.89700  0.05570  0.72320  Biso   1.000  N
  H287     1.0000 0.91780  0.03880  0.75460  Biso   1.000  H
  O114     1.0000 0.86930  0.25570  0.62490  Biso   1.000  O
  Zn28     1.0000 0.94640  0.41192  0.87755  Biso   1.000  Zn
  O115     1.0000 0.76284  0.15630  0.55550  Biso   1.000  O
  N60      1.0000 0.94190  0.42590  0.76920  Biso   1.000  N
  H288     1.0000 0.93280  0.35880  0.75020  Biso   1.000  H
  H289     1.0000 0.95880  0.41280  0.80000  Biso   1.000  H
  O116     1.0000 0.77010  0.12590  0.62830  Biso   1.000  O
  N61      1.0000 0.86840  0.53390  0.78300  Biso   1.000  N
  H290     1.0000 0.84540  0.54640  0.75120  Biso   1.000  H
  C255     1.0000 0.72750  0.14210  0.58430  Biso   1.000  C
  O117     1.0000 0.88050  0.18420  0.70650  Biso   1.000  O
  C256     1.0000 0.68200  0.14780  0.57320  Biso   1.000  C
  N62      1.0000 0.82680  0.16590  0.73750  Biso   1.000  N
  H291     1.0000 0.80890  0.18090  0.70650  Biso   1.000  H
  H292     1.0000 0.83830  0.23190  0.75770  Biso   1.000  H
  O118     1.0000 0.85310  0.98240  0.64670  Biso   1.000  O
  N63      1.0000 0.03260  0.56010  0.95460  Biso   1.000  N
  H293     1.0000 0.05300  0.61050  0.98050  Biso   1.000  H
  C257     1.0000 0.63730  0.20190  0.52910  Biso   1.000  C
  H294     1.0000 0.63520  0.23480  0.50520  Biso   1.000  H
  O119     1.0000 0.80210  0.38260  0.62630  Biso   1.000  O
  C258     1.0000 0.59890  0.16210  0.55610  Biso   1.000  C
  N64      1.0000 0.14440  0.95510  0.93060  Biso   1.000  N
  H295     1.0000 0.13980  0.96650  0.90550  Biso   1.000  H
  H296     1.0000 0.16520  0.00500  0.95660  Biso   1.000  H
  O120     1.0000 0.82270  0.41860  0.69520  Biso   1.000  O
  C259     1.0000 0.64310  0.11250  0.60030  Biso   1.000  C
  H297     1.0000 0.64550  0.08230  0.62460  Biso   1.000  H
  O121     1.0000 0.94470  0.17100  0.81280  Biso   1.000  O
  C260     1.0000 0.68420  0.10700  0.60890  Biso   1.000  C
  H298     1.0000 0.71410  0.07510  0.63940  Biso   1.000  H
  O122     1.0000 0.96940  0.21970  0.88390  Biso   1.000  O
  C261     1.0000 0.88180  0.95860  0.69230  Biso   1.000  C
  O123     1.0000 0.88959  0.40950  0.80180  Biso   1.000  O
  C262     1.0000 0.90060  0.82130  0.71370  Biso   1.000  C
  O124     1.0000 0.91410  0.61360  0.86010  Biso   1.000  O
  C263     1.0000 0.92770  0.79270  0.76220  Biso   1.000  C
  H299     1.0000 0.93720  0.86280  0.78360  Biso   1.000  H
  O125     1.0000 0.00175  0.47470  0.94960  Biso   1.000  O
  C264     1.0000 0.94140  0.66360  0.78070  Biso   1.000  C
  H300     1.0000 0.95880  0.64710  0.81360  Biso   1.000  H
  O126     1.0000 0.00130  0.49150  0.88230  Biso   1.000  O
  C265     1.0000 0.92900  0.55810  0.74980  Biso   1.000  C
  O127     1.0000 0.90210  0.33800  0.88470  Biso   1.000  O
  C266     1.0000 0.90240  0.58450  0.70150  Biso   1.000  C
  H301     1.0000 0.89370  0.51450  0.68050  Biso   1.000  H
  O128     1.0000 0.94420  0.35040  0.96460  Biso   1.000  O
  C267     1.0000 0.88780  0.71660  0.68280  Biso   1.000  C
  H302     1.0000 0.86960  0.73340  0.64960  Biso   1.000  H
  C268     1.0000 0.79520  0.43340  0.65000  Biso   1.000  C
  C269     1.0000 0.75100  0.52160  0.62310  Biso   1.000  C
  H303     1.0000 0.74590  0.53540  0.64360  Biso   1.000  H
  H304     1.0000 0.75650  0.60650  0.61610  Biso   1.000  H
  H305     1.0000 0.72210  0.47970  0.59230  Biso   1.000  H
  C270     1.0000 0.97050  0.15030  0.85810  Biso   1.000  C
  C271     1.0000 0.00420  0.03070  0.88240  Biso   1.000  C
  H306     1.0000 0.98870  0.95800  0.88320  Biso   1.000  H
  H307     1.0000 0.01060  0.00420  0.86370  Biso   1.000  H
  H308     1.0000 0.03500  0.05340  0.91590  Biso   1.000  H
  C272     1.0000 0.88270  0.63350  0.81290  Biso   1.000  C
  C273     1.0000 0.86310  0.76880  0.79140  Biso   1.000  C
  C274     1.0000 0.83200  0.79520  0.74170  Biso   1.000  C
  H309     1.0000 0.81900  0.72410  0.71960  Biso   1.000  H
  C275     1.0000 0.81930  0.92550  0.72340  Biso   1.000  C
  H310     1.0000 0.79850  0.94080  0.68960  Biso   1.000  H
  C276     1.0000 0.83750  0.03210  0.75530  Biso   1.000  C
  C277     1.0000 0.86630  0.00690  0.80490  Biso   1.000  C
  H311     1.0000 0.87730  0.07760  0.82650  Biso   1.000  H
  C278     1.0000 0.87900  0.87630  0.82250  Biso   1.000  C
  H312     1.0000 0.89870  0.86050  0.85610  Biso   1.000  H
  C279     1.0000 0.03090  0.56450  0.91890  Biso   1.000  C
  C280     1.0000 0.06390  0.66280  0.92550  Biso   1.000  C
  C281     1.0000 0.06020  0.67910  0.88790  Biso   1.000  C
  H313     1.0000 0.03950  0.62150  0.86060  Biso   1.000  H
  C282     1.0000 0.08560  0.77690  0.88870  Biso   1.000  C
  H314     1.0000 0.08010  0.78790  0.86120  Biso   1.000  H
  C283     1.0000 0.11860  0.85730  0.92910  Biso   1.000  C
  C284     1.0000 0.12400  0.84430  0.96940  Biso   1.000  C
  H315     1.0000 0.14580  0.89960  0.99730  Biso   1.000  H
  C285     1.0000 0.09640  0.74790  0.96630  Biso   1.000  C
  H316     1.0000 0.09960  0.73990  0.99240  Biso   1.000  H
  C286     1.0000 0.90860  0.31160  0.92000  Biso   1.000  C
  C287     1.0000 0.87070  0.22140  0.91080  Biso   1.000  C
  H317     1.0000 0.88760  0.14790  0.93390  Biso   1.000  H
  H318     1.0000 0.85340  0.27270  0.91540  Biso   1.000  H
  H319     1.0000 0.84720  0.18730  0.87720  Biso   1.000  H
  C288     1.0000 0.59610  0.20780  0.52010  Biso   1.000  C
  H320     1.0000 0.56630  0.24210  0.49000  Biso   1.000  H
  Zn29     1.0000 0.75000  0.25000  0.50000  Biso   1.000  Zn
  Zn30     1.0000 0.25000  0.75000  0.50000  Biso   1.000  Zn
  Zn31     1.0000 0.00000  0.50000  0.00000  Biso   1.000  Zn
  Zn32     1.0000 0.50000  0.00000  0.00000  Biso   1.000  Zn
