data_image0
_cell_length_a       14.6315
_cell_length_b       24.776
_cell_length_c       33.169
_cell_angle_alpha    90
_cell_angle_beta     90
_cell_angle_gamma    90

_symmetry_space_group_name_H-M    "P 1"
_symmetry_int_tables_number       1

loop_
  _symmetry_equiv_pos_as_xyz
  'x, y, z'

loop_
  _atom_site_label
  _atom_site_occupancy
  _atom_site_fract_x
  _atom_site_fract_y
  _atom_site_fract_z
  _atom_site_thermal_displace_type
  _atom_site_B_iso_or_equiv
  _atom_site_type_symbol
  Cu1      1.0000 0.56113  0.17568  0.59036  Biso   1.000  Cu
  C1       1.0000 0.50780  0.07990  0.54442  Biso   1.000  C
  C2       1.0000 0.42930  0.05280  0.52150  Biso   1.000  C
  H1       1.0000 0.45390  0.03360  0.49850  Biso   1.000  H
  H2       1.0000 0.40010  0.02660  0.53900  Biso   1.000  H
  C3       1.0000 0.35960  0.10570  0.46850  Biso   1.000  C
  H3       1.0000 0.40230  0.09040  0.45120  Biso   1.000  H
  C4       1.0000 0.30050  0.11400  0.53290  Biso   1.000  C
  H4       1.0000 0.30230  0.10460  0.56000  Biso   1.000  H
  C5       1.0000 0.29690  0.14200  0.45370  Biso   1.000  C
  H5       1.0000 0.29740  0.15120  0.42660  Biso   1.000  H
  C6       1.0000 0.23690  0.14980  0.51971  Biso   1.000  C
  H6       1.0000 0.19530  0.16460  0.53790  Biso   1.000  H
  C7       1.0000 0.23330  0.16470  0.47930  Biso   1.000  C
  C8       1.0000 0.16120  0.20160  0.46360  Biso   1.000  C
  C9       1.0000 0.14370  0.20440  0.42270  Biso   1.000  C
  H7       1.0000 0.17730  0.18340  0.40480  Biso   1.000  H
  C10      1.0000 0.10780  0.23350  0.48844  Biso   1.000  C
  H8       1.0000 0.11690  0.23260  0.51620  Biso   1.000  H
  C11      1.0000 0.07660  0.23820  0.40847  Biso   1.000  C
  H9       1.0000 0.06570  0.23940  0.38090  Biso   1.000  H
  C12      1.0000 0.04170  0.26630  0.47258  Biso   1.000  C
  H10      1.0000 0.00630  0.28700  0.49000  Biso   1.000  H
  N1       1.0000 0.36000  0.09220  0.50743  Biso   1.000  N
  N2       1.0000 0.02610  0.26955  0.43273  Biso   1.000  N
  O1       1.0000 0.48610  0.12220  0.56270  Biso   1.000  O
  O2       1.0000 0.58180  0.05592  0.54412  Biso   1.000  O
  Cu2      1.0000 0.56113  0.67568  0.09036  Biso   1.000  Cu
  C13      1.0000 0.50780  0.57990  0.04442  Biso   1.000  C
  C14      1.0000 0.42930  0.55280  0.02150  Biso   1.000  C
  H11      1.0000 0.45390  0.53360  0.99850  Biso   1.000  H
  H12      1.0000 0.40010  0.52660  0.03900  Biso   1.000  H
  C15      1.0000 0.35960  0.60570  0.96850  Biso   1.000  C
  H13      1.0000 0.40230  0.59040  0.95120  Biso   1.000  H
  C16      1.0000 0.30050  0.61400  0.03290  Biso   1.000  C
  H14      1.0000 0.30230  0.60460  0.06000  Biso   1.000  H
  C17      1.0000 0.29690  0.64200  0.95370  Biso   1.000  C
  H15      1.0000 0.29740  0.65120  0.92660  Biso   1.000  H
  C18      1.0000 0.23690  0.64980  0.01971  Biso   1.000  C
  H16      1.0000 0.19530  0.66460  0.03790  Biso   1.000  H
  C19      1.0000 0.23330  0.66470  0.97930  Biso   1.000  C
  C20      1.0000 0.16120  0.70160  0.96360  Biso   1.000  C
  C21      1.0000 0.14370  0.70440  0.92270  Biso   1.000  C
  H17      1.0000 0.17730  0.68340  0.90480  Biso   1.000  H
  C22      1.0000 0.10780  0.73350  0.98844  Biso   1.000  C
  H18      1.0000 0.11690  0.73260  0.01620  Biso   1.000  H
  C23      1.0000 0.07660  0.73820  0.90847  Biso   1.000  C
  H19      1.0000 0.06570  0.73940  0.88090  Biso   1.000  H
  C24      1.0000 0.04170  0.76630  0.97258  Biso   1.000  C
  H20      1.0000 0.00630  0.78700  0.99000  Biso   1.000  H
  N3       1.0000 0.36000  0.59220  0.00743  Biso   1.000  N
  N4       1.0000 0.02610  0.76955  0.93273  Biso   1.000  N
  O3       1.0000 0.48610  0.62220  0.06270  Biso   1.000  O
  O4       1.0000 0.58180  0.55592  0.04412  Biso   1.000  O
  Cu3      1.0000 0.06113  0.17568  0.09036  Biso   1.000  Cu
  C25      1.0000 0.00780  0.07990  0.04442  Biso   1.000  C
  C26      1.0000 0.92930  0.05280  0.02150  Biso   1.000  C
  H21      1.0000 0.95390  0.03360  0.99850  Biso   1.000  H
  H22      1.0000 0.90010  0.02660  0.03900  Biso   1.000  H
  C27      1.0000 0.85960  0.10570  0.96850  Biso   1.000  C
  H23      1.0000 0.90230  0.09040  0.95120  Biso   1.000  H
  C28      1.0000 0.80050  0.11400  0.03290  Biso   1.000  C
  H24      1.0000 0.80230  0.10460  0.06000  Biso   1.000  H
  C29      1.0000 0.79690  0.14200  0.95370  Biso   1.000  C
  H25      1.0000 0.79740  0.15120  0.92660  Biso   1.000  H
  C30      1.0000 0.73690  0.14980  0.01971  Biso   1.000  C
  H26      1.0000 0.69530  0.16460  0.03790  Biso   1.000  H
  C31      1.0000 0.73330  0.16470  0.97930  Biso   1.000  C
  C32      1.0000 0.66120  0.20160  0.96360  Biso   1.000  C
  C33      1.0000 0.64370  0.20440  0.92270  Biso   1.000  C
  H27      1.0000 0.67730  0.18340  0.90480  Biso   1.000  H
  C34      1.0000 0.60780  0.23350  0.98844  Biso   1.000  C
  H28      1.0000 0.61690  0.23260  0.01620  Biso   1.000  H
  C35      1.0000 0.57660  0.23820  0.90847  Biso   1.000  C
  H29      1.0000 0.56570  0.23940  0.88090  Biso   1.000  H
  C36      1.0000 0.54170  0.26630  0.97258  Biso   1.000  C
  H30      1.0000 0.50630  0.28700  0.99000  Biso   1.000  H
  N5       1.0000 0.86000  0.09220  0.00743  Biso   1.000  N
  N6       1.0000 0.52610  0.26955  0.93273  Biso   1.000  N
  O5       1.0000 0.98610  0.12220  0.06270  Biso   1.000  O
  O6       1.0000 0.08180  0.05592  0.04412  Biso   1.000  O
  Cu4      1.0000 0.06113  0.67568  0.59036  Biso   1.000  Cu
  C37      1.0000 0.00780  0.57990  0.54442  Biso   1.000  C
  C38      1.0000 0.92930  0.55280  0.52150  Biso   1.000  C
  H31      1.0000 0.95390  0.53360  0.49850  Biso   1.000  H
  H32      1.0000 0.90010  0.52660  0.53900  Biso   1.000  H
  C39      1.0000 0.85960  0.60570  0.46850  Biso   1.000  C
  H33      1.0000 0.90230  0.59040  0.45120  Biso   1.000  H
  C40      1.0000 0.80050  0.61400  0.53290  Biso   1.000  C
  H34      1.0000 0.80230  0.60460  0.56000  Biso   1.000  H
  C41      1.0000 0.79690  0.64200  0.45370  Biso   1.000  C
  H35      1.0000 0.79740  0.65120  0.42660  Biso   1.000  H
  C42      1.0000 0.73690  0.64980  0.51971  Biso   1.000  C
  H36      1.0000 0.69530  0.66460  0.53790  Biso   1.000  H
  C43      1.0000 0.73330  0.66470  0.47930  Biso   1.000  C
  C44      1.0000 0.66120  0.70160  0.46360  Biso   1.000  C
  C45      1.0000 0.64370  0.70440  0.42270  Biso   1.000  C
  H37      1.0000 0.67730  0.68340  0.40480  Biso   1.000  H
  C46      1.0000 0.60780  0.73350  0.48844  Biso   1.000  C
  H38      1.0000 0.61690  0.73260  0.51620  Biso   1.000  H
  C47      1.0000 0.57660  0.73820  0.40847  Biso   1.000  C
  H39      1.0000 0.56570  0.73940  0.38090  Biso   1.000  H
  C48      1.0000 0.54170  0.76630  0.47258  Biso   1.000  C
  H40      1.0000 0.50630  0.78700  0.49000  Biso   1.000  H
  N7       1.0000 0.86000  0.59220  0.50743  Biso   1.000  N
  N8       1.0000 0.52610  0.76955  0.43273  Biso   1.000  N
  O7       1.0000 0.98610  0.62220  0.56270  Biso   1.000  O
  O8       1.0000 0.08180  0.55592  0.54412  Biso   1.000  O
  Cu5      1.0000 0.18887  0.57432  0.59036  Biso   1.000  Cu
  C49      1.0000 0.24220  0.67010  0.54442  Biso   1.000  C
  C50      1.0000 0.32070  0.69720  0.52150  Biso   1.000  C
  H41      1.0000 0.29610  0.71640  0.49850  Biso   1.000  H
  H42      1.0000 0.34990  0.72340  0.53900  Biso   1.000  H
  C51      1.0000 0.39040  0.64430  0.46850  Biso   1.000  C
  H43      1.0000 0.34770  0.65960  0.45120  Biso   1.000  H
  C52      1.0000 0.44950  0.63600  0.53290  Biso   1.000  C
  H44      1.0000 0.44770  0.64540  0.56000  Biso   1.000  H
  C53      1.0000 0.45310  0.60800  0.45370  Biso   1.000  C
  H45      1.0000 0.45260  0.59880  0.42660  Biso   1.000  H
  C54      1.0000 0.51310  0.60020  0.51971  Biso   1.000  C
  H46      1.0000 0.55470  0.58540  0.53790  Biso   1.000  H
  C55      1.0000 0.51670  0.58530  0.47930  Biso   1.000  C
  C56      1.0000 0.58880  0.54840  0.46360  Biso   1.000  C
  C57      1.0000 0.60630  0.54560  0.42270  Biso   1.000  C
  H47      1.0000 0.57270  0.56660  0.40480  Biso   1.000  H
  C58      1.0000 0.64220  0.51650  0.48844  Biso   1.000  C
  H48      1.0000 0.63310  0.51740  0.51620  Biso   1.000  H
  C59      1.0000 0.67340  0.51180  0.40847  Biso   1.000  C
  H49      1.0000 0.68430  0.51060  0.38090  Biso   1.000  H
  C60      1.0000 0.70830  0.48370  0.47258  Biso   1.000  C
  H50      1.0000 0.74370  0.46300  0.49000  Biso   1.000  H
  N9       1.0000 0.39000  0.65780  0.50743  Biso   1.000  N
  N10      1.0000 0.72390  0.48045  0.43273  Biso   1.000  N
  O9       1.0000 0.26390  0.62780  0.56270  Biso   1.000  O
  O10      1.0000 0.16820  0.69408  0.54412  Biso   1.000  O
  Cu6      1.0000 0.18887  0.07432  0.09036  Biso   1.000  Cu
  C61      1.0000 0.24220  0.17010  0.04442  Biso   1.000  C
  C62      1.0000 0.32070  0.19720  0.02150  Biso   1.000  C
  H51      1.0000 0.29610  0.21640  0.99850  Biso   1.000  H
  H52      1.0000 0.34990  0.22340  0.03900  Biso   1.000  H
  C63      1.0000 0.39040  0.14430  0.96850  Biso   1.000  C
  H53      1.0000 0.34770  0.15960  0.95120  Biso   1.000  H
  C64      1.0000 0.44950  0.13600  0.03290  Biso   1.000  C
  H54      1.0000 0.44770  0.14540  0.06000  Biso   1.000  H
  C65      1.0000 0.45310  0.10800  0.95370  Biso   1.000  C
  H55      1.0000 0.45260  0.09880  0.92660  Biso   1.000  H
  C66      1.0000 0.51310  0.10020  0.01971  Biso   1.000  C
  H56      1.0000 0.55470  0.08540  0.03790  Biso   1.000  H
  C67      1.0000 0.51670  0.08530  0.97930  Biso   1.000  C
  C68      1.0000 0.58880  0.04840  0.96360  Biso   1.000  C
  C69      1.0000 0.60630  0.04560  0.92270  Biso   1.000  C
  H57      1.0000 0.57270  0.06660  0.90480  Biso   1.000  H
  C70      1.0000 0.64220  0.01650  0.98844  Biso   1.000  C
  H58      1.0000 0.63310  0.01740  0.01620  Biso   1.000  H
  C71      1.0000 0.67340  0.01180  0.90847  Biso   1.000  C
  H59      1.0000 0.68430  0.01060  0.88090  Biso   1.000  H
  C72      1.0000 0.70830  0.98370  0.97258  Biso   1.000  C
  H60      1.0000 0.74370  0.96300  0.99000  Biso   1.000  H
  N11      1.0000 0.39000  0.15780  0.00743  Biso   1.000  N
  N12      1.0000 0.72390  0.98045  0.93273  Biso   1.000  N
  O11      1.0000 0.26390  0.12780  0.06270  Biso   1.000  O
  O12      1.0000 0.16820  0.19408  0.04412  Biso   1.000  O
  Cu7      1.0000 0.68887  0.57432  0.09036  Biso   1.000  Cu
  C73      1.0000 0.74220  0.67010  0.04442  Biso   1.000  C
  C74      1.0000 0.82070  0.69720  0.02150  Biso   1.000  C
  H61      1.0000 0.79610  0.71640  0.99850  Biso   1.000  H
  H62      1.0000 0.84990  0.72340  0.03900  Biso   1.000  H
  C75      1.0000 0.89040  0.64430  0.96850  Biso   1.000  C
  H63      1.0000 0.84770  0.65960  0.95120  Biso   1.000  H
  C76      1.0000 0.94950  0.63600  0.03290  Biso   1.000  C
  H64      1.0000 0.94770  0.64540  0.06000  Biso   1.000  H
  C77      1.0000 0.95310  0.60800  0.95370  Biso   1.000  C
  H65      1.0000 0.95260  0.59880  0.92660  Biso   1.000  H
  C78      1.0000 0.01310  0.60020  0.01971  Biso   1.000  C
  H66      1.0000 0.05470  0.58540  0.03790  Biso   1.000  H
  C79      1.0000 0.01670  0.58530  0.97930  Biso   1.000  C
  C80      1.0000 0.08880  0.54840  0.96360  Biso   1.000  C
  C81      1.0000 0.10630  0.54560  0.92270  Biso   1.000  C
  H67      1.0000 0.07270  0.56660  0.90480  Biso   1.000  H
  C82      1.0000 0.14220  0.51650  0.98844  Biso   1.000  C
  H68      1.0000 0.13310  0.51740  0.01620  Biso   1.000  H
  C83      1.0000 0.17340  0.51180  0.90847  Biso   1.000  C
  H69      1.0000 0.18430  0.51060  0.88090  Biso   1.000  H
  C84      1.0000 0.20830  0.48370  0.97258  Biso   1.000  C
  H70      1.0000 0.24370  0.46300  0.99000  Biso   1.000  H
  N13      1.0000 0.89000  0.65780  0.00743  Biso   1.000  N
  N14      1.0000 0.22390  0.48045  0.93273  Biso   1.000  N
  O13      1.0000 0.76390  0.62780  0.06270  Biso   1.000  O
  O14      1.0000 0.66820  0.69408  0.04412  Biso   1.000  O
  Cu8      1.0000 0.68887  0.07432  0.59036  Biso   1.000  Cu
  C85      1.0000 0.74220  0.17010  0.54442  Biso   1.000  C
  C86      1.0000 0.82070  0.19720  0.52150  Biso   1.000  C
  H71      1.0000 0.79610  0.21640  0.49850  Biso   1.000  H
  H72      1.0000 0.84990  0.22340  0.53900  Biso   1.000  H
  C87      1.0000 0.89040  0.14430  0.46850  Biso   1.000  C
  H73      1.0000 0.84770  0.15960  0.45120  Biso   1.000  H
  C88      1.0000 0.94950  0.13600  0.53290  Biso   1.000  C
  H74      1.0000 0.94770  0.14540  0.56000  Biso   1.000  H
  C89      1.0000 0.95310  0.10800  0.45370  Biso   1.000  C
  H75      1.0000 0.95260  0.09880  0.42660  Biso   1.000  H
  C90      1.0000 0.01310  0.10020  0.51971  Biso   1.000  C
  H76      1.0000 0.05470  0.08540  0.53790  Biso   1.000  H
  C91      1.0000 0.01670  0.08530  0.47930  Biso   1.000  C
  C92      1.0000 0.08880  0.04840  0.46360  Biso   1.000  C
  C93      1.0000 0.10630  0.04560  0.42270  Biso   1.000  C
  H77      1.0000 0.07270  0.06660  0.40480  Biso   1.000  H
  C94      1.0000 0.14220  0.01650  0.48844  Biso   1.000  C
  H78      1.0000 0.13310  0.01740  0.51620  Biso   1.000  H
  C95      1.0000 0.17340  0.01180  0.40847  Biso   1.000  C
  H79      1.0000 0.18430  0.01060  0.38090  Biso   1.000  H
  C96      1.0000 0.20830  0.98370  0.47258  Biso   1.000  C
  H80      1.0000 0.24370  0.96300  0.49000  Biso   1.000  H
  N15      1.0000 0.89000  0.15780  0.50743  Biso   1.000  N
  N16      1.0000 0.22390  0.98045  0.43273  Biso   1.000  N
  O15      1.0000 0.76390  0.12780  0.56270  Biso   1.000  O
  O16      1.0000 0.66820  0.19408  0.54412  Biso   1.000  O
  Cu9      1.0000 0.18887  0.17568  0.15964  Biso   1.000  Cu
  C97      1.0000 0.24220  0.07990  0.20558  Biso   1.000  C
  C98      1.0000 0.32070  0.05280  0.22850  Biso   1.000  C
  H81      1.0000 0.29610  0.03360  0.25150  Biso   1.000  H
  H82      1.0000 0.34990  0.02660  0.21100  Biso   1.000  H
  C99      1.0000 0.39040  0.10570  0.28150  Biso   1.000  C
  H83      1.0000 0.34770  0.09040  0.29880  Biso   1.000  H
  C100     1.0000 0.44950  0.11400  0.21710  Biso   1.000  C
  H84      1.0000 0.44770  0.10460  0.19000  Biso   1.000  H
  C101     1.0000 0.45310  0.14200  0.29630  Biso   1.000  C
  H85      1.0000 0.45260  0.15120  0.32340  Biso   1.000  H
  C102     1.0000 0.51310  0.14980  0.23029  Biso   1.000  C
  H86      1.0000 0.55470  0.16460  0.21210  Biso   1.000  H
  C103     1.0000 0.51670  0.16470  0.27070  Biso   1.000  C
  C104     1.0000 0.58880  0.20160  0.28640  Biso   1.000  C
  C105     1.0000 0.60630  0.20440  0.32730  Biso   1.000  C
  H87      1.0000 0.57270  0.18340  0.34520  Biso   1.000  H
  C106     1.0000 0.64220  0.23350  0.26156  Biso   1.000  C
  H88      1.0000 0.63310  0.23260  0.23380  Biso   1.000  H
  C107     1.0000 0.67340  0.23820  0.34153  Biso   1.000  C
  H89      1.0000 0.68430  0.23940  0.36910  Biso   1.000  H
  C108     1.0000 0.70830  0.26630  0.27742  Biso   1.000  C
  H90      1.0000 0.74370  0.28700  0.26000  Biso   1.000  H
  N17      1.0000 0.39000  0.09220  0.24257  Biso   1.000  N
  N18      1.0000 0.72390  0.26955  0.31727  Biso   1.000  N
  O17      1.0000 0.26390  0.12220  0.18730  Biso   1.000  O
  O18      1.0000 0.16820  0.05592  0.20588  Biso   1.000  O
  Cu10     1.0000 0.18887  0.67568  0.65964  Biso   1.000  Cu
  C109     1.0000 0.24220  0.57990  0.70558  Biso   1.000  C
  C110     1.0000 0.32070  0.55280  0.72850  Biso   1.000  C
  H91      1.0000 0.29610  0.53360  0.75150  Biso   1.000  H
  H92      1.0000 0.34990  0.52660  0.71100  Biso   1.000  H
  C111     1.0000 0.39040  0.60570  0.78150  Biso   1.000  C
  H93      1.0000 0.34770  0.59040  0.79880  Biso   1.000  H
  C112     1.0000 0.44950  0.61400  0.71710  Biso   1.000  C
  H94      1.0000 0.44770  0.60460  0.69000  Biso   1.000  H
  C113     1.0000 0.45310  0.64200  0.79630  Biso   1.000  C
  H95      1.0000 0.45260  0.65120  0.82340  Biso   1.000  H
  C114     1.0000 0.51310  0.64980  0.73029  Biso   1.000  C
  H96      1.0000 0.55470  0.66460  0.71210  Biso   1.000  H
  C115     1.0000 0.51670  0.66470  0.77070  Biso   1.000  C
  C116     1.0000 0.58880  0.70160  0.78640  Biso   1.000  C
  C117     1.0000 0.60630  0.70440  0.82730  Biso   1.000  C
  H97      1.0000 0.57270  0.68340  0.84520  Biso   1.000  H
  C118     1.0000 0.64220  0.73350  0.76156  Biso   1.000  C
  H98      1.0000 0.63310  0.73260  0.73380  Biso   1.000  H
  C119     1.0000 0.67340  0.73820  0.84153  Biso   1.000  C
  H99      1.0000 0.68430  0.73940  0.86910  Biso   1.000  H
  C120     1.0000 0.70830  0.76630  0.77742  Biso   1.000  C
  H100     1.0000 0.74370  0.78700  0.76000  Biso   1.000  H
  N19      1.0000 0.39000  0.59220  0.74257  Biso   1.000  N
  N20      1.0000 0.72390  0.76955  0.81727  Biso   1.000  N
  O19      1.0000 0.26390  0.62220  0.68730  Biso   1.000  O
  O20      1.0000 0.16820  0.55592  0.70588  Biso   1.000  O
  Cu11     1.0000 0.68887  0.17568  0.65964  Biso   1.000  Cu
  C121     1.0000 0.74220  0.07990  0.70558  Biso   1.000  C
  C122     1.0000 0.82070  0.05280  0.72850  Biso   1.000  C
  H101     1.0000 0.79610  0.03360  0.75150  Biso   1.000  H
  H102     1.0000 0.84990  0.02660  0.71100  Biso   1.000  H
  C123     1.0000 0.89040  0.10570  0.78150  Biso   1.000  C
  H103     1.0000 0.84770  0.09040  0.79880  Biso   1.000  H
  C124     1.0000 0.94950  0.11400  0.71710  Biso   1.000  C
  H104     1.0000 0.94770  0.10460  0.69000  Biso   1.000  H
  C125     1.0000 0.95310  0.14200  0.79630  Biso   1.000  C
  H105     1.0000 0.95260  0.15120  0.82340  Biso   1.000  H
  C126     1.0000 0.01310  0.14980  0.73029  Biso   1.000  C
  H106     1.0000 0.05470  0.16460  0.71210  Biso   1.000  H
  C127     1.0000 0.01670  0.16470  0.77070  Biso   1.000  C
  C128     1.0000 0.08880  0.20160  0.78640  Biso   1.000  C
  C129     1.0000 0.10630  0.20440  0.82730  Biso   1.000  C
  H107     1.0000 0.07270  0.18340  0.84520  Biso   1.000  H
  C130     1.0000 0.14220  0.23350  0.76156  Biso   1.000  C
  H108     1.0000 0.13310  0.23260  0.73380  Biso   1.000  H
  C131     1.0000 0.17340  0.23820  0.84153  Biso   1.000  C
  H109     1.0000 0.18430  0.23940  0.86910  Biso   1.000  H
  C132     1.0000 0.20830  0.26630  0.77742  Biso   1.000  C
  H110     1.0000 0.24370  0.28700  0.76000  Biso   1.000  H
  N21      1.0000 0.89000  0.09220  0.74257  Biso   1.000  N
  N22      1.0000 0.22390  0.26955  0.81727  Biso   1.000  N
  O21      1.0000 0.76390  0.12220  0.68730  Biso   1.000  O
  O22      1.0000 0.66820  0.05592  0.70588  Biso   1.000  O
  Cu12     1.0000 0.68887  0.67568  0.15964  Biso   1.000  Cu
  C133     1.0000 0.74220  0.57990  0.20558  Biso   1.000  C
  C134     1.0000 0.82070  0.55280  0.22850  Biso   1.000  C
  H111     1.0000 0.79610  0.53360  0.25150  Biso   1.000  H
  H112     1.0000 0.84990  0.52660  0.21100  Biso   1.000  H
  C135     1.0000 0.89040  0.60570  0.28150  Biso   1.000  C
  H113     1.0000 0.84770  0.59040  0.29880  Biso   1.000  H
  C136     1.0000 0.94950  0.61400  0.21710  Biso   1.000  C
  H114     1.0000 0.94770  0.60460  0.19000  Biso   1.000  H
  C137     1.0000 0.95310  0.64200  0.29630  Biso   1.000  C
  H115     1.0000 0.95260  0.65120  0.32340  Biso   1.000  H
  C138     1.0000 0.01310  0.64980  0.23029  Biso   1.000  C
  H116     1.0000 0.05470  0.66460  0.21210  Biso   1.000  H
  C139     1.0000 0.01670  0.66470  0.27070  Biso   1.000  C
  C140     1.0000 0.08880  0.70160  0.28640  Biso   1.000  C
  C141     1.0000 0.10630  0.70440  0.32730  Biso   1.000  C
  H117     1.0000 0.07270  0.68340  0.34520  Biso   1.000  H
  C142     1.0000 0.14220  0.73350  0.26156  Biso   1.000  C
  H118     1.0000 0.13310  0.73260  0.23380  Biso   1.000  H
  C143     1.0000 0.17340  0.73820  0.34153  Biso   1.000  C
  H119     1.0000 0.18430  0.73940  0.36910  Biso   1.000  H
  C144     1.0000 0.20830  0.76630  0.27742  Biso   1.000  C
  H120     1.0000 0.24370  0.78700  0.26000  Biso   1.000  H
  N23      1.0000 0.89000  0.59220  0.24257  Biso   1.000  N
  N24      1.0000 0.22390  0.76955  0.31727  Biso   1.000  N
  O23      1.0000 0.76390  0.62220  0.18730  Biso   1.000  O
  O24      1.0000 0.66820  0.55592  0.20588  Biso   1.000  O
  Cu13     1.0000 0.56113  0.57432  0.15964  Biso   1.000  Cu
  C145     1.0000 0.50780  0.67010  0.20558  Biso   1.000  C
  C146     1.0000 0.42930  0.69720  0.22850  Biso   1.000  C
  H121     1.0000 0.45390  0.71640  0.25150  Biso   1.000  H
  H122     1.0000 0.40010  0.72340  0.21100  Biso   1.000  H
  C147     1.0000 0.35960  0.64430  0.28150  Biso   1.000  C
  H123     1.0000 0.40230  0.65960  0.29880  Biso   1.000  H
  C148     1.0000 0.30050  0.63600  0.21710  Biso   1.000  C
  H124     1.0000 0.30230  0.64540  0.19000  Biso   1.000  H
  C149     1.0000 0.29690  0.60800  0.29630  Biso   1.000  C
  H125     1.0000 0.29740  0.59880  0.32340  Biso   1.000  H
  C150     1.0000 0.23690  0.60020  0.23029  Biso   1.000  C
  H126     1.0000 0.19530  0.58540  0.21210  Biso   1.000  H
  C151     1.0000 0.23330  0.58530  0.27070  Biso   1.000  C
  C152     1.0000 0.16120  0.54840  0.28640  Biso   1.000  C
  C153     1.0000 0.14370  0.54560  0.32730  Biso   1.000  C
  H127     1.0000 0.17730  0.56660  0.34520  Biso   1.000  H
  C154     1.0000 0.10780  0.51650  0.26156  Biso   1.000  C
  H128     1.0000 0.11690  0.51740  0.23380  Biso   1.000  H
  C155     1.0000 0.07660  0.51180  0.34153  Biso   1.000  C
  H129     1.0000 0.06570  0.51060  0.36910  Biso   1.000  H
  C156     1.0000 0.04170  0.48370  0.27742  Biso   1.000  C
  H130     1.0000 0.00630  0.46300  0.26000  Biso   1.000  H
  N25      1.0000 0.36000  0.65780  0.24257  Biso   1.000  N
  N26      1.0000 0.02610  0.48045  0.31727  Biso   1.000  N
  O25      1.0000 0.48610  0.62780  0.18730  Biso   1.000  O
  O26      1.0000 0.58180  0.69408  0.20588  Biso   1.000  O
  Cu14     1.0000 0.56113  0.07432  0.65964  Biso   1.000  Cu
  C157     1.0000 0.50780  0.17010  0.70558  Biso   1.000  C
  C158     1.0000 0.42930  0.19720  0.72850  Biso   1.000  C
  H131     1.0000 0.45390  0.21640  0.75150  Biso   1.000  H
  H132     1.0000 0.40010  0.22340  0.71100  Biso   1.000  H
  C159     1.0000 0.35960  0.14430  0.78150  Biso   1.000  C
  H133     1.0000 0.40230  0.15960  0.79880  Biso   1.000  H
  C160     1.0000 0.30050  0.13600  0.71710  Biso   1.000  C
  H134     1.0000 0.30230  0.14540  0.69000  Biso   1.000  H
  C161     1.0000 0.29690  0.10800  0.79630  Biso   1.000  C
  H135     1.0000 0.29740  0.09880  0.82340  Biso   1.000  H
  C162     1.0000 0.23690  0.10020  0.73029  Biso   1.000  C
  H136     1.0000 0.19530  0.08540  0.71210  Biso   1.000  H
  C163     1.0000 0.23330  0.08530  0.77070  Biso   1.000  C
  C164     1.0000 0.16120  0.04840  0.78640  Biso   1.000  C
  C165     1.0000 0.14370  0.04560  0.82730  Biso   1.000  C
  H137     1.0000 0.17730  0.06660  0.84520  Biso   1.000  H
  C166     1.0000 0.10780  0.01650  0.76156  Biso   1.000  C
  H138     1.0000 0.11690  0.01740  0.73380  Biso   1.000  H
  C167     1.0000 0.07660  0.01180  0.84153  Biso   1.000  C
  H139     1.0000 0.06570  0.01060  0.86910  Biso   1.000  H
  C168     1.0000 0.04170  0.98370  0.77742  Biso   1.000  C
  H140     1.0000 0.00630  0.96300  0.76000  Biso   1.000  H
  N27      1.0000 0.36000  0.15780  0.74257  Biso   1.000  N
  N28      1.0000 0.02610  0.98045  0.81727  Biso   1.000  N
  O27      1.0000 0.48610  0.12780  0.68730  Biso   1.000  O
  O28      1.0000 0.58180  0.19408  0.70588  Biso   1.000  O
  Cu15     1.0000 0.06113  0.57432  0.65964  Biso   1.000  Cu
  C169     1.0000 0.00780  0.67010  0.70558  Biso   1.000  C
  C170     1.0000 0.92930  0.69720  0.72850  Biso   1.000  C
  H141     1.0000 0.95390  0.71640  0.75150  Biso   1.000  H
  H142     1.0000 0.90010  0.72340  0.71100  Biso   1.000  H
  C171     1.0000 0.85960  0.64430  0.78150  Biso   1.000  C
  H143     1.0000 0.90230  0.65960  0.79880  Biso   1.000  H
  C172     1.0000 0.80050  0.63600  0.71710  Biso   1.000  C
  H144     1.0000 0.80230  0.64540  0.69000  Biso   1.000  H
  C173     1.0000 0.79690  0.60800  0.79630  Biso   1.000  C
  H145     1.0000 0.79740  0.59880  0.82340  Biso   1.000  H
  C174     1.0000 0.73690  0.60020  0.73029  Biso   1.000  C
  H146     1.0000 0.69530  0.58540  0.71210  Biso   1.000  H
  C175     1.0000 0.73330  0.58530  0.77070  Biso   1.000  C
  C176     1.0000 0.66120  0.54840  0.78640  Biso   1.000  C
  C177     1.0000 0.64370  0.54560  0.82730  Biso   1.000  C
  H147     1.0000 0.67730  0.56660  0.84520  Biso   1.000  H
  C178     1.0000 0.60780  0.51650  0.76156  Biso   1.000  C
  H148     1.0000 0.61690  0.51740  0.73380  Biso   1.000  H
  C179     1.0000 0.57660  0.51180  0.84153  Biso   1.000  C
  H149     1.0000 0.56570  0.51060  0.86910  Biso   1.000  H
  C180     1.0000 0.54170  0.48370  0.77742  Biso   1.000  C
  H150     1.0000 0.50630  0.46300  0.76000  Biso   1.000  H
  N29      1.0000 0.86000  0.65780  0.74257  Biso   1.000  N
  N30      1.0000 0.52610  0.48045  0.81727  Biso   1.000  N
  O29      1.0000 0.98610  0.62780  0.68730  Biso   1.000  O
  O30      1.0000 0.08180  0.69408  0.70588  Biso   1.000  O
  Cu16     1.0000 0.06113  0.07432  0.15964  Biso   1.000  Cu
  C181     1.0000 0.00780  0.17010  0.20558  Biso   1.000  C
  C182     1.0000 0.92930  0.19720  0.22850  Biso   1.000  C
  H151     1.0000 0.95390  0.21640  0.25150  Biso   1.000  H
  H152     1.0000 0.90010  0.22340  0.21100  Biso   1.000  H
  C183     1.0000 0.85960  0.14430  0.28150  Biso   1.000  C
  H153     1.0000 0.90230  0.15960  0.29880  Biso   1.000  H
  C184     1.0000 0.80050  0.13600  0.21710  Biso   1.000  C
  H154     1.0000 0.80230  0.14540  0.19000  Biso   1.000  H
  C185     1.0000 0.79690  0.10800  0.29630  Biso   1.000  C
  H155     1.0000 0.79740  0.09880  0.32340  Biso   1.000  H
  C186     1.0000 0.73690  0.10020  0.23029  Biso   1.000  C
  H156     1.0000 0.69530  0.08540  0.21210  Biso   1.000  H
  C187     1.0000 0.73330  0.08530  0.27070  Biso   1.000  C
  C188     1.0000 0.66120  0.04840  0.28640  Biso   1.000  C
  C189     1.0000 0.64370  0.04560  0.32730  Biso   1.000  C
  H157     1.0000 0.67730  0.06660  0.34520  Biso   1.000  H
  C190     1.0000 0.60780  0.01650  0.26156  Biso   1.000  C
  H158     1.0000 0.61690  0.01740  0.23380  Biso   1.000  H
  C191     1.0000 0.57660  0.01180  0.34153  Biso   1.000  C
  H159     1.0000 0.56570  0.01060  0.36910  Biso   1.000  H
  C192     1.0000 0.54170  0.98370  0.27742  Biso   1.000  C
  H160     1.0000 0.50630  0.96300  0.26000  Biso   1.000  H
  N31      1.0000 0.86000  0.15780  0.24257  Biso   1.000  N
  N32      1.0000 0.52610  0.98045  0.31727  Biso   1.000  N
  O31      1.0000 0.98610  0.12780  0.18730  Biso   1.000  O
  O32      1.0000 0.08180  0.19408  0.20588  Biso   1.000  O
  Cu17     1.0000 0.43887  0.82432  0.40964  Biso   1.000  Cu
  C193     1.0000 0.49220  0.92010  0.45558  Biso   1.000  C
  C194     1.0000 0.57070  0.94720  0.47850  Biso   1.000  C
  H161     1.0000 0.54610  0.96640  0.50150  Biso   1.000  H
  H162     1.0000 0.59990  0.97340  0.46100  Biso   1.000  H
  C195     1.0000 0.64040  0.89430  0.53150  Biso   1.000  C
  H163     1.0000 0.59770  0.90960  0.54880  Biso   1.000  H
  C196     1.0000 0.69950  0.88600  0.46710  Biso   1.000  C
  H164     1.0000 0.69770  0.89540  0.44000  Biso   1.000  H
  C197     1.0000 0.70310  0.85800  0.54630  Biso   1.000  C
  H165     1.0000 0.70260  0.84880  0.57340  Biso   1.000  H
  C198     1.0000 0.76310  0.85020  0.48029  Biso   1.000  C
  H166     1.0000 0.80470  0.83540  0.46210  Biso   1.000  H
  C199     1.0000 0.76670  0.83530  0.52070  Biso   1.000  C
  C200     1.0000 0.83880  0.79840  0.53640  Biso   1.000  C
  C201     1.0000 0.85630  0.79560  0.57730  Biso   1.000  C
  H167     1.0000 0.82270  0.81660  0.59520  Biso   1.000  H
  C202     1.0000 0.89220  0.76650  0.51156  Biso   1.000  C
  H168     1.0000 0.88310  0.76740  0.48380  Biso   1.000  H
  C203     1.0000 0.92340  0.76180  0.59153  Biso   1.000  C
  H169     1.0000 0.93430  0.76060  0.61910  Biso   1.000  H
  C204     1.0000 0.95830  0.73370  0.52742  Biso   1.000  C
  H170     1.0000 0.99370  0.71300  0.51000  Biso   1.000  H
  N33      1.0000 0.64000  0.90780  0.49257  Biso   1.000  N
  N34      1.0000 0.97390  0.73045  0.56727  Biso   1.000  N
  O33      1.0000 0.51390  0.87780  0.43730  Biso   1.000  O
  O34      1.0000 0.41820  0.94408  0.45588  Biso   1.000  O
  Cu18     1.0000 0.43887  0.32432  0.90964  Biso   1.000  Cu
  C205     1.0000 0.49220  0.42010  0.95558  Biso   1.000  C
  C206     1.0000 0.57070  0.44720  0.97850  Biso   1.000  C
  H171     1.0000 0.54610  0.46640  0.00150  Biso   1.000  H
  H172     1.0000 0.59990  0.47340  0.96100  Biso   1.000  H
  C207     1.0000 0.64040  0.39430  0.03150  Biso   1.000  C
  H173     1.0000 0.59770  0.40960  0.04880  Biso   1.000  H
  C208     1.0000 0.69950  0.38600  0.96710  Biso   1.000  C
  H174     1.0000 0.69770  0.39540  0.94000  Biso   1.000  H
  C209     1.0000 0.70310  0.35800  0.04630  Biso   1.000  C
  H175     1.0000 0.70260  0.34880  0.07340  Biso   1.000  H
  C210     1.0000 0.76310  0.35020  0.98029  Biso   1.000  C
  H176     1.0000 0.80470  0.33540  0.96210  Biso   1.000  H
  C211     1.0000 0.76670  0.33530  0.02070  Biso   1.000  C
  C212     1.0000 0.83880  0.29840  0.03640  Biso   1.000  C
  C213     1.0000 0.85630  0.29560  0.07730  Biso   1.000  C
  H177     1.0000 0.82270  0.31660  0.09520  Biso   1.000  H
  C214     1.0000 0.89220  0.26650  0.01156  Biso   1.000  C
  H178     1.0000 0.88310  0.26740  0.98380  Biso   1.000  H
  C215     1.0000 0.92340  0.26180  0.09153  Biso   1.000  C
  H179     1.0000 0.93430  0.26060  0.11910  Biso   1.000  H
  C216     1.0000 0.95830  0.23370  0.02742  Biso   1.000  C
  H180     1.0000 0.99370  0.21300  0.01000  Biso   1.000  H
  N35      1.0000 0.64000  0.40780  0.99257  Biso   1.000  N
  N36      1.0000 0.97390  0.23045  0.06727  Biso   1.000  N
  O35      1.0000 0.51390  0.37780  0.93730  Biso   1.000  O
  O36      1.0000 0.41820  0.44408  0.95588  Biso   1.000  O
  Cu19     1.0000 0.93887  0.82432  0.90964  Biso   1.000  Cu
  C217     1.0000 0.99220  0.92010  0.95558  Biso   1.000  C
  C218     1.0000 0.07070  0.94720  0.97850  Biso   1.000  C
  H181     1.0000 0.04610  0.96640  0.00150  Biso   1.000  H
  H182     1.0000 0.09990  0.97340  0.96100  Biso   1.000  H
  C219     1.0000 0.14040  0.89430  0.03150  Biso   1.000  C
  H183     1.0000 0.09770  0.90960  0.04880  Biso   1.000  H
  C220     1.0000 0.19950  0.88600  0.96710  Biso   1.000  C
  H184     1.0000 0.19770  0.89540  0.94000  Biso   1.000  H
  C221     1.0000 0.20310  0.85800  0.04630  Biso   1.000  C
  H185     1.0000 0.20260  0.84880  0.07340  Biso   1.000  H
  C222     1.0000 0.26310  0.85020  0.98029  Biso   1.000  C
  H186     1.0000 0.30470  0.83540  0.96210  Biso   1.000  H
  C223     1.0000 0.26670  0.83530  0.02070  Biso   1.000  C
  C224     1.0000 0.33880  0.79840  0.03640  Biso   1.000  C
  C225     1.0000 0.35630  0.79560  0.07730  Biso   1.000  C
  H187     1.0000 0.32270  0.81660  0.09520  Biso   1.000  H
  C226     1.0000 0.39220  0.76650  0.01156  Biso   1.000  C
  H188     1.0000 0.38310  0.76740  0.98380  Biso   1.000  H
  C227     1.0000 0.42340  0.76180  0.09153  Biso   1.000  C
  H189     1.0000 0.43430  0.76060  0.11910  Biso   1.000  H
  C228     1.0000 0.45830  0.73370  0.02742  Biso   1.000  C
  H190     1.0000 0.49370  0.71300  0.01000  Biso   1.000  H
  N37      1.0000 0.14000  0.90780  0.99257  Biso   1.000  N
  N38      1.0000 0.47390  0.73045  0.06727  Biso   1.000  N
  O37      1.0000 0.01390  0.87780  0.93730  Biso   1.000  O
  O38      1.0000 0.91820  0.94408  0.95588  Biso   1.000  O
  Cu20     1.0000 0.93887  0.32432  0.40964  Biso   1.000  Cu
  C229     1.0000 0.99220  0.42010  0.45558  Biso   1.000  C
  C230     1.0000 0.07070  0.44720  0.47850  Biso   1.000  C
  H191     1.0000 0.04610  0.46640  0.50150  Biso   1.000  H
  H192     1.0000 0.09990  0.47340  0.46100  Biso   1.000  H
  C231     1.0000 0.14040  0.39430  0.53150  Biso   1.000  C
  H193     1.0000 0.09770  0.40960  0.54880  Biso   1.000  H
  C232     1.0000 0.19950  0.38600  0.46710  Biso   1.000  C
  H194     1.0000 0.19770  0.39540  0.44000  Biso   1.000  H
  C233     1.0000 0.20310  0.35800  0.54630  Biso   1.000  C
  H195     1.0000 0.20260  0.34880  0.57340  Biso   1.000  H
  C234     1.0000 0.26310  0.35020  0.48029  Biso   1.000  C
  H196     1.0000 0.30470  0.33540  0.46210  Biso   1.000  H
  C235     1.0000 0.26670  0.33530  0.52070  Biso   1.000  C
  C236     1.0000 0.33880  0.29840  0.53640  Biso   1.000  C
  C237     1.0000 0.35630  0.29560  0.57730  Biso   1.000  C
  H197     1.0000 0.32270  0.31660  0.59520  Biso   1.000  H
  C238     1.0000 0.39220  0.26650  0.51156  Biso   1.000  C
  H198     1.0000 0.38310  0.26740  0.48380  Biso   1.000  H
  C239     1.0000 0.42340  0.26180  0.59153  Biso   1.000  C
  H199     1.0000 0.43430  0.26060  0.61910  Biso   1.000  H
  C240     1.0000 0.45830  0.23370  0.52742  Biso   1.000  C
  H200     1.0000 0.49370  0.21300  0.51000  Biso   1.000  H
  N39      1.0000 0.14000  0.40780  0.49257  Biso   1.000  N
  N40      1.0000 0.47390  0.23045  0.56727  Biso   1.000  N
  O39      1.0000 0.01390  0.37780  0.43730  Biso   1.000  O
  O40      1.0000 0.91820  0.44408  0.45588  Biso   1.000  O
  Cu21     1.0000 0.81113  0.42568  0.40964  Biso   1.000  Cu
  C241     1.0000 0.75780  0.32990  0.45558  Biso   1.000  C
  C242     1.0000 0.67930  0.30280  0.47850  Biso   1.000  C
  H201     1.0000 0.70390  0.28360  0.50150  Biso   1.000  H
  H202     1.0000 0.65010  0.27660  0.46100  Biso   1.000  H
  C243     1.0000 0.60960  0.35570  0.53150  Biso   1.000  C
  H203     1.0000 0.65230  0.34040  0.54880  Biso   1.000  H
  C244     1.0000 0.55050  0.36400  0.46710  Biso   1.000  C
  H204     1.0000 0.55230  0.35460  0.44000  Biso   1.000  H
  C245     1.0000 0.54690  0.39200  0.54630  Biso   1.000  C
  H205     1.0000 0.54740  0.40120  0.57340  Biso   1.000  H
  C246     1.0000 0.48690  0.39980  0.48029  Biso   1.000  C
  H206     1.0000 0.44530  0.41460  0.46210  Biso   1.000  H
  C247     1.0000 0.48330  0.41470  0.52070  Biso   1.000  C
  C248     1.0000 0.41120  0.45160  0.53640  Biso   1.000  C
  C249     1.0000 0.39370  0.45440  0.57730  Biso   1.000  C
  H207     1.0000 0.42730  0.43340  0.59520  Biso   1.000  H
  C250     1.0000 0.35780  0.48350  0.51156  Biso   1.000  C
  H208     1.0000 0.36690  0.48260  0.48380  Biso   1.000  H
  C251     1.0000 0.32660  0.48820  0.59153  Biso   1.000  C
  H209     1.0000 0.31570  0.48940  0.61910  Biso   1.000  H
  C252     1.0000 0.29170  0.51630  0.52742  Biso   1.000  C
  H210     1.0000 0.25630  0.53700  0.51000  Biso   1.000  H
  N41      1.0000 0.61000  0.34220  0.49257  Biso   1.000  N
  N42      1.0000 0.27610  0.51955  0.56727  Biso   1.000  N
  O41      1.0000 0.73610  0.37220  0.43730  Biso   1.000  O
  O42      1.0000 0.83180  0.30592  0.45588  Biso   1.000  O
  Cu22     1.0000 0.81113  0.92568  0.90964  Biso   1.000  Cu
  C253     1.0000 0.75780  0.82990  0.95558  Biso   1.000  C
  C254     1.0000 0.67930  0.80280  0.97850  Biso   1.000  C
  H211     1.0000 0.70390  0.78360  0.00150  Biso   1.000  H
  H212     1.0000 0.65010  0.77660  0.96100  Biso   1.000  H
  C255     1.0000 0.60960  0.85570  0.03150  Biso   1.000  C
  H213     1.0000 0.65230  0.84040  0.04880  Biso   1.000  H
  C256     1.0000 0.55050  0.86400  0.96710  Biso   1.000  C
  H214     1.0000 0.55230  0.85460  0.94000  Biso   1.000  H
  C257     1.0000 0.54690  0.89200  0.04630  Biso   1.000  C
  H215     1.0000 0.54740  0.90120  0.07340  Biso   1.000  H
  C258     1.0000 0.48690  0.89980  0.98029  Biso   1.000  C
  H216     1.0000 0.44530  0.91460  0.96210  Biso   1.000  H
  C259     1.0000 0.48330  0.91470  0.02070  Biso   1.000  C
  C260     1.0000 0.41120  0.95160  0.03640  Biso   1.000  C
  C261     1.0000 0.39370  0.95440  0.07730  Biso   1.000  C
  H217     1.0000 0.42730  0.93340  0.09520  Biso   1.000  H
  C262     1.0000 0.35780  0.98350  0.01156  Biso   1.000  C
  H218     1.0000 0.36690  0.98260  0.98380  Biso   1.000  H
  C263     1.0000 0.32660  0.98820  0.09153  Biso   1.000  C
  H219     1.0000 0.31570  0.98940  0.11910  Biso   1.000  H
  C264     1.0000 0.29170  0.01630  0.02742  Biso   1.000  C
  H220     1.0000 0.25630  0.03700  0.01000  Biso   1.000  H
  N43      1.0000 0.61000  0.84220  0.99257  Biso   1.000  N
  N44      1.0000 0.27610  0.01955  0.06727  Biso   1.000  N
  O43      1.0000 0.73610  0.87220  0.93730  Biso   1.000  O
  O44      1.0000 0.83180  0.80592  0.95588  Biso   1.000  O
  Cu23     1.0000 0.31113  0.42568  0.90964  Biso   1.000  Cu
  C265     1.0000 0.25780  0.32990  0.95558  Biso   1.000  C
  C266     1.0000 0.17930  0.30280  0.97850  Biso   1.000  C
  H221     1.0000 0.20390  0.28360  0.00150  Biso   1.000  H
  H222     1.0000 0.15010  0.27660  0.96100  Biso   1.000  H
  C267     1.0000 0.10960  0.35570  0.03150  Biso   1.000  C
  H223     1.0000 0.15230  0.34040  0.04880  Biso   1.000  H
  C268     1.0000 0.05050  0.36400  0.96710  Biso   1.000  C
  H224     1.0000 0.05230  0.35460  0.94000  Biso   1.000  H
  C269     1.0000 0.04690  0.39200  0.04630  Biso   1.000  C
  H225     1.0000 0.04740  0.40120  0.07340  Biso   1.000  H
  C270     1.0000 0.98690  0.39980  0.98029  Biso   1.000  C
  H226     1.0000 0.94530  0.41460  0.96210  Biso   1.000  H
  C271     1.0000 0.98330  0.41470  0.02070  Biso   1.000  C
  C272     1.0000 0.91120  0.45160  0.03640  Biso   1.000  C
  C273     1.0000 0.89370  0.45440  0.07730  Biso   1.000  C
  H227     1.0000 0.92730  0.43340  0.09520  Biso   1.000  H
  C274     1.0000 0.85780  0.48350  0.01156  Biso   1.000  C
  H228     1.0000 0.86690  0.48260  0.98380  Biso   1.000  H
  C275     1.0000 0.82660  0.48820  0.09153  Biso   1.000  C
  H229     1.0000 0.81570  0.48940  0.11910  Biso   1.000  H
  C276     1.0000 0.79170  0.51630  0.02742  Biso   1.000  C
  H230     1.0000 0.75630  0.53700  0.01000  Biso   1.000  H
  N45      1.0000 0.11000  0.34220  0.99257  Biso   1.000  N
  N46      1.0000 0.77610  0.51955  0.06727  Biso   1.000  N
  O45      1.0000 0.23610  0.37220  0.93730  Biso   1.000  O
  O46      1.0000 0.33180  0.30592  0.95588  Biso   1.000  O
  Cu24     1.0000 0.31113  0.92568  0.40964  Biso   1.000  Cu
  C277     1.0000 0.25780  0.82990  0.45558  Biso   1.000  C
  C278     1.0000 0.17930  0.80280  0.47850  Biso   1.000  C
  H231     1.0000 0.20390  0.78360  0.50150  Biso   1.000  H
  H232     1.0000 0.15010  0.77660  0.46100  Biso   1.000  H
  C279     1.0000 0.10960  0.85570  0.53150  Biso   1.000  C
  H233     1.0000 0.15230  0.84040  0.54880  Biso   1.000  H
  C280     1.0000 0.05050  0.86400  0.46710  Biso   1.000  C
  H234     1.0000 0.05230  0.85460  0.44000  Biso   1.000  H
  C281     1.0000 0.04690  0.89200  0.54630  Biso   1.000  C
  H235     1.0000 0.04740  0.90120  0.57340  Biso   1.000  H
  C282     1.0000 0.98690  0.89980  0.48029  Biso   1.000  C
  H236     1.0000 0.94530  0.91460  0.46210  Biso   1.000  H
  C283     1.0000 0.98330  0.91470  0.52070  Biso   1.000  C
  C284     1.0000 0.91120  0.95160  0.53640  Biso   1.000  C
  C285     1.0000 0.89370  0.95440  0.57730  Biso   1.000  C
  H237     1.0000 0.92730  0.93340  0.59520  Biso   1.000  H
  C286     1.0000 0.85780  0.98350  0.51156  Biso   1.000  C
  H238     1.0000 0.86690  0.98260  0.48380  Biso   1.000  H
  C287     1.0000 0.82660  0.98820  0.59153  Biso   1.000  C
  H239     1.0000 0.81570  0.98940  0.61910  Biso   1.000  H
  C288     1.0000 0.79170  0.01630  0.52742  Biso   1.000  C
  H240     1.0000 0.75630  0.03700  0.51000  Biso   1.000  H
  N47      1.0000 0.11000  0.84220  0.49257  Biso   1.000  N
  N48      1.0000 0.77610  0.01955  0.56727  Biso   1.000  N
  O47      1.0000 0.23610  0.87220  0.43730  Biso   1.000  O
  O48      1.0000 0.33180  0.80592  0.45588  Biso   1.000  O
  Cu25     1.0000 0.81113  0.82432  0.84036  Biso   1.000  Cu
  C289     1.0000 0.75780  0.92010  0.79442  Biso   1.000  C
  C290     1.0000 0.67930  0.94720  0.77150  Biso   1.000  C
  H241     1.0000 0.70390  0.96640  0.74850  Biso   1.000  H
  H242     1.0000 0.65010  0.97340  0.78900  Biso   1.000  H
  C291     1.0000 0.60960  0.89430  0.71850  Biso   1.000  C
  H243     1.0000 0.65230  0.90960  0.70120  Biso   1.000  H
  C292     1.0000 0.55050  0.88600  0.78290  Biso   1.000  C
  H244     1.0000 0.55230  0.89540  0.81000  Biso   1.000  H
  C293     1.0000 0.54690  0.85800  0.70370  Biso   1.000  C
  H245     1.0000 0.54740  0.84880  0.67660  Biso   1.000  H
  C294     1.0000 0.48690  0.85020  0.76971  Biso   1.000  C
  H246     1.0000 0.44530  0.83540  0.78790  Biso   1.000  H
  C295     1.0000 0.48330  0.83530  0.72930  Biso   1.000  C
  C296     1.0000 0.41120  0.79840  0.71360  Biso   1.000  C
  C297     1.0000 0.39370  0.79560  0.67270  Biso   1.000  C
  H247     1.0000 0.42730  0.81660  0.65480  Biso   1.000  H
  C298     1.0000 0.35780  0.76650  0.73844  Biso   1.000  C
  H248     1.0000 0.36690  0.76740  0.76620  Biso   1.000  H
  C299     1.0000 0.32660  0.76180  0.65847  Biso   1.000  C
  H249     1.0000 0.31570  0.76060  0.63090  Biso   1.000  H
  C300     1.0000 0.29170  0.73370  0.72258  Biso   1.000  C
  H250     1.0000 0.25630  0.71300  0.74000  Biso   1.000  H
  N49      1.0000 0.61000  0.90780  0.75743  Biso   1.000  N
  N50      1.0000 0.27610  0.73045  0.68273  Biso   1.000  N
  O49      1.0000 0.73610  0.87780  0.81270  Biso   1.000  O
  O50      1.0000 0.83180  0.94408  0.79412  Biso   1.000  O
  Cu26     1.0000 0.81113  0.32432  0.34036  Biso   1.000  Cu
  C301     1.0000 0.75780  0.42010  0.29442  Biso   1.000  C
  C302     1.0000 0.67930  0.44720  0.27150  Biso   1.000  C
  H251     1.0000 0.70390  0.46640  0.24850  Biso   1.000  H
  H252     1.0000 0.65010  0.47340  0.28900  Biso   1.000  H
  C303     1.0000 0.60960  0.39430  0.21850  Biso   1.000  C
  H253     1.0000 0.65230  0.40960  0.20120  Biso   1.000  H
  C304     1.0000 0.55050  0.38600  0.28290  Biso   1.000  C
  H254     1.0000 0.55230  0.39540  0.31000  Biso   1.000  H
  C305     1.0000 0.54690  0.35800  0.20370  Biso   1.000  C
  H255     1.0000 0.54740  0.34880  0.17660  Biso   1.000  H
  C306     1.0000 0.48690  0.35020  0.26971  Biso   1.000  C
  H256     1.0000 0.44530  0.33540  0.28790  Biso   1.000  H
  C307     1.0000 0.48330  0.33530  0.22930  Biso   1.000  C
  C308     1.0000 0.41120  0.29840  0.21360  Biso   1.000  C
  C309     1.0000 0.39370  0.29560  0.17270  Biso   1.000  C
  H257     1.0000 0.42730  0.31660  0.15480  Biso   1.000  H
  C310     1.0000 0.35780  0.26650  0.23844  Biso   1.000  C
  H258     1.0000 0.36690  0.26740  0.26620  Biso   1.000  H
  C311     1.0000 0.32660  0.26180  0.15847  Biso   1.000  C
  H259     1.0000 0.31570  0.26060  0.13090  Biso   1.000  H
  C312     1.0000 0.29170  0.23370  0.22258  Biso   1.000  C
  H260     1.0000 0.25630  0.21300  0.24000  Biso   1.000  H
  N51      1.0000 0.61000  0.40780  0.25743  Biso   1.000  N
  N52      1.0000 0.27610  0.23045  0.18273  Biso   1.000  N
  O51      1.0000 0.73610  0.37780  0.31270  Biso   1.000  O
  O52      1.0000 0.83180  0.44408  0.29412  Biso   1.000  O
  Cu27     1.0000 0.31113  0.82432  0.34036  Biso   1.000  Cu
  C313     1.0000 0.25780  0.92010  0.29442  Biso   1.000  C
  C314     1.0000 0.17930  0.94720  0.27150  Biso   1.000  C
  H261     1.0000 0.20390  0.96640  0.24850  Biso   1.000  H
  H262     1.0000 0.15010  0.97340  0.28900  Biso   1.000  H
  C315     1.0000 0.10960  0.89430  0.21850  Biso   1.000  C
  H263     1.0000 0.15230  0.90960  0.20120  Biso   1.000  H
  C316     1.0000 0.05050  0.88600  0.28290  Biso   1.000  C
  H264     1.0000 0.05230  0.89540  0.31000  Biso   1.000  H
  C317     1.0000 0.04690  0.85800  0.20370  Biso   1.000  C
  H265     1.0000 0.04740  0.84880  0.17660  Biso   1.000  H
  C318     1.0000 0.98690  0.85020  0.26971  Biso   1.000  C
  H266     1.0000 0.94530  0.83540  0.28790  Biso   1.000  H
  C319     1.0000 0.98330  0.83530  0.22930  Biso   1.000  C
  C320     1.0000 0.91120  0.79840  0.21360  Biso   1.000  C
  C321     1.0000 0.89370  0.79560  0.17270  Biso   1.000  C
  H267     1.0000 0.92730  0.81660  0.15480  Biso   1.000  H
  C322     1.0000 0.85780  0.76650  0.23844  Biso   1.000  C
  H268     1.0000 0.86690  0.76740  0.26620  Biso   1.000  H
  C323     1.0000 0.82660  0.76180  0.15847  Biso   1.000  C
  H269     1.0000 0.81570  0.76060  0.13090  Biso   1.000  H
  C324     1.0000 0.79170  0.73370  0.22258  Biso   1.000  C
  H270     1.0000 0.75630  0.71300  0.24000  Biso   1.000  H
  N53      1.0000 0.11000  0.90780  0.25743  Biso   1.000  N
  N54      1.0000 0.77610  0.73045  0.18273  Biso   1.000  N
  O53      1.0000 0.23610  0.87780  0.31270  Biso   1.000  O
  O54      1.0000 0.33180  0.94408  0.29412  Biso   1.000  O
  Cu28     1.0000 0.31113  0.32432  0.84036  Biso   1.000  Cu
  C325     1.0000 0.25780  0.42010  0.79442  Biso   1.000  C
  C326     1.0000 0.17930  0.44720  0.77150  Biso   1.000  C
  H271     1.0000 0.20390  0.46640  0.74850  Biso   1.000  H
  H272     1.0000 0.15010  0.47340  0.78900  Biso   1.000  H
  C327     1.0000 0.10960  0.39430  0.71850  Biso   1.000  C
  H273     1.0000 0.15230  0.40960  0.70120  Biso   1.000  H
  C328     1.0000 0.05050  0.38600  0.78290  Biso   1.000  C
  H274     1.0000 0.05230  0.39540  0.81000  Biso   1.000  H
  C329     1.0000 0.04690  0.35800  0.70370  Biso   1.000  C
  H275     1.0000 0.04740  0.34880  0.67660  Biso   1.000  H
  C330     1.0000 0.98690  0.35020  0.76971  Biso   1.000  C
  H276     1.0000 0.94530  0.33540  0.78790  Biso   1.000  H
  C331     1.0000 0.98330  0.33530  0.72930  Biso   1.000  C
  C332     1.0000 0.91120  0.29840  0.71360  Biso   1.000  C
  C333     1.0000 0.89370  0.29560  0.67270  Biso   1.000  C
  H277     1.0000 0.92730  0.31660  0.65480  Biso   1.000  H
  C334     1.0000 0.85780  0.26650  0.73844  Biso   1.000  C
  H278     1.0000 0.86690  0.26740  0.76620  Biso   1.000  H
  C335     1.0000 0.82660  0.26180  0.65847  Biso   1.000  C
  H279     1.0000 0.81570  0.26060  0.63090  Biso   1.000  H
  C336     1.0000 0.79170  0.23370  0.72258  Biso   1.000  C
  H280     1.0000 0.75630  0.21300  0.74000  Biso   1.000  H
  N55      1.0000 0.11000  0.40780  0.75743  Biso   1.000  N
  N56      1.0000 0.77610  0.23045  0.68273  Biso   1.000  N
  O55      1.0000 0.23610  0.37780  0.81270  Biso   1.000  O
  O56      1.0000 0.33180  0.44408  0.79412  Biso   1.000  O
  Cu29     1.0000 0.43887  0.42568  0.84036  Biso   1.000  Cu
  C337     1.0000 0.49220  0.32990  0.79442  Biso   1.000  C
  C338     1.0000 0.57070  0.30280  0.77150  Biso   1.000  C
  H281     1.0000 0.54610  0.28360  0.74850  Biso   1.000  H
  H282     1.0000 0.59990  0.27660  0.78900  Biso   1.000  H
  C339     1.0000 0.64040  0.35570  0.71850  Biso   1.000  C
  H283     1.0000 0.59770  0.34040  0.70120  Biso   1.000  H
  C340     1.0000 0.69950  0.36400  0.78290  Biso   1.000  C
  H284     1.0000 0.69770  0.35460  0.81000  Biso   1.000  H
  C341     1.0000 0.70310  0.39200  0.70370  Biso   1.000  C
  H285     1.0000 0.70260  0.40120  0.67660  Biso   1.000  H
  C342     1.0000 0.76310  0.39980  0.76971  Biso   1.000  C
  H286     1.0000 0.80470  0.41460  0.78790  Biso   1.000  H
  C343     1.0000 0.76670  0.41470  0.72930  Biso   1.000  C
  C344     1.0000 0.83880  0.45160  0.71360  Biso   1.000  C
  C345     1.0000 0.85630  0.45440  0.67270  Biso   1.000  C
  H287     1.0000 0.82270  0.43340  0.65480  Biso   1.000  H
  C346     1.0000 0.89220  0.48350  0.73844  Biso   1.000  C
  H288     1.0000 0.88310  0.48260  0.76620  Biso   1.000  H
  C347     1.0000 0.92340  0.48820  0.65847  Biso   1.000  C
  H289     1.0000 0.93430  0.48940  0.63090  Biso   1.000  H
  C348     1.0000 0.95830  0.51630  0.72258  Biso   1.000  C
  H290     1.0000 0.99370  0.53700  0.74000  Biso   1.000  H
  N57      1.0000 0.64000  0.34220  0.75743  Biso   1.000  N
  N58      1.0000 0.97390  0.51955  0.68273  Biso   1.000  N
  O57      1.0000 0.51390  0.37220  0.81270  Biso   1.000  O
  O58      1.0000 0.41820  0.30592  0.79412  Biso   1.000  O
  Cu30     1.0000 0.43887  0.92568  0.34036  Biso   1.000  Cu
  C349     1.0000 0.49220  0.82990  0.29442  Biso   1.000  C
  C350     1.0000 0.57070  0.80280  0.27150  Biso   1.000  C
  H291     1.0000 0.54610  0.78360  0.24850  Biso   1.000  H
  H292     1.0000 0.59990  0.77660  0.28900  Biso   1.000  H
  C351     1.0000 0.64040  0.85570  0.21850  Biso   1.000  C
  H293     1.0000 0.59770  0.84040  0.20120  Biso   1.000  H
  C352     1.0000 0.69950  0.86400  0.28290  Biso   1.000  C
  H294     1.0000 0.69770  0.85460  0.31000  Biso   1.000  H
  C353     1.0000 0.70310  0.89200  0.20370  Biso   1.000  C
  H295     1.0000 0.70260  0.90120  0.17660  Biso   1.000  H
  C354     1.0000 0.76310  0.89980  0.26971  Biso   1.000  C
  H296     1.0000 0.80470  0.91460  0.28790  Biso   1.000  H
  C355     1.0000 0.76670  0.91470  0.22930  Biso   1.000  C
  C356     1.0000 0.83880  0.95160  0.21360  Biso   1.000  C
  C357     1.0000 0.85630  0.95440  0.17270  Biso   1.000  C
  H297     1.0000 0.82270  0.93340  0.15480  Biso   1.000  H
  C358     1.0000 0.89220  0.98350  0.23844  Biso   1.000  C
  H298     1.0000 0.88310  0.98260  0.26620  Biso   1.000  H
  C359     1.0000 0.92340  0.98820  0.15847  Biso   1.000  C
  H299     1.0000 0.93430  0.98940  0.13090  Biso   1.000  H
  C360     1.0000 0.95830  0.01630  0.22258  Biso   1.000  C
  H300     1.0000 0.99370  0.03700  0.24000  Biso   1.000  H
  N59      1.0000 0.64000  0.84220  0.25743  Biso   1.000  N
  N60      1.0000 0.97390  0.01955  0.18273  Biso   1.000  N
  O59      1.0000 0.51390  0.87220  0.31270  Biso   1.000  O
  O60      1.0000 0.41820  0.80592  0.29412  Biso   1.000  O
  Cu31     1.0000 0.93887  0.42568  0.34036  Biso   1.000  Cu
  C361     1.0000 0.99220  0.32990  0.29442  Biso   1.000  C
  C362     1.0000 0.07070  0.30280  0.27150  Biso   1.000  C
  H301     1.0000 0.04610  0.28360  0.24850  Biso   1.000  H
  H302     1.0000 0.09990  0.27660  0.28900  Biso   1.000  H
  C363     1.0000 0.14040  0.35570  0.21850  Biso   1.000  C
  H303     1.0000 0.09770  0.34040  0.20120  Biso   1.000  H
  C364     1.0000 0.19950  0.36400  0.28290  Biso   1.000  C
  H304     1.0000 0.19770  0.35460  0.31000  Biso   1.000  H
  C365     1.0000 0.20310  0.39200  0.20370  Biso   1.000  C
  H305     1.0000 0.20260  0.40120  0.17660  Biso   1.000  H
  C366     1.0000 0.26310  0.39980  0.26971  Biso   1.000  C
  H306     1.0000 0.30470  0.41460  0.28790  Biso   1.000  H
  C367     1.0000 0.26670  0.41470  0.22930  Biso   1.000  C
  C368     1.0000 0.33880  0.45160  0.21360  Biso   1.000  C
  C369     1.0000 0.35630  0.45440  0.17270  Biso   1.000  C
  H307     1.0000 0.32270  0.43340  0.15480  Biso   1.000  H
  C370     1.0000 0.39220  0.48350  0.23844  Biso   1.000  C
  H308     1.0000 0.38310  0.48260  0.26620  Biso   1.000  H
  C371     1.0000 0.42340  0.48820  0.15847  Biso   1.000  C
  H309     1.0000 0.43430  0.48940  0.13090  Biso   1.000  H
  C372     1.0000 0.45830  0.51630  0.22258  Biso   1.000  C
  H310     1.0000 0.49370  0.53700  0.24000  Biso   1.000  H
  N61      1.0000 0.14000  0.34220  0.25743  Biso   1.000  N
  N62      1.0000 0.47390  0.51955  0.18273  Biso   1.000  N
  O61      1.0000 0.01390  0.37220  0.31270  Biso   1.000  O
  O62      1.0000 0.91820  0.30592  0.29412  Biso   1.000  O
  Cu32     1.0000 0.93887  0.92568  0.84036  Biso   1.000  Cu
  C373     1.0000 0.99220  0.82990  0.79442  Biso   1.000  C
  C374     1.0000 0.07070  0.80280  0.77150  Biso   1.000  C
  H311     1.0000 0.04610  0.78360  0.74850  Biso   1.000  H
  H312     1.0000 0.09990  0.77660  0.78900  Biso   1.000  H
  C375     1.0000 0.14040  0.85570  0.71850  Biso   1.000  C
  H313     1.0000 0.09770  0.84040  0.70120  Biso   1.000  H
  C376     1.0000 0.19950  0.86400  0.78290  Biso   1.000  C
  H314     1.0000 0.19770  0.85460  0.81000  Biso   1.000  H
  C377     1.0000 0.20310  0.89200  0.70370  Biso   1.000  C
  H315     1.0000 0.20260  0.90120  0.67660  Biso   1.000  H
  C378     1.0000 0.26310  0.89980  0.76971  Biso   1.000  C
  H316     1.0000 0.30470  0.91460  0.78790  Biso   1.000  H
  C379     1.0000 0.26670  0.91470  0.72930  Biso   1.000  C
  C380     1.0000 0.33880  0.95160  0.71360  Biso   1.000  C
  C381     1.0000 0.35630  0.95440  0.67270  Biso   1.000  C
  H317     1.0000 0.32270  0.93340  0.65480  Biso   1.000  H
  C382     1.0000 0.39220  0.98350  0.73844  Biso   1.000  C
  H318     1.0000 0.38310  0.98260  0.76620  Biso   1.000  H
  C383     1.0000 0.42340  0.98820  0.65847  Biso   1.000  C
  H319     1.0000 0.43430  0.98940  0.63090  Biso   1.000  H
  C384     1.0000 0.45830  0.01630  0.72258  Biso   1.000  C
  H320     1.0000 0.49370  0.03700  0.74000  Biso   1.000  H
  N63      1.0000 0.14000  0.84220  0.75743  Biso   1.000  N
  N64      1.0000 0.47390  0.01955  0.68273  Biso   1.000  N
  O63      1.0000 0.01390  0.87220  0.81270  Biso   1.000  O
  O64      1.0000 0.91820  0.80592  0.79412  Biso   1.000  O
  N65      1.0000 0.62500  0.22890  0.62500  Biso   1.000  N
  N66      1.0000 0.62500  0.27670  0.62500  Biso   1.000  N
  N67      1.0000 0.62500  0.32280  0.62500  Biso   1.000  N
  N68      1.0000 0.62500  0.72890  0.12500  Biso   1.000  N
  N69      1.0000 0.62500  0.77670  0.12500  Biso   1.000  N
  N70      1.0000 0.62500  0.82280  0.12500  Biso   1.000  N
  N71      1.0000 0.12500  0.52110  0.62500  Biso   1.000  N
  N72      1.0000 0.12500  0.47330  0.62500  Biso   1.000  N
  N73      1.0000 0.12500  0.42720  0.62500  Biso   1.000  N
  N74      1.0000 0.12500  0.02110  0.12500  Biso   1.000  N
  N75      1.0000 0.12500  0.97330  0.12500  Biso   1.000  N
  N76      1.0000 0.12500  0.92720  0.12500  Biso   1.000  N
  N77      1.0000 0.62500  0.02110  0.62500  Biso   1.000  N
  N78      1.0000 0.62500  0.97330  0.62500  Biso   1.000  N
  N79      1.0000 0.62500  0.92720  0.62500  Biso   1.000  N
  N80      1.0000 0.12500  0.22890  0.12500  Biso   1.000  N
  N81      1.0000 0.12500  0.27670  0.12500  Biso   1.000  N
  N82      1.0000 0.12500  0.32280  0.12500  Biso   1.000  N
  N83      1.0000 0.12500  0.72890  0.62500  Biso   1.000  N
  N84      1.0000 0.12500  0.77670  0.62500  Biso   1.000  N
  N85      1.0000 0.12500  0.82280  0.62500  Biso   1.000  N
  N86      1.0000 0.62500  0.52110  0.12500  Biso   1.000  N
  N87      1.0000 0.62500  0.47330  0.12500  Biso   1.000  N
  N88      1.0000 0.62500  0.42720  0.12500  Biso   1.000  N
  N89      1.0000 0.37500  0.77110  0.37500  Biso   1.000  N
  N90      1.0000 0.37500  0.72330  0.37500  Biso   1.000  N
  N91      1.0000 0.37500  0.67720  0.37500  Biso   1.000  N
  N92      1.0000 0.37500  0.27110  0.87500  Biso   1.000  N
  N93      1.0000 0.37500  0.22330  0.87500  Biso   1.000  N
  N94      1.0000 0.37500  0.17720  0.87500  Biso   1.000  N
  N95      1.0000 0.87500  0.47890  0.37500  Biso   1.000  N
  N96      1.0000 0.87500  0.52670  0.37500  Biso   1.000  N
  N97      1.0000 0.87500  0.57280  0.37500  Biso   1.000  N
  N98      1.0000 0.87500  0.97890  0.87500  Biso   1.000  N
  N99      1.0000 0.87500  0.02670  0.87500  Biso   1.000  N
  N100     1.0000 0.87500  0.07280  0.87500  Biso   1.000  N
  N101     1.0000 0.87500  0.77110  0.87500  Biso   1.000  N
  N102     1.0000 0.87500  0.72330  0.87500  Biso   1.000  N
  N103     1.0000 0.87500  0.67720  0.87500  Biso   1.000  N
  N104     1.0000 0.87500  0.27110  0.37500  Biso   1.000  N
  N105     1.0000 0.87500  0.22330  0.37500  Biso   1.000  N
  N106     1.0000 0.87500  0.17720  0.37500  Biso   1.000  N
  N107     1.0000 0.37500  0.47890  0.87500  Biso   1.000  N
  N108     1.0000 0.37500  0.52670  0.87500  Biso   1.000  N
  N109     1.0000 0.37500  0.57280  0.87500  Biso   1.000  N
  N110     1.0000 0.37500  0.97890  0.37500  Biso   1.000  N
  N111     1.0000 0.37500  0.02670  0.37500  Biso   1.000  N
  N112     1.0000 0.37500  0.07280  0.37500  Biso   1.000  N
  O65      1.0000 0.62500  0.12500  0.62500  Biso   1.000  O
  O66      1.0000 0.12500  0.62500  0.62500  Biso   1.000  O
  O67      1.0000 0.12500  0.12500  0.12500  Biso   1.000  O
  O68      1.0000 0.62500  0.62500  0.12500  Biso   1.000  O
  O69      1.0000 0.37500  0.87500  0.37500  Biso   1.000  O
  O70      1.0000 0.87500  0.37500  0.37500  Biso   1.000  O
  O71      1.0000 0.87500  0.87500  0.87500  Biso   1.000  O
  O72      1.0000 0.37500  0.37500  0.87500  Biso   1.000  O
