data_image0
_cell_length_a       32.8171
_cell_length_b       32.8171
_cell_length_c       9.2305
_cell_angle_alpha    90
_cell_angle_beta     90
_cell_angle_gamma    120

_symmetry_space_group_name_H-M    "P 1"
_symmetry_int_tables_number       1

loop_
  _symmetry_equiv_pos_as_xyz
  'x, y, z'

loop_
  _atom_site_label
  _atom_site_occupancy
  _atom_site_fract_x
  _atom_site_fract_y
  _atom_site_fract_z
  _atom_site_thermal_displace_type
  _atom_site_B_iso_or_equiv
  _atom_site_type_symbol
  N1       1.0000 0.53592  0.00274  0.17780  Biso   1.000  N
  N2       1.0000 0.49861  0.05665  0.07060  Biso   1.000  N
  N3       1.0000 0.62304  0.86420  0.23570  Biso   1.000  N
  N4       1.0000 0.62030  0.20810  0.90980  Biso   1.000  N
  C1       1.0000 0.55666  0.97585  0.20450  Biso   1.000  C
  C2       1.0000 0.58491  0.99207  0.33380  Biso   1.000  C
  H1       1.0000 0.60210  0.97950  0.37460  Biso   1.000  H
  C3       1.0000 0.58174  0.02854  0.38430  Biso   1.000  C
  H2       1.0000 0.59630  0.04610  0.46680  Biso   1.000  H
  C4       1.0000 0.55154  0.03551  0.28730  Biso   1.000  C
  C5       1.0000 0.54199  0.07258  0.30000  Biso   1.000  C
  C6       1.0000 0.51674  0.08146  0.19690  Biso   1.000  C
  C7       1.0000 0.50431  0.11746  0.21080  Biso   1.000  C
  H3       1.0000 0.51280  0.13910  0.28600  Biso   1.000  H
  C8       1.0000 0.47805  0.11407  0.09490  Biso   1.000  C
  H4       1.0000 0.46480  0.13270  0.07500  Biso   1.000  H
  C9       1.0000 0.47433  0.07624  0.00790  Biso   1.000  C
  C10      1.0000 0.55189  0.93907  0.11870  Biso   1.000  C
  C11      1.0000 0.57742  0.91375  0.16330  Biso   1.000  C
  C12      1.0000 0.55943  0.87910  0.26750  Biso   1.000  C
  H5       1.0000 0.53160  0.87170  0.31540  Biso   1.000  H
  C13      1.0000 0.58323  0.85545  0.29980  Biso   1.000  C
  H6       1.0000 0.57070  0.83210  0.37040  Biso   1.000  H
  C14      1.0000 0.61877  0.92319  0.09680  Biso   1.000  C
  H7       1.0000 0.63220  0.94640  0.02620  Biso   1.000  H
  C15      1.0000 0.64017  0.89779  0.13610  Biso   1.000  C
  H8       1.0000 0.66810  0.90450  0.09020  Biso   1.000  H
  C16      1.0000 0.55952  0.10328  0.43050  Biso   1.000  C
  C17      1.0000 0.54166  0.08532  0.56570  Biso   1.000  C
  H9       1.0000 0.51890  0.05380  0.57480  Biso   1.000  H
  C18      1.0000 0.55703  0.11334  0.68780  Biso   1.000  C
  H10      1.0000 0.54440  0.10080  0.77800  Biso   1.000  H
  C19      1.0000 0.59131  0.16010  0.67520  Biso   1.000  C
  C20      1.0000 0.60938  0.17867  0.54180  Biso   1.000  C
  H11      1.0000 0.63230  0.21020  0.53350  Biso   1.000  H
  C21      1.0000 0.59361  0.15059  0.41920  Biso   1.000  C
  H12      1.0000 0.60590  0.16340  0.32890  Biso   1.000  H
  C22      1.0000 0.60790  0.18783  0.80550  Biso   1.000  C
  N5       1.0000 0.46408  0.99726  0.82220  Biso   1.000  N
  N6       1.0000 0.50139  0.94335  0.92940  Biso   1.000  N
  N7       1.0000 0.37696  0.13580  0.76430  Biso   1.000  N
  N8       1.0000 0.37970  0.79190  0.09020  Biso   1.000  N
  C23      1.0000 0.44334  0.02415  0.79550  Biso   1.000  C
  C24      1.0000 0.41509  0.00793  0.66620  Biso   1.000  C
  H13      1.0000 0.39790  0.02050  0.62540  Biso   1.000  H
  C25      1.0000 0.41826  0.97146  0.61570  Biso   1.000  C
  H14      1.0000 0.40370  0.95390  0.53320  Biso   1.000  H
  C26      1.0000 0.44846  0.96449  0.71270  Biso   1.000  C
  C27      1.0000 0.45801  0.92742  0.70000  Biso   1.000  C
  C28      1.0000 0.48326  0.91854  0.80310  Biso   1.000  C
  C29      1.0000 0.49569  0.88254  0.78920  Biso   1.000  C
  H15      1.0000 0.48720  0.86090  0.71400  Biso   1.000  H
  C30      1.0000 0.52195  0.88593  0.90510  Biso   1.000  C
  H16      1.0000 0.53520  0.86730  0.92500  Biso   1.000  H
  C31      1.0000 0.52567  0.92376  0.99210  Biso   1.000  C
  C32      1.0000 0.44811  0.06093  0.88130  Biso   1.000  C
  C33      1.0000 0.42258  0.08625  0.83670  Biso   1.000  C
  C34      1.0000 0.44057  0.12090  0.73250  Biso   1.000  C
  H17      1.0000 0.46840  0.12830  0.68460  Biso   1.000  H
  C35      1.0000 0.41677  0.14455  0.70020  Biso   1.000  C
  H18      1.0000 0.42930  0.16790  0.62960  Biso   1.000  H
  C36      1.0000 0.38123  0.07681  0.90320  Biso   1.000  C
  H19      1.0000 0.36780  0.05360  0.97380  Biso   1.000  H
  C37      1.0000 0.35983  0.10221  0.86390  Biso   1.000  C
  H20      1.0000 0.33190  0.09550  0.90980  Biso   1.000  H
  C38      1.0000 0.44048  0.89672  0.56950  Biso   1.000  C
  C39      1.0000 0.45834  0.91468  0.43430  Biso   1.000  C
  H21      1.0000 0.48110  0.94620  0.42520  Biso   1.000  H
  C40      1.0000 0.44297  0.88666  0.31220  Biso   1.000  C
  H22      1.0000 0.45560  0.89920  0.22200  Biso   1.000  H
  C41      1.0000 0.40869  0.83990  0.32480  Biso   1.000  C
  C42      1.0000 0.39062  0.82133  0.45820  Biso   1.000  C
  H23      1.0000 0.36770  0.78980  0.46650  Biso   1.000  H
  C43      1.0000 0.40639  0.84941  0.58080  Biso   1.000  C
  H24      1.0000 0.39410  0.83660  0.67110  Biso   1.000  H
  C44      1.0000 0.39210  0.81217  0.19450  Biso   1.000  C
  Co1      1.0000 0.50000  0.00000  0.00000  Biso   1.000  Co
  N9       1.0000 0.20259  0.33607  0.51113  Biso   1.000  N
  N10      1.0000 0.16528  0.38998  0.40393  Biso   1.000  N
  N11      1.0000 0.28971  0.19753  0.56903  Biso   1.000  N
  N12      1.0000 0.28697  0.54143  0.24313  Biso   1.000  N
  C45      1.0000 0.22333  0.30918  0.53783  Biso   1.000  C
  C46      1.0000 0.25158  0.32540  0.66713  Biso   1.000  C
  H25      1.0000 0.26877  0.31283  0.70793  Biso   1.000  H
  C47      1.0000 0.24841  0.36187  0.71763  Biso   1.000  C
  H26      1.0000 0.26297  0.37943  0.80013  Biso   1.000  H
  C48      1.0000 0.21821  0.36884  0.62063  Biso   1.000  C
  C49      1.0000 0.20866  0.40591  0.63333  Biso   1.000  C
  C50      1.0000 0.18341  0.41479  0.53023  Biso   1.000  C
  C51      1.0000 0.17098  0.45079  0.54413  Biso   1.000  C
  H27      1.0000 0.17947  0.47243  0.61933  Biso   1.000  H
  C52      1.0000 0.14472  0.44740  0.42823  Biso   1.000  C
  H28      1.0000 0.13147  0.46603  0.40833  Biso   1.000  H
  C53      1.0000 0.14100  0.40957  0.34123  Biso   1.000  C
  C54      1.0000 0.21856  0.27240  0.45203  Biso   1.000  C
  C55      1.0000 0.24409  0.24708  0.49663  Biso   1.000  C
  C56      1.0000 0.22610  0.21243  0.60083  Biso   1.000  C
  H29      1.0000 0.19827  0.20503  0.64873  Biso   1.000  H
  C57      1.0000 0.24990  0.18878  0.63313  Biso   1.000  C
  H30      1.0000 0.23737  0.16543  0.70373  Biso   1.000  H
  C58      1.0000 0.28544  0.25652  0.43013  Biso   1.000  C
  H31      1.0000 0.29887  0.27973  0.35953  Biso   1.000  H
  C59      1.0000 0.30684  0.23112  0.46943  Biso   1.000  C
  H32      1.0000 0.33477  0.23783  0.42353  Biso   1.000  H
  C60      1.0000 0.22619  0.43661  0.76383  Biso   1.000  C
  C61      1.0000 0.20833  0.41865  0.89903  Biso   1.000  C
  H33      1.0000 0.18557  0.38713  0.90813  Biso   1.000  H
  C62      1.0000 0.22370  0.44667  0.02113  Biso   1.000  C
  H34      1.0000 0.21107  0.43413  0.11133  Biso   1.000  H
  C63      1.0000 0.25798  0.49343  0.00853  Biso   1.000  C
  C64      1.0000 0.27605  0.51200  0.87513  Biso   1.000  C
  H35      1.0000 0.29897  0.54353  0.86683  Biso   1.000  H
  C65      1.0000 0.26028  0.48392  0.75253  Biso   1.000  C
  H36      1.0000 0.27257  0.49673  0.66223  Biso   1.000  H
  C66      1.0000 0.27457  0.52116  0.13883  Biso   1.000  C
  N13      1.0000 0.13075  0.33059  0.15553  Biso   1.000  N
  N14      1.0000 0.16806  0.27668  0.26273  Biso   1.000  N
  N15      1.0000 0.04363  0.46913  0.09763  Biso   1.000  N
  N16      1.0000 0.04637  0.12523  0.42353  Biso   1.000  N
  C67      1.0000 0.11001  0.35748  0.12883  Biso   1.000  C
  C68      1.0000 0.08176  0.34126  0.99953  Biso   1.000  C
  H37      1.0000 0.06457  0.35383  0.95873  Biso   1.000  H
  C69      1.0000 0.08493  0.30479  0.94903  Biso   1.000  C
  H38      1.0000 0.07037  0.28723  0.86653  Biso   1.000  H
  C70      1.0000 0.11513  0.29782  0.04603  Biso   1.000  C
  C71      1.0000 0.12468  0.26075  0.03333  Biso   1.000  C
  C72      1.0000 0.14993  0.25187  0.13643  Biso   1.000  C
  C73      1.0000 0.16236  0.21587  0.12253  Biso   1.000  C
  H39      1.0000 0.15387  0.19423  0.04733  Biso   1.000  H
  C74      1.0000 0.18862  0.21926  0.23843  Biso   1.000  C
  H40      1.0000 0.20187  0.20063  0.25833  Biso   1.000  H
  C75      1.0000 0.19234  0.25709  0.32543  Biso   1.000  C
  C76      1.0000 0.11478  0.39426  0.21463  Biso   1.000  C
  C77      1.0000 0.08925  0.41958  0.17003  Biso   1.000  C
  C78      1.0000 0.10724  0.45423  0.06583  Biso   1.000  C
  H41      1.0000 0.13507  0.46163  0.01793  Biso   1.000  H
  C79      1.0000 0.08344  0.47788  0.03353  Biso   1.000  C
  H42      1.0000 0.09597  0.50123  0.96293  Biso   1.000  H
  C80      1.0000 0.04790  0.41014  0.23653  Biso   1.000  C
  H43      1.0000 0.03447  0.38693  0.30713  Biso   1.000  H
  C81      1.0000 0.02650  0.43554  0.19723  Biso   1.000  C
  H44      1.0000 0.99857  0.42883  0.24313  Biso   1.000  H
  C82      1.0000 0.10715  0.23005  0.90283  Biso   1.000  C
  C83      1.0000 0.12501  0.24801  0.76763  Biso   1.000  C
  H45      1.0000 0.14777  0.27953  0.75853  Biso   1.000  H
  C84      1.0000 0.10964  0.21999  0.64553  Biso   1.000  C
  H46      1.0000 0.12227  0.23253  0.55533  Biso   1.000  H
  C85      1.0000 0.07536  0.17323  0.65813  Biso   1.000  C
  C86      1.0000 0.05729  0.15466  0.79153  Biso   1.000  C
  H47      1.0000 0.03437  0.12313  0.79983  Biso   1.000  H
  C87      1.0000 0.07306  0.18274  0.91413  Biso   1.000  C
  H48      1.0000 0.06077  0.16993  0.00443  Biso   1.000  H
  C88      1.0000 0.05877  0.14550  0.52783  Biso   1.000  C
  Co2      1.0000 0.16667  0.33333  0.33333  Biso   1.000  Co
  N17      1.0000 0.86925  0.66941  0.84447  Biso   1.000  N
  N18      1.0000 0.83194  0.72332  0.73727  Biso   1.000  N
  N19      1.0000 0.95637  0.53087  0.90237  Biso   1.000  N
  N20      1.0000 0.95363  0.87477  0.57647  Biso   1.000  N
  C89      1.0000 0.88999  0.64252  0.87117  Biso   1.000  C
  C90      1.0000 0.91824  0.65874  0.00047  Biso   1.000  C
  H49      1.0000 0.93543  0.64617  0.04127  Biso   1.000  H
  C91      1.0000 0.91507  0.69521  0.05097  Biso   1.000  C
  H50      1.0000 0.92963  0.71277  0.13347  Biso   1.000  H
  C92      1.0000 0.88487  0.70218  0.95397  Biso   1.000  C
  C93      1.0000 0.87532  0.73925  0.96667  Biso   1.000  C
  C94      1.0000 0.85007  0.74813  0.86357  Biso   1.000  C
  C95      1.0000 0.83764  0.78413  0.87747  Biso   1.000  C
  H51      1.0000 0.84613  0.80577  0.95267  Biso   1.000  H
  C96      1.0000 0.81138  0.78074  0.76157  Biso   1.000  C
  H52      1.0000 0.79813  0.79937  0.74167  Biso   1.000  H
  C97      1.0000 0.80766  0.74291  0.67457  Biso   1.000  C
  C98      1.0000 0.88522  0.60574  0.78537  Biso   1.000  C
  C99      1.0000 0.91075  0.58042  0.82997  Biso   1.000  C
  C100     1.0000 0.89276  0.54577  0.93417  Biso   1.000  C
  H53      1.0000 0.86493  0.53837  0.98207  Biso   1.000  H
  C101     1.0000 0.91656  0.52212  0.96647  Biso   1.000  C
  H54      1.0000 0.90403  0.49877  0.03707  Biso   1.000  H
  C102     1.0000 0.95210  0.58986  0.76347  Biso   1.000  C
  H55      1.0000 0.96553  0.61307  0.69287  Biso   1.000  H
  C103     1.0000 0.97350  0.56446  0.80277  Biso   1.000  C
  H56      1.0000 0.00143  0.57117  0.75687  Biso   1.000  H
  C104     1.0000 0.89285  0.76995  0.09717  Biso   1.000  C
  C105     1.0000 0.87499  0.75199  0.23237  Biso   1.000  C
  H57      1.0000 0.85223  0.72047  0.24147  Biso   1.000  H
  C106     1.0000 0.89036  0.78001  0.35447  Biso   1.000  C
  H58      1.0000 0.87773  0.76747  0.44467  Biso   1.000  H
  C107     1.0000 0.92464  0.82677  0.34187  Biso   1.000  C
  C108     1.0000 0.94271  0.84534  0.20847  Biso   1.000  C
  H59      1.0000 0.96563  0.87687  0.20017  Biso   1.000  H
  C109     1.0000 0.92694  0.81726  0.08587  Biso   1.000  C
  H60      1.0000 0.93923  0.83007  0.99557  Biso   1.000  H
  C110     1.0000 0.94123  0.85450  0.47217  Biso   1.000  C
  N21      1.0000 0.79741  0.66393  0.48887  Biso   1.000  N
  N22      1.0000 0.83472  0.61002  0.59607  Biso   1.000  N
  N23      1.0000 0.71029  0.80247  0.43097  Biso   1.000  N
  N24      1.0000 0.71303  0.45857  0.75687  Biso   1.000  N
  C111     1.0000 0.77667  0.69082  0.46217  Biso   1.000  C
  C112     1.0000 0.74842  0.67460  0.33287  Biso   1.000  C
  H61      1.0000 0.73123  0.68717  0.29207  Biso   1.000  H
  C113     1.0000 0.75159  0.63813  0.28237  Biso   1.000  C
  H62      1.0000 0.73703  0.62057  0.19987  Biso   1.000  H
  C114     1.0000 0.78179  0.63116  0.37937  Biso   1.000  C
  C115     1.0000 0.79134  0.59409  0.36667  Biso   1.000  C
  C116     1.0000 0.81659  0.58521  0.46977  Biso   1.000  C
  C117     1.0000 0.82902  0.54921  0.45587  Biso   1.000  C
  H63      1.0000 0.82053  0.52757  0.38067  Biso   1.000  H
  C118     1.0000 0.85528  0.55260  0.57177  Biso   1.000  C
  H64      1.0000 0.86853  0.53397  0.59167  Biso   1.000  H
  C119     1.0000 0.85900  0.59043  0.65877  Biso   1.000  C
  C120     1.0000 0.78144  0.72760  0.54797  Biso   1.000  C
  C121     1.0000 0.75591  0.75292  0.50337  Biso   1.000  C
  C122     1.0000 0.77390  0.78757  0.39917  Biso   1.000  C
  H65      1.0000 0.80173  0.79497  0.35127  Biso   1.000  H
  C123     1.0000 0.75010  0.81122  0.36687  Biso   1.000  C
  H66      1.0000 0.76263  0.83457  0.29627  Biso   1.000  H
  C124     1.0000 0.71456  0.74348  0.56987  Biso   1.000  C
  H67      1.0000 0.70113  0.72027  0.64047  Biso   1.000  H
  C125     1.0000 0.69316  0.76888  0.53057  Biso   1.000  C
  H68      1.0000 0.66523  0.76217  0.57647  Biso   1.000  H
  C126     1.0000 0.77381  0.56339  0.23617  Biso   1.000  C
  C127     1.0000 0.79167  0.58135  0.10097  Biso   1.000  C
  H69      1.0000 0.81443  0.61287  0.09187  Biso   1.000  H
  C128     1.0000 0.77630  0.55333  0.97887  Biso   1.000  C
  H70      1.0000 0.78893  0.56587  0.88867  Biso   1.000  H
  C129     1.0000 0.74202  0.50657  0.99147  Biso   1.000  C
  C130     1.0000 0.72395  0.48800  0.12487  Biso   1.000  C
  H71      1.0000 0.70103  0.45647  0.13317  Biso   1.000  H
  C131     1.0000 0.73972  0.51608  0.24747  Biso   1.000  C
  H72      1.0000 0.72743  0.50327  0.33777  Biso   1.000  H
  C132     1.0000 0.72543  0.47884  0.86117  Biso   1.000  C
  Co3      1.0000 0.83333  0.66667  0.66667  Biso   1.000  Co
  N25      1.0000 0.99726  0.53318  0.17780  Biso   1.000  N
  N26      1.0000 0.94335  0.44196  0.07060  Biso   1.000  N
  N27      1.0000 0.13580  0.75884  0.23570  Biso   1.000  N
  N28      1.0000 0.79190  0.41220  0.90980  Biso   1.000  N
  C133     1.0000 0.02415  0.58081  0.20450  Biso   1.000  C
  C134     1.0000 0.00793  0.59284  0.33380  Biso   1.000  C
  H73      1.0000 0.02050  0.62260  0.37460  Biso   1.000  H
  C135     1.0000 0.97146  0.55320  0.38430  Biso   1.000  C
  H74      1.0000 0.95390  0.55020  0.46680  Biso   1.000  H
  C136     1.0000 0.96449  0.51603  0.28730  Biso   1.000  C
  C137     1.0000 0.92742  0.46941  0.30000  Biso   1.000  C
  C138     1.0000 0.91854  0.43528  0.19690  Biso   1.000  C
  C139     1.0000 0.88254  0.38685  0.21080  Biso   1.000  C
  H75      1.0000 0.86090  0.37370  0.28600  Biso   1.000  H
  C140     1.0000 0.88593  0.36398  0.09490  Biso   1.000  C
  H76      1.0000 0.86730  0.33210  0.07500  Biso   1.000  H
  C141     1.0000 0.92376  0.39809  0.00790  Biso   1.000  C
  C142     1.0000 0.06093  0.61282  0.11870  Biso   1.000  C
  C143     1.0000 0.08625  0.66367  0.16330  Biso   1.000  C
  C144     1.0000 0.12090  0.68033  0.26750  Biso   1.000  C
  H77      1.0000 0.12830  0.65990  0.31540  Biso   1.000  H
  C145     1.0000 0.14455  0.72778  0.29980  Biso   1.000  C
  H78      1.0000 0.16790  0.73860  0.37040  Biso   1.000  H
  C146     1.0000 0.07681  0.69558  0.09680  Biso   1.000  C
  H79      1.0000 0.05360  0.68580  0.02620  Biso   1.000  H
  C147     1.0000 0.10221  0.74238  0.13610  Biso   1.000  C
  H80      1.0000 0.09550  0.76360  0.09020  Biso   1.000  H
  C148     1.0000 0.89672  0.45624  0.43050  Biso   1.000  C
  C149     1.0000 0.91468  0.45634  0.56570  Biso   1.000  C
  H81      1.0000 0.94620  0.46510  0.57480  Biso   1.000  H
  C150     1.0000 0.88666  0.44369  0.68780  Biso   1.000  C
  H82      1.0000 0.89920  0.44360  0.77800  Biso   1.000  H
  C151     1.0000 0.83990  0.43121  0.67520  Biso   1.000  C
  C152     1.0000 0.82133  0.43071  0.54180  Biso   1.000  C
  H83      1.0000 0.78980  0.42210  0.53350  Biso   1.000  H
  C153     1.0000 0.84941  0.44302  0.41920  Biso   1.000  C
  H84      1.0000 0.83660  0.44250  0.32890  Biso   1.000  H
  C154     1.0000 0.81217  0.42007  0.80550  Biso   1.000  C
  N29      1.0000 0.00274  0.46682  0.82220  Biso   1.000  N
  N30      1.0000 0.05665  0.55804  0.92940  Biso   1.000  N
  N31      1.0000 0.86420  0.24116  0.76430  Biso   1.000  N
  N32      1.0000 0.20810  0.58780  0.09020  Biso   1.000  N
  C155     1.0000 0.97585  0.41919  0.79550  Biso   1.000  C
  C156     1.0000 0.99207  0.40716  0.66620  Biso   1.000  C
  H85      1.0000 0.97950  0.37740  0.62540  Biso   1.000  H
  C157     1.0000 0.02854  0.44680  0.61570  Biso   1.000  C
  H86      1.0000 0.04610  0.44980  0.53320  Biso   1.000  H
  C158     1.0000 0.03551  0.48397  0.71270  Biso   1.000  C
  C159     1.0000 0.07258  0.53059  0.70000  Biso   1.000  C
  C160     1.0000 0.08146  0.56472  0.80310  Biso   1.000  C
  C161     1.0000 0.11746  0.61315  0.78920  Biso   1.000  C
  H87      1.0000 0.13910  0.62630  0.71400  Biso   1.000  H
  C162     1.0000 0.11407  0.63602  0.90510  Biso   1.000  C
  H88      1.0000 0.13270  0.66790  0.92500  Biso   1.000  H
  C163     1.0000 0.07624  0.60191  0.99210  Biso   1.000  C
  C164     1.0000 0.93907  0.38718  0.88130  Biso   1.000  C
  C165     1.0000 0.91375  0.33633  0.83670  Biso   1.000  C
  C166     1.0000 0.87910  0.31967  0.73250  Biso   1.000  C
  H89      1.0000 0.87170  0.34010  0.68460  Biso   1.000  H
  C167     1.0000 0.85545  0.27222  0.70020  Biso   1.000  C
  H90      1.0000 0.83210  0.26140  0.62960  Biso   1.000  H
  C168     1.0000 0.92319  0.30442  0.90320  Biso   1.000  C
  H91      1.0000 0.94640  0.31420  0.97380  Biso   1.000  H
  C169     1.0000 0.89779  0.25762  0.86390  Biso   1.000  C
  H92      1.0000 0.90450  0.23640  0.90980  Biso   1.000  H
  C170     1.0000 0.10328  0.54376  0.56950  Biso   1.000  C
  C171     1.0000 0.08532  0.54366  0.43430  Biso   1.000  C
  H93      1.0000 0.05380  0.53490  0.42520  Biso   1.000  H
  C172     1.0000 0.11334  0.55631  0.31220  Biso   1.000  C
  H94      1.0000 0.10080  0.55640  0.22200  Biso   1.000  H
  C173     1.0000 0.16010  0.56879  0.32480  Biso   1.000  C
  C174     1.0000 0.17867  0.56929  0.45820  Biso   1.000  C
  H95      1.0000 0.21020  0.57790  0.46650  Biso   1.000  H
  C175     1.0000 0.15059  0.55698  0.58080  Biso   1.000  C
  H96      1.0000 0.16340  0.55750  0.67110  Biso   1.000  H
  C176     1.0000 0.18783  0.57993  0.19450  Biso   1.000  C
  Co4      1.0000 0.00000  0.50000  0.00000  Biso   1.000  Co
  N33      1.0000 0.66393  0.86651  0.51113  Biso   1.000  N
  N34      1.0000 0.61002  0.77529  0.40393  Biso   1.000  N
  N35      1.0000 0.80247  0.09217  0.56903  Biso   1.000  N
  N36      1.0000 0.45857  0.74553  0.24313  Biso   1.000  N
  C177     1.0000 0.69082  0.91414  0.53783  Biso   1.000  C
  C178     1.0000 0.67460  0.92617  0.66713  Biso   1.000  C
  H97      1.0000 0.68717  0.95593  0.70793  Biso   1.000  H
  C179     1.0000 0.63813  0.88653  0.71763  Biso   1.000  C
  H98      1.0000 0.62057  0.88353  0.80013  Biso   1.000  H
  C180     1.0000 0.63116  0.84936  0.62063  Biso   1.000  C
  C181     1.0000 0.59409  0.80274  0.63333  Biso   1.000  C
  C182     1.0000 0.58521  0.76861  0.53023  Biso   1.000  C
  C183     1.0000 0.54921  0.72018  0.54413  Biso   1.000  C
  H99      1.0000 0.52757  0.70703  0.61933  Biso   1.000  H
  C184     1.0000 0.55260  0.69731  0.42823  Biso   1.000  C
  H100     1.0000 0.53397  0.66543  0.40833  Biso   1.000  H
  C185     1.0000 0.59043  0.73142  0.34123  Biso   1.000  C
  C186     1.0000 0.72760  0.94615  0.45203  Biso   1.000  C
  C187     1.0000 0.75292  0.99700  0.49663  Biso   1.000  C
  C188     1.0000 0.78757  0.01366  0.60083  Biso   1.000  C
  H101     1.0000 0.79497  0.99323  0.64873  Biso   1.000  H
  C189     1.0000 0.81122  0.06111  0.63313  Biso   1.000  C
  H102     1.0000 0.83457  0.07193  0.70373  Biso   1.000  H
  C190     1.0000 0.74348  0.02891  0.43013  Biso   1.000  C
  H103     1.0000 0.72027  0.01913  0.35953  Biso   1.000  H
  C191     1.0000 0.76888  0.07571  0.46943  Biso   1.000  C
  H104     1.0000 0.76217  0.09693  0.42353  Biso   1.000  H
  C192     1.0000 0.56339  0.78957  0.76383  Biso   1.000  C
  C193     1.0000 0.58135  0.78967  0.89903  Biso   1.000  C
  H105     1.0000 0.61287  0.79843  0.90813  Biso   1.000  H
  C194     1.0000 0.55333  0.77702  0.02113  Biso   1.000  C
  H106     1.0000 0.56587  0.77693  0.11133  Biso   1.000  H
  C195     1.0000 0.50657  0.76454  0.00853  Biso   1.000  C
  C196     1.0000 0.48800  0.76404  0.87513  Biso   1.000  C
  H107     1.0000 0.45647  0.75543  0.86683  Biso   1.000  H
  C197     1.0000 0.51608  0.77635  0.75253  Biso   1.000  C
  H108     1.0000 0.50327  0.77583  0.66223  Biso   1.000  H
  C198     1.0000 0.47884  0.75340  0.13883  Biso   1.000  C
  N37      1.0000 0.66941  0.80015  0.15553  Biso   1.000  N
  N38      1.0000 0.72332  0.89137  0.26273  Biso   1.000  N
  N39      1.0000 0.53087  0.57449  0.09763  Biso   1.000  N
  N40      1.0000 0.87477  0.92113  0.42353  Biso   1.000  N
  C199     1.0000 0.64252  0.75252  0.12883  Biso   1.000  C
  C200     1.0000 0.65874  0.74049  0.99953  Biso   1.000  C
  H109     1.0000 0.64617  0.71073  0.95873  Biso   1.000  H
  C201     1.0000 0.69521  0.78013  0.94903  Biso   1.000  C
  H110     1.0000 0.71277  0.78313  0.86653  Biso   1.000  H
  C202     1.0000 0.70218  0.81730  0.04603  Biso   1.000  C
  C203     1.0000 0.73925  0.86392  0.03333  Biso   1.000  C
  C204     1.0000 0.74813  0.89805  0.13643  Biso   1.000  C
  C205     1.0000 0.78413  0.94648  0.12253  Biso   1.000  C
  H111     1.0000 0.80577  0.95963  0.04733  Biso   1.000  H
  C206     1.0000 0.78074  0.96935  0.23843  Biso   1.000  C
  H112     1.0000 0.79937  0.00123  0.25833  Biso   1.000  H
  C207     1.0000 0.74291  0.93524  0.32543  Biso   1.000  C
  C208     1.0000 0.60574  0.72051  0.21463  Biso   1.000  C
  C209     1.0000 0.58042  0.66966  0.17003  Biso   1.000  C
  C210     1.0000 0.54577  0.65300  0.06583  Biso   1.000  C
  H113     1.0000 0.53837  0.67343  0.01793  Biso   1.000  H
  C211     1.0000 0.52212  0.60555  0.03353  Biso   1.000  C
  H114     1.0000 0.49877  0.59473  0.96293  Biso   1.000  H
  C212     1.0000 0.58986  0.63775  0.23653  Biso   1.000  C
  H115     1.0000 0.61307  0.64753  0.30713  Biso   1.000  H
  C213     1.0000 0.56446  0.59095  0.19723  Biso   1.000  C
  H116     1.0000 0.57117  0.56973  0.24313  Biso   1.000  H
  C214     1.0000 0.76995  0.87709  0.90283  Biso   1.000  C
  C215     1.0000 0.75199  0.87699  0.76763  Biso   1.000  C
  H117     1.0000 0.72047  0.86823  0.75853  Biso   1.000  H
  C216     1.0000 0.78001  0.88964  0.64553  Biso   1.000  C
  H118     1.0000 0.76747  0.88973  0.55533  Biso   1.000  H
  C217     1.0000 0.82677  0.90212  0.65813  Biso   1.000  C
  C218     1.0000 0.84534  0.90262  0.79153  Biso   1.000  C
  H119     1.0000 0.87687  0.91123  0.79983  Biso   1.000  H
  C219     1.0000 0.81726  0.89031  0.91413  Biso   1.000  C
  H120     1.0000 0.83007  0.89083  0.00443  Biso   1.000  H
  C220     1.0000 0.85450  0.91326  0.52783  Biso   1.000  C
  Co5      1.0000 0.66667  0.83333  0.33333  Biso   1.000  Co
  N41      1.0000 0.33059  0.19985  0.84447  Biso   1.000  N
  N42      1.0000 0.27668  0.10863  0.73727  Biso   1.000  N
  N43      1.0000 0.46913  0.42551  0.90237  Biso   1.000  N
  N44      1.0000 0.12523  0.07887  0.57647  Biso   1.000  N
  C221     1.0000 0.35748  0.24748  0.87117  Biso   1.000  C
  C222     1.0000 0.34126  0.25951  0.00047  Biso   1.000  C
  H121     1.0000 0.35383  0.28927  0.04127  Biso   1.000  H
  C223     1.0000 0.30479  0.21987  0.05097  Biso   1.000  C
  H122     1.0000 0.28723  0.21687  0.13347  Biso   1.000  H
  C224     1.0000 0.29782  0.18270  0.95397  Biso   1.000  C
  C225     1.0000 0.26075  0.13608  0.96667  Biso   1.000  C
  C226     1.0000 0.25187  0.10195  0.86357  Biso   1.000  C
  C227     1.0000 0.21587  0.05352  0.87747  Biso   1.000  C
  H123     1.0000 0.19423  0.04037  0.95267  Biso   1.000  H
  C228     1.0000 0.21926  0.03065  0.76157  Biso   1.000  C
  H124     1.0000 0.20063  0.99877  0.74167  Biso   1.000  H
  C229     1.0000 0.25709  0.06476  0.67457  Biso   1.000  C
  C230     1.0000 0.39426  0.27949  0.78537  Biso   1.000  C
  C231     1.0000 0.41958  0.33034  0.82997  Biso   1.000  C
  C232     1.0000 0.45423  0.34700  0.93417  Biso   1.000  C
  H125     1.0000 0.46163  0.32657  0.98207  Biso   1.000  H
  C233     1.0000 0.47788  0.39445  0.96647  Biso   1.000  C
  H126     1.0000 0.50123  0.40527  0.03707  Biso   1.000  H
  C234     1.0000 0.41014  0.36225  0.76347  Biso   1.000  C
  H127     1.0000 0.38693  0.35247  0.69287  Biso   1.000  H
  C235     1.0000 0.43554  0.40905  0.80277  Biso   1.000  C
  H128     1.0000 0.42883  0.43027  0.75687  Biso   1.000  H
  C236     1.0000 0.23005  0.12291  0.09717  Biso   1.000  C
  C237     1.0000 0.24801  0.12301  0.23237  Biso   1.000  C
  H129     1.0000 0.27953  0.13177  0.24147  Biso   1.000  H
  C238     1.0000 0.21999  0.11036  0.35447  Biso   1.000  C
  H130     1.0000 0.23253  0.11027  0.44467  Biso   1.000  H
  C239     1.0000 0.17323  0.09788  0.34187  Biso   1.000  C
  C240     1.0000 0.15466  0.09738  0.20847  Biso   1.000  C
  H131     1.0000 0.12313  0.08877  0.20017  Biso   1.000  H
  C241     1.0000 0.18274  0.10969  0.08587  Biso   1.000  C
  H132     1.0000 0.16993  0.10917  0.99557  Biso   1.000  H
  C242     1.0000 0.14550  0.08674  0.47217  Biso   1.000  C
  N45      1.0000 0.33607  0.13349  0.48887  Biso   1.000  N
  N46      1.0000 0.38998  0.22471  0.59607  Biso   1.000  N
  N47      1.0000 0.19753  0.90783  0.43097  Biso   1.000  N
  N48      1.0000 0.54143  0.25447  0.75687  Biso   1.000  N
  C243     1.0000 0.30918  0.08586  0.46217  Biso   1.000  C
  C244     1.0000 0.32540  0.07383  0.33287  Biso   1.000  C
  H133     1.0000 0.31283  0.04407  0.29207  Biso   1.000  H
  C245     1.0000 0.36187  0.11347  0.28237  Biso   1.000  C
  H134     1.0000 0.37943  0.11647  0.19987  Biso   1.000  H
  C246     1.0000 0.36884  0.15064  0.37937  Biso   1.000  C
  C247     1.0000 0.40591  0.19726  0.36667  Biso   1.000  C
  C248     1.0000 0.41479  0.23139  0.46977  Biso   1.000  C
  C249     1.0000 0.45079  0.27982  0.45587  Biso   1.000  C
  H135     1.0000 0.47243  0.29297  0.38067  Biso   1.000  H
  C250     1.0000 0.44740  0.30269  0.57177  Biso   1.000  C
  H136     1.0000 0.46603  0.33457  0.59167  Biso   1.000  H
  C251     1.0000 0.40957  0.26858  0.65877  Biso   1.000  C
  C252     1.0000 0.27240  0.05385  0.54797  Biso   1.000  C
  C253     1.0000 0.24708  0.00300  0.50337  Biso   1.000  C
  C254     1.0000 0.21243  0.98634  0.39917  Biso   1.000  C
  H137     1.0000 0.20503  0.00677  0.35127  Biso   1.000  H
  C255     1.0000 0.18878  0.93889  0.36687  Biso   1.000  C
  H138     1.0000 0.16543  0.92807  0.29627  Biso   1.000  H
  C256     1.0000 0.25652  0.97109  0.56987  Biso   1.000  C
  H139     1.0000 0.27973  0.98087  0.64047  Biso   1.000  H
  C257     1.0000 0.23112  0.92429  0.53057  Biso   1.000  C
  H140     1.0000 0.23783  0.90307  0.57647  Biso   1.000  H
  C258     1.0000 0.43661  0.21043  0.23617  Biso   1.000  C
  C259     1.0000 0.41865  0.21033  0.10097  Biso   1.000  C
  H141     1.0000 0.38713  0.20157  0.09187  Biso   1.000  H
  C260     1.0000 0.44667  0.22298  0.97887  Biso   1.000  C
  H142     1.0000 0.43413  0.22307  0.88867  Biso   1.000  H
  C261     1.0000 0.49343  0.23546  0.99147  Biso   1.000  C
  C262     1.0000 0.51200  0.23596  0.12487  Biso   1.000  C
  H143     1.0000 0.54353  0.24457  0.13317  Biso   1.000  H
  C263     1.0000 0.48392  0.22365  0.24747  Biso   1.000  C
  H144     1.0000 0.49673  0.22417  0.33777  Biso   1.000  H
  C264     1.0000 0.52116  0.24660  0.86117  Biso   1.000  C
  Co6      1.0000 0.33333  0.16667  0.66667  Biso   1.000  Co
  N49      1.0000 0.46682  0.46408  0.17780  Biso   1.000  N
  N50      1.0000 0.55804  0.50139  0.07060  Biso   1.000  N
  N51      1.0000 0.24116  0.37696  0.23570  Biso   1.000  N
  N52      1.0000 0.58780  0.37970  0.90980  Biso   1.000  N
  C265     1.0000 0.41919  0.44334  0.20450  Biso   1.000  C
  C266     1.0000 0.40716  0.41509  0.33380  Biso   1.000  C
  H145     1.0000 0.37740  0.39790  0.37460  Biso   1.000  H
  C267     1.0000 0.44680  0.41826  0.38430  Biso   1.000  C
  H146     1.0000 0.44980  0.40370  0.46680  Biso   1.000  H
  C268     1.0000 0.48397  0.44846  0.28730  Biso   1.000  C
  C269     1.0000 0.53059  0.45801  0.30000  Biso   1.000  C
  C270     1.0000 0.56472  0.48326  0.19690  Biso   1.000  C
  C271     1.0000 0.61315  0.49569  0.21080  Biso   1.000  C
  H147     1.0000 0.62630  0.48720  0.28600  Biso   1.000  H
  C272     1.0000 0.63602  0.52195  0.09490  Biso   1.000  C
  H148     1.0000 0.66790  0.53520  0.07500  Biso   1.000  H
  C273     1.0000 0.60191  0.52567  0.00790  Biso   1.000  C
  C274     1.0000 0.38718  0.44811  0.11870  Biso   1.000  C
  C275     1.0000 0.33633  0.42258  0.16330  Biso   1.000  C
  C276     1.0000 0.31967  0.44057  0.26750  Biso   1.000  C
  H149     1.0000 0.34010  0.46840  0.31540  Biso   1.000  H
  C277     1.0000 0.27222  0.41677  0.29980  Biso   1.000  C
  H150     1.0000 0.26140  0.42930  0.37040  Biso   1.000  H
  C278     1.0000 0.30442  0.38123  0.09680  Biso   1.000  C
  H151     1.0000 0.31420  0.36780  0.02620  Biso   1.000  H
  C279     1.0000 0.25762  0.35983  0.13610  Biso   1.000  C
  H152     1.0000 0.23640  0.33190  0.09020  Biso   1.000  H
  C280     1.0000 0.54376  0.44048  0.43050  Biso   1.000  C
  C281     1.0000 0.54366  0.45834  0.56570  Biso   1.000  C
  H153     1.0000 0.53490  0.48110  0.57480  Biso   1.000  H
  C282     1.0000 0.55631  0.44297  0.68780  Biso   1.000  C
  H154     1.0000 0.55640  0.45560  0.77800  Biso   1.000  H
  C283     1.0000 0.56879  0.40869  0.67520  Biso   1.000  C
  C284     1.0000 0.56929  0.39062  0.54180  Biso   1.000  C
  H155     1.0000 0.57790  0.36770  0.53350  Biso   1.000  H
  C285     1.0000 0.55698  0.40639  0.41920  Biso   1.000  C
  H156     1.0000 0.55750  0.39410  0.32890  Biso   1.000  H
  C286     1.0000 0.57993  0.39210  0.80550  Biso   1.000  C
  N53      1.0000 0.53318  0.53592  0.82220  Biso   1.000  N
  N54      1.0000 0.44196  0.49861  0.92940  Biso   1.000  N
  N55      1.0000 0.75884  0.62304  0.76430  Biso   1.000  N
  N56      1.0000 0.41220  0.62030  0.09020  Biso   1.000  N
  C287     1.0000 0.58081  0.55666  0.79550  Biso   1.000  C
  C288     1.0000 0.59284  0.58491  0.66620  Biso   1.000  C
  H157     1.0000 0.62260  0.60210  0.62540  Biso   1.000  H
  C289     1.0000 0.55320  0.58174  0.61570  Biso   1.000  C
  H158     1.0000 0.55020  0.59630  0.53320  Biso   1.000  H
  C290     1.0000 0.51603  0.55154  0.71270  Biso   1.000  C
  C291     1.0000 0.46941  0.54199  0.70000  Biso   1.000  C
  C292     1.0000 0.43528  0.51674  0.80310  Biso   1.000  C
  C293     1.0000 0.38685  0.50431  0.78920  Biso   1.000  C
  H159     1.0000 0.37370  0.51280  0.71400  Biso   1.000  H
  C294     1.0000 0.36398  0.47805  0.90510  Biso   1.000  C
  H160     1.0000 0.33210  0.46480  0.92500  Biso   1.000  H
  C295     1.0000 0.39809  0.47433  0.99210  Biso   1.000  C
  C296     1.0000 0.61282  0.55189  0.88130  Biso   1.000  C
  C297     1.0000 0.66367  0.57742  0.83670  Biso   1.000  C
  C298     1.0000 0.68033  0.55943  0.73250  Biso   1.000  C
  H161     1.0000 0.65990  0.53160  0.68460  Biso   1.000  H
  C299     1.0000 0.72778  0.58323  0.70020  Biso   1.000  C
  H162     1.0000 0.73860  0.57070  0.62960  Biso   1.000  H
  C300     1.0000 0.69558  0.61877  0.90320  Biso   1.000  C
  H163     1.0000 0.68580  0.63220  0.97380  Biso   1.000  H
  C301     1.0000 0.74238  0.64017  0.86390  Biso   1.000  C
  H164     1.0000 0.76360  0.66810  0.90980  Biso   1.000  H
  C302     1.0000 0.45624  0.55952  0.56950  Biso   1.000  C
  C303     1.0000 0.45634  0.54166  0.43430  Biso   1.000  C
  H165     1.0000 0.46510  0.51890  0.42520  Biso   1.000  H
  C304     1.0000 0.44369  0.55703  0.31220  Biso   1.000  C
  H166     1.0000 0.44360  0.54440  0.22200  Biso   1.000  H
  C305     1.0000 0.43121  0.59131  0.32480  Biso   1.000  C
  C306     1.0000 0.43071  0.60938  0.45820  Biso   1.000  C
  H167     1.0000 0.42210  0.63230  0.46650  Biso   1.000  H
  C307     1.0000 0.44302  0.59361  0.58080  Biso   1.000  C
  H168     1.0000 0.44250  0.60590  0.67110  Biso   1.000  H
  C308     1.0000 0.42007  0.60790  0.19450  Biso   1.000  C
  Co7      1.0000 0.50000  0.50000  0.00000  Biso   1.000  Co
  N57      1.0000 0.13349  0.79741  0.51113  Biso   1.000  N
  N58      1.0000 0.22471  0.83472  0.40393  Biso   1.000  N
  N59      1.0000 0.90783  0.71029  0.56903  Biso   1.000  N
  N60      1.0000 0.25447  0.71303  0.24313  Biso   1.000  N
  C309     1.0000 0.08586  0.77667  0.53783  Biso   1.000  C
  C310     1.0000 0.07383  0.74842  0.66713  Biso   1.000  C
  H169     1.0000 0.04407  0.73123  0.70793  Biso   1.000  H
  C311     1.0000 0.11347  0.75159  0.71763  Biso   1.000  C
  H170     1.0000 0.11647  0.73703  0.80013  Biso   1.000  H
  C312     1.0000 0.15064  0.78179  0.62063  Biso   1.000  C
  C313     1.0000 0.19726  0.79134  0.63333  Biso   1.000  C
  C314     1.0000 0.23139  0.81659  0.53023  Biso   1.000  C
  C315     1.0000 0.27982  0.82902  0.54413  Biso   1.000  C
  H171     1.0000 0.29297  0.82053  0.61933  Biso   1.000  H
  C316     1.0000 0.30269  0.85528  0.42823  Biso   1.000  C
  H172     1.0000 0.33457  0.86853  0.40833  Biso   1.000  H
  C317     1.0000 0.26858  0.85900  0.34123  Biso   1.000  C
  C318     1.0000 0.05385  0.78144  0.45203  Biso   1.000  C
  C319     1.0000 0.00300  0.75591  0.49663  Biso   1.000  C
  C320     1.0000 0.98634  0.77390  0.60083  Biso   1.000  C
  H173     1.0000 0.00677  0.80173  0.64873  Biso   1.000  H
  C321     1.0000 0.93889  0.75010  0.63313  Biso   1.000  C
  H174     1.0000 0.92807  0.76263  0.70373  Biso   1.000  H
  C322     1.0000 0.97109  0.71456  0.43013  Biso   1.000  C
  H175     1.0000 0.98087  0.70113  0.35953  Biso   1.000  H
  C323     1.0000 0.92429  0.69316  0.46943  Biso   1.000  C
  H176     1.0000 0.90307  0.66523  0.42353  Biso   1.000  H
  C324     1.0000 0.21043  0.77381  0.76383  Biso   1.000  C
  C325     1.0000 0.21033  0.79167  0.89903  Biso   1.000  C
  H177     1.0000 0.20157  0.81443  0.90813  Biso   1.000  H
  C326     1.0000 0.22298  0.77630  0.02113  Biso   1.000  C
  H178     1.0000 0.22307  0.78893  0.11133  Biso   1.000  H
  C327     1.0000 0.23546  0.74202  0.00853  Biso   1.000  C
  C328     1.0000 0.23596  0.72395  0.87513  Biso   1.000  C
  H179     1.0000 0.24457  0.70103  0.86683  Biso   1.000  H
  C329     1.0000 0.22365  0.73972  0.75253  Biso   1.000  C
  H180     1.0000 0.22417  0.72743  0.66223  Biso   1.000  H
  C330     1.0000 0.24660  0.72543  0.13883  Biso   1.000  C
  N61      1.0000 0.19985  0.86925  0.15553  Biso   1.000  N
  N62      1.0000 0.10863  0.83194  0.26273  Biso   1.000  N
  N63      1.0000 0.42551  0.95637  0.09763  Biso   1.000  N
  N64      1.0000 0.07887  0.95363  0.42353  Biso   1.000  N
  C331     1.0000 0.24748  0.88999  0.12883  Biso   1.000  C
  C332     1.0000 0.25951  0.91824  0.99953  Biso   1.000  C
  H181     1.0000 0.28927  0.93543  0.95873  Biso   1.000  H
  C333     1.0000 0.21987  0.91507  0.94903  Biso   1.000  C
  H182     1.0000 0.21687  0.92963  0.86653  Biso   1.000  H
  C334     1.0000 0.18270  0.88487  0.04603  Biso   1.000  C
  C335     1.0000 0.13608  0.87532  0.03333  Biso   1.000  C
  C336     1.0000 0.10195  0.85007  0.13643  Biso   1.000  C
  C337     1.0000 0.05352  0.83764  0.12253  Biso   1.000  C
  H183     1.0000 0.04037  0.84613  0.04733  Biso   1.000  H
  C338     1.0000 0.03065  0.81138  0.23843  Biso   1.000  C
  H184     1.0000 0.99877  0.79813  0.25833  Biso   1.000  H
  C339     1.0000 0.06476  0.80766  0.32543  Biso   1.000  C
  C340     1.0000 0.27949  0.88522  0.21463  Biso   1.000  C
  C341     1.0000 0.33034  0.91075  0.17003  Biso   1.000  C
  C342     1.0000 0.34700  0.89276  0.06583  Biso   1.000  C
  H185     1.0000 0.32657  0.86493  0.01793  Biso   1.000  H
  C343     1.0000 0.39445  0.91656  0.03353  Biso   1.000  C
  H186     1.0000 0.40527  0.90403  0.96293  Biso   1.000  H
  C344     1.0000 0.36225  0.95210  0.23653  Biso   1.000  C
  H187     1.0000 0.35247  0.96553  0.30713  Biso   1.000  H
  C345     1.0000 0.40905  0.97350  0.19723  Biso   1.000  C
  H188     1.0000 0.43027  0.00143  0.24313  Biso   1.000  H
  C346     1.0000 0.12291  0.89285  0.90283  Biso   1.000  C
  C347     1.0000 0.12301  0.87499  0.76763  Biso   1.000  C
  H189     1.0000 0.13177  0.85223  0.75853  Biso   1.000  H
  C348     1.0000 0.11036  0.89036  0.64553  Biso   1.000  C
  H190     1.0000 0.11027  0.87773  0.55533  Biso   1.000  H
  C349     1.0000 0.09788  0.92464  0.65813  Biso   1.000  C
  C350     1.0000 0.09738  0.94271  0.79153  Biso   1.000  C
  H191     1.0000 0.08877  0.96563  0.79983  Biso   1.000  H
  C351     1.0000 0.10969  0.92694  0.91413  Biso   1.000  C
  H192     1.0000 0.10917  0.93923  0.00443  Biso   1.000  H
  C352     1.0000 0.08674  0.94123  0.52783  Biso   1.000  C
  Co8      1.0000 0.16667  0.83333  0.33333  Biso   1.000  Co
  N65      1.0000 0.80015  0.13075  0.84447  Biso   1.000  N
  N66      1.0000 0.89137  0.16806  0.73727  Biso   1.000  N
  N67      1.0000 0.57449  0.04363  0.90237  Biso   1.000  N
  N68      1.0000 0.92113  0.04637  0.57647  Biso   1.000  N
  C353     1.0000 0.75252  0.11001  0.87117  Biso   1.000  C
  C354     1.0000 0.74049  0.08176  0.00047  Biso   1.000  C
  H193     1.0000 0.71073  0.06457  0.04127  Biso   1.000  H
  C355     1.0000 0.78013  0.08493  0.05097  Biso   1.000  C
  H194     1.0000 0.78313  0.07037  0.13347  Biso   1.000  H
  C356     1.0000 0.81730  0.11513  0.95397  Biso   1.000  C
  C357     1.0000 0.86392  0.12468  0.96667  Biso   1.000  C
  C358     1.0000 0.89805  0.14993  0.86357  Biso   1.000  C
  C359     1.0000 0.94648  0.16236  0.87747  Biso   1.000  C
  H195     1.0000 0.95963  0.15387  0.95267  Biso   1.000  H
  C360     1.0000 0.96935  0.18862  0.76157  Biso   1.000  C
  H196     1.0000 0.00123  0.20187  0.74167  Biso   1.000  H
  C361     1.0000 0.93524  0.19234  0.67457  Biso   1.000  C
  C362     1.0000 0.72051  0.11478  0.78537  Biso   1.000  C
  C363     1.0000 0.66966  0.08925  0.82997  Biso   1.000  C
  C364     1.0000 0.65300  0.10724  0.93417  Biso   1.000  C
  H197     1.0000 0.67343  0.13507  0.98207  Biso   1.000  H
  C365     1.0000 0.60555  0.08344  0.96647  Biso   1.000  C
  H198     1.0000 0.59473  0.09597  0.03707  Biso   1.000  H
  C366     1.0000 0.63775  0.04790  0.76347  Biso   1.000  C
  H199     1.0000 0.64753  0.03447  0.69287  Biso   1.000  H
  C367     1.0000 0.59095  0.02650  0.80277  Biso   1.000  C
  H200     1.0000 0.56973  0.99857  0.75687  Biso   1.000  H
  C368     1.0000 0.87709  0.10715  0.09717  Biso   1.000  C
  C369     1.0000 0.87699  0.12501  0.23237  Biso   1.000  C
  H201     1.0000 0.86823  0.14777  0.24147  Biso   1.000  H
  C370     1.0000 0.88964  0.10964  0.35447  Biso   1.000  C
  H202     1.0000 0.88973  0.12227  0.44467  Biso   1.000  H
  C371     1.0000 0.90212  0.07536  0.34187  Biso   1.000  C
  C372     1.0000 0.90262  0.05729  0.20847  Biso   1.000  C
  H203     1.0000 0.91123  0.03437  0.20017  Biso   1.000  H
  C373     1.0000 0.89031  0.07306  0.08587  Biso   1.000  C
  H204     1.0000 0.89083  0.06077  0.99557  Biso   1.000  H
  C374     1.0000 0.91326  0.05877  0.47217  Biso   1.000  C
  N69      1.0000 0.86651  0.20259  0.48887  Biso   1.000  N
  N70      1.0000 0.77529  0.16528  0.59607  Biso   1.000  N
  N71      1.0000 0.09217  0.28971  0.43097  Biso   1.000  N
  N72      1.0000 0.74553  0.28697  0.75687  Biso   1.000  N
  C375     1.0000 0.91414  0.22333  0.46217  Biso   1.000  C
  C376     1.0000 0.92617  0.25158  0.33287  Biso   1.000  C
  H205     1.0000 0.95593  0.26877  0.29207  Biso   1.000  H
  C377     1.0000 0.88653  0.24841  0.28237  Biso   1.000  C
  H206     1.0000 0.88353  0.26297  0.19987  Biso   1.000  H
  C378     1.0000 0.84936  0.21821  0.37937  Biso   1.000  C
  C379     1.0000 0.80274  0.20866  0.36667  Biso   1.000  C
  C380     1.0000 0.76861  0.18341  0.46977  Biso   1.000  C
  C381     1.0000 0.72018  0.17098  0.45587  Biso   1.000  C
  H207     1.0000 0.70703  0.17947  0.38067  Biso   1.000  H
  C382     1.0000 0.69731  0.14472  0.57177  Biso   1.000  C
  H208     1.0000 0.66543  0.13147  0.59167  Biso   1.000  H
  C383     1.0000 0.73142  0.14100  0.65877  Biso   1.000  C
  C384     1.0000 0.94615  0.21856  0.54797  Biso   1.000  C
  C385     1.0000 0.99700  0.24409  0.50337  Biso   1.000  C
  C386     1.0000 0.01366  0.22610  0.39917  Biso   1.000  C
  H209     1.0000 0.99323  0.19827  0.35127  Biso   1.000  H
  C387     1.0000 0.06111  0.24990  0.36687  Biso   1.000  C
  H210     1.0000 0.07193  0.23737  0.29627  Biso   1.000  H
  C388     1.0000 0.02891  0.28544  0.56987  Biso   1.000  C
  H211     1.0000 0.01913  0.29887  0.64047  Biso   1.000  H
  C389     1.0000 0.07571  0.30684  0.53057  Biso   1.000  C
  H212     1.0000 0.09693  0.33477  0.57647  Biso   1.000  H
  C390     1.0000 0.78957  0.22619  0.23617  Biso   1.000  C
  C391     1.0000 0.78967  0.20833  0.10097  Biso   1.000  C
  H213     1.0000 0.79843  0.18557  0.09187  Biso   1.000  H
  C392     1.0000 0.77702  0.22370  0.97887  Biso   1.000  C
  H214     1.0000 0.77693  0.21107  0.88867  Biso   1.000  H
  C393     1.0000 0.76454  0.25798  0.99147  Biso   1.000  C
  C394     1.0000 0.76404  0.27605  0.12487  Biso   1.000  C
  H215     1.0000 0.75543  0.29897  0.13317  Biso   1.000  H
  C395     1.0000 0.77635  0.26028  0.24747  Biso   1.000  C
  H216     1.0000 0.77583  0.27257  0.33777  Biso   1.000  H
  C396     1.0000 0.75340  0.27457  0.86117  Biso   1.000  C
  Co9      1.0000 0.83333  0.16667  0.66667  Biso   1.000  Co
