data_image0
_cell_length_a       33.32
_cell_length_b       33.32
_cell_length_c       9.2856
_cell_angle_alpha    90
_cell_angle_beta     90
_cell_angle_gamma    120

_symmetry_space_group_name_H-M    "P 1"
_symmetry_int_tables_number       1

loop_
  _symmetry_equiv_pos_as_xyz
  'x, y, z'

loop_
  _atom_site_label
  _atom_site_occupancy
  _atom_site_fract_x
  _atom_site_fract_y
  _atom_site_fract_z
  _atom_site_thermal_displace_type
  _atom_site_B_iso_or_equiv
  _atom_site_type_symbol
  C1       1.0000 0.46959  0.92887  0.19700  Biso   1.000  C
  C2       1.0000 0.43439  0.91839  0.29930  Biso   1.000  C
  C3       1.0000 0.39775  0.92248  0.49160  Biso   1.000  C
  C4       1.0000 0.38881  0.93767  0.62260  Biso   1.000  C
  C5       1.0000 0.38591  0.88376  0.28360  Biso   1.000  C
  H1       1.0000 0.37260  0.86360  0.20630  Biso   1.000  H
  C6       1.0000 0.51606  0.96600  0.20490  Biso   1.000  C
  C7       1.0000 0.58041  0.02628  0.28740  Biso   1.000  C
  C8       1.0000 0.45694  0.89724  0.07060  Biso   1.000  C
  C9       1.0000 0.36355  0.88609  0.40150  Biso   1.000  C
  H2       1.0000 0.33210  0.86770  0.42110  Biso   1.000  H
  C10      1.0000 0.55346  0.97201  0.11130  Biso   1.000  C
  H3       1.0000 0.55110  0.95400  0.03170  Biso   1.000  H
  C11      1.0000 0.45762  0.91253  0.93170  Biso   1.000  C
  H4       1.0000 0.46710  0.94350  0.91460  Biso   1.000  H
  C12      1.0000 0.59282  0.00934  0.16290  Biso   1.000  C
  H5       1.0000 0.62240  0.02160  0.12430  Biso   1.000  H
  C13      1.0000 0.44291  0.85070  0.08760  Biso   1.000  C
  H6       1.0000 0.44170  0.83870  0.17890  Biso   1.000  H
  C14      1.0000 0.43082  0.82253  0.96870  Biso   1.000  C
  H7       1.0000 0.42190  0.79150  0.98210  Biso   1.000  H
  C15      1.0000 0.44442  0.88216  0.82020  Biso   1.000  C
  H8       1.0000 0.44450  0.89320  0.72810  Biso   1.000  H
  C16      1.0000 0.33819  0.91307  0.66590  Biso   1.000  C
  C17      1.0000 0.30726  0.92385  0.60290  Biso   1.000  C
  H9       1.0000 0.31730  0.94710  0.53370  Biso   1.000  H
  C18      1.0000 0.32136  0.87870  0.76930  Biso   1.000  C
  H10      1.0000 0.34090  0.87050  0.81610  Biso   1.000  H
  C19      1.0000 0.26138  0.89992  0.64320  Biso   1.000  C
  H11      1.0000 0.24100  0.90750  0.59900  Biso   1.000  H
  C20      1.0000 0.27463  0.85679  0.80110  Biso   1.000  C
  H12      1.0000 0.26340  0.83330  0.86980  Biso   1.000  H
  N1       1.0000 0.44029  0.94077  0.42660  Biso   1.000  N
  N2       1.0000 0.53341  0.99965  0.30810  Biso   1.000  N
  N3       1.0000 0.24479  0.86670  0.74140  Biso   1.000  N
  N4       1.0000 0.43125  0.83725  0.83520  Biso   1.000  N
  C21      1.0000 0.53041  0.07113  0.80300  Biso   1.000  C
  C22      1.0000 0.56561  0.08161  0.70070  Biso   1.000  C
  C23      1.0000 0.60225  0.07752  0.50840  Biso   1.000  C
  C24      1.0000 0.61119  0.06233  0.37740  Biso   1.000  C
  C25      1.0000 0.61409  0.11624  0.71640  Biso   1.000  C
  H13      1.0000 0.62740  0.13640  0.79370  Biso   1.000  H
  C26      1.0000 0.48394  0.03400  0.79510  Biso   1.000  C
  C27      1.0000 0.41959  0.97372  0.71260  Biso   1.000  C
  C28      1.0000 0.54306  0.10276  0.92940  Biso   1.000  C
  C29      1.0000 0.63645  0.11391  0.59850  Biso   1.000  C
  H14      1.0000 0.66790  0.13230  0.57890  Biso   1.000  H
  C30      1.0000 0.44654  0.02799  0.88870  Biso   1.000  C
  H15      1.0000 0.44890  0.04600  0.96830  Biso   1.000  H
  C31      1.0000 0.54238  0.08747  0.06830  Biso   1.000  C
  H16      1.0000 0.53290  0.05650  0.08540  Biso   1.000  H
  C32      1.0000 0.40718  0.99066  0.83710  Biso   1.000  C
  H17      1.0000 0.37760  0.97840  0.87570  Biso   1.000  H
  C33      1.0000 0.55709  0.14930  0.91240  Biso   1.000  C
  H18      1.0000 0.55830  0.16130  0.82110  Biso   1.000  H
  C34      1.0000 0.56918  0.17747  0.03130  Biso   1.000  C
  H19      1.0000 0.57810  0.20850  0.01790  Biso   1.000  H
  C35      1.0000 0.55558  0.11784  0.17980  Biso   1.000  C
  H20      1.0000 0.55550  0.10680  0.27190  Biso   1.000  H
  C36      1.0000 0.66181  0.08693  0.33410  Biso   1.000  C
  C37      1.0000 0.69274  0.07615  0.39710  Biso   1.000  C
  H21      1.0000 0.68270  0.05290  0.46630  Biso   1.000  H
  C38      1.0000 0.67864  0.12130  0.23070  Biso   1.000  C
  H22      1.0000 0.65910  0.12950  0.18390  Biso   1.000  H
  C39      1.0000 0.73862  0.10008  0.35680  Biso   1.000  C
  H23      1.0000 0.75900  0.09250  0.40100  Biso   1.000  H
  C40      1.0000 0.72537  0.14321  0.19890  Biso   1.000  C
  H24      1.0000 0.73660  0.16670  0.13020  Biso   1.000  H
  N5       1.0000 0.55971  0.05923  0.57340  Biso   1.000  N
  N6       1.0000 0.46659  0.00035  0.69190  Biso   1.000  N
  N7       1.0000 0.75521  0.13330  0.25860  Biso   1.000  N
  N8       1.0000 0.56875  0.16275  0.16480  Biso   1.000  N
  Mn1      1.0000 0.50000  0.00000  0.50000  Biso   1.000  Mn
  C41      1.0000 0.13626  0.26220  0.53033  Biso   1.000  C
  C42      1.0000 0.10106  0.25172  0.63263  Biso   1.000  C
  C43      1.0000 0.06442  0.25581  0.82493  Biso   1.000  C
  C44      1.0000 0.05548  0.27100  0.95593  Biso   1.000  C
  C45      1.0000 0.05258  0.21709  0.61693  Biso   1.000  C
  H25      1.0000 0.03927  0.19693  0.53963  Biso   1.000  H
  C46      1.0000 0.18273  0.29933  0.53823  Biso   1.000  C
  C47      1.0000 0.24708  0.35961  0.62073  Biso   1.000  C
  C48      1.0000 0.12361  0.23057  0.40393  Biso   1.000  C
  C49      1.0000 0.03022  0.21942  0.73483  Biso   1.000  C
  H26      1.0000 0.99877  0.20103  0.75443  Biso   1.000  H
  C50      1.0000 0.22013  0.30534  0.44463  Biso   1.000  C
  H27      1.0000 0.21777  0.28733  0.36503  Biso   1.000  H
  C51      1.0000 0.12429  0.24586  0.26503  Biso   1.000  C
  H28      1.0000 0.13377  0.27683  0.24793  Biso   1.000  H
  C52      1.0000 0.25949  0.34267  0.49623  Biso   1.000  C
  H29      1.0000 0.28907  0.35493  0.45763  Biso   1.000  H
  C53      1.0000 0.10958  0.18403  0.42093  Biso   1.000  C
  H30      1.0000 0.10837  0.17203  0.51223  Biso   1.000  H
  C54      1.0000 0.09749  0.15586  0.30203  Biso   1.000  C
  H31      1.0000 0.08857  0.12483  0.31543  Biso   1.000  H
  C55      1.0000 0.11109  0.21549  0.15353  Biso   1.000  C
  H32      1.0000 0.11117  0.22653  0.06143  Biso   1.000  H
  C56      1.0000 0.00486  0.24640  0.99923  Biso   1.000  C
  C57      1.0000 0.97393  0.25718  0.93623  Biso   1.000  C
  H33      1.0000 0.98397  0.28043  0.86703  Biso   1.000  H
  C58      1.0000 0.98803  0.21203  0.10263  Biso   1.000  C
  H34      1.0000 0.00757  0.20383  0.14943  Biso   1.000  H
  C59      1.0000 0.92805  0.23325  0.97653  Biso   1.000  C
  H35      1.0000 0.90767  0.24083  0.93233  Biso   1.000  H
  C60      1.0000 0.94130  0.19012  0.13443  Biso   1.000  C
  H36      1.0000 0.93007  0.16663  0.20313  Biso   1.000  H
  N9       1.0000 0.10696  0.27410  0.75993  Biso   1.000  N
  N10      1.0000 0.20008  0.33298  0.64143  Biso   1.000  N
  N11      1.0000 0.91146  0.20003  0.07473  Biso   1.000  N
  N12      1.0000 0.09792  0.17058  0.16853  Biso   1.000  N
  C61      1.0000 0.19708  0.40446  0.13633  Biso   1.000  C
  C62      1.0000 0.23228  0.41494  0.03403  Biso   1.000  C
  C63      1.0000 0.26892  0.41085  0.84173  Biso   1.000  C
  C64      1.0000 0.27786  0.39566  0.71073  Biso   1.000  C
  C65      1.0000 0.28076  0.44957  0.04973  Biso   1.000  C
  H37      1.0000 0.29407  0.46973  0.12703  Biso   1.000  H
  C66      1.0000 0.15061  0.36733  0.12843  Biso   1.000  C
  C67      1.0000 0.08626  0.30705  0.04593  Biso   1.000  C
  C68      1.0000 0.20973  0.43609  0.26273  Biso   1.000  C
  C69      1.0000 0.30312  0.44724  0.93183  Biso   1.000  C
  H38      1.0000 0.33457  0.46563  0.91223  Biso   1.000  H
  C70      1.0000 0.11321  0.36132  0.22203  Biso   1.000  C
  H39      1.0000 0.11557  0.37933  0.30163  Biso   1.000  H
  C71      1.0000 0.20905  0.42080  0.40163  Biso   1.000  C
  H40      1.0000 0.19957  0.38983  0.41873  Biso   1.000  H
  C72      1.0000 0.07385  0.32399  0.17043  Biso   1.000  C
  H41      1.0000 0.04427  0.31173  0.20903  Biso   1.000  H
  C73      1.0000 0.22376  0.48263  0.24573  Biso   1.000  C
  H42      1.0000 0.22497  0.49463  0.15443  Biso   1.000  H
  C74      1.0000 0.23585  0.51080  0.36463  Biso   1.000  C
  H43      1.0000 0.24477  0.54183  0.35123  Biso   1.000  H
  C75      1.0000 0.22225  0.45117  0.51313  Biso   1.000  C
  H44      1.0000 0.22217  0.44013  0.60523  Biso   1.000  H
  C76      1.0000 0.32848  0.42026  0.66743  Biso   1.000  C
  C77      1.0000 0.35941  0.40948  0.73043  Biso   1.000  C
  H45      1.0000 0.34937  0.38623  0.79963  Biso   1.000  H
  C78      1.0000 0.34531  0.45463  0.56403  Biso   1.000  C
  H46      1.0000 0.32577  0.46283  0.51723  Biso   1.000  H
  C79      1.0000 0.40529  0.43341  0.69013  Biso   1.000  C
  H47      1.0000 0.42567  0.42583  0.73433  Biso   1.000  H
  C80      1.0000 0.39204  0.47654  0.53223  Biso   1.000  C
  H48      1.0000 0.40327  0.50003  0.46353  Biso   1.000  H
  N13      1.0000 0.22638  0.39256  0.90673  Biso   1.000  N
  N14      1.0000 0.13326  0.33368  0.02523  Biso   1.000  N
  N15      1.0000 0.42188  0.46663  0.59193  Biso   1.000  N
  N16      1.0000 0.23542  0.49608  0.49813  Biso   1.000  N
  Mn2      1.0000 0.16667  0.33333  0.83333  Biso   1.000  Mn
  C81      1.0000 0.80292  0.59554  0.86367  Biso   1.000  C
  C82      1.0000 0.76772  0.58506  0.96597  Biso   1.000  C
  C83      1.0000 0.73108  0.58915  0.15827  Biso   1.000  C
  C84      1.0000 0.72214  0.60434  0.28927  Biso   1.000  C
  C85      1.0000 0.71924  0.55043  0.95027  Biso   1.000  C
  H49      1.0000 0.70593  0.53027  0.87297  Biso   1.000  H
  C86      1.0000 0.84939  0.63267  0.87157  Biso   1.000  C
  C87      1.0000 0.91374  0.69295  0.95407  Biso   1.000  C
  C88      1.0000 0.79027  0.56391  0.73727  Biso   1.000  C
  C89      1.0000 0.69688  0.55276  0.06817  Biso   1.000  C
  H50      1.0000 0.66543  0.53437  0.08777  Biso   1.000  H
  C90      1.0000 0.88679  0.63868  0.77797  Biso   1.000  C
  H51      1.0000 0.88443  0.62067  0.69837  Biso   1.000  H
  C91      1.0000 0.79095  0.57920  0.59837  Biso   1.000  C
  H52      1.0000 0.80043  0.61017  0.58127  Biso   1.000  H
  C92      1.0000 0.92615  0.67601  0.82957  Biso   1.000  C
  H53      1.0000 0.95573  0.68827  0.79097  Biso   1.000  H
  C93      1.0000 0.77624  0.51737  0.75427  Biso   1.000  C
  H54      1.0000 0.77503  0.50537  0.84557  Biso   1.000  H
  C94      1.0000 0.76415  0.48920  0.63537  Biso   1.000  C
  H55      1.0000 0.75523  0.45817  0.64877  Biso   1.000  H
  C95      1.0000 0.77775  0.54883  0.48687  Biso   1.000  C
  H56      1.0000 0.77783  0.55987  0.39477  Biso   1.000  H
  C96      1.0000 0.67152  0.57974  0.33257  Biso   1.000  C
  C97      1.0000 0.64059  0.59052  0.26957  Biso   1.000  C
  H57      1.0000 0.65063  0.61377  0.20037  Biso   1.000  H
  C98      1.0000 0.65469  0.54537  0.43597  Biso   1.000  C
  H58      1.0000 0.67423  0.53717  0.48277  Biso   1.000  H
  C99      1.0000 0.59471  0.56659  0.30987  Biso   1.000  C
  H59      1.0000 0.57433  0.57417  0.26567  Biso   1.000  H
  C100     1.0000 0.60796  0.52346  0.46777  Biso   1.000  C
  H60      1.0000 0.59673  0.49997  0.53647  Biso   1.000  H
  N17      1.0000 0.77362  0.60744  0.09327  Biso   1.000  N
  N18      1.0000 0.86674  0.66632  0.97477  Biso   1.000  N
  N19      1.0000 0.57812  0.53337  0.40807  Biso   1.000  N
  N20      1.0000 0.76458  0.50392  0.50187  Biso   1.000  N
  C101     1.0000 0.86374  0.73780  0.46967  Biso   1.000  C
  C102     1.0000 0.89894  0.74828  0.36737  Biso   1.000  C
  C103     1.0000 0.93558  0.74419  0.17507  Biso   1.000  C
  C104     1.0000 0.94452  0.72900  0.04407  Biso   1.000  C
  C105     1.0000 0.94742  0.78291  0.38307  Biso   1.000  C
  H61      1.0000 0.96073  0.80307  0.46037  Biso   1.000  H
  C106     1.0000 0.81727  0.70067  0.46177  Biso   1.000  C
  C107     1.0000 0.75292  0.64039  0.37927  Biso   1.000  C
  C108     1.0000 0.87639  0.76943  0.59607  Biso   1.000  C
  C109     1.0000 0.96978  0.78058  0.26517  Biso   1.000  C
  H62      1.0000 0.00123  0.79897  0.24557  Biso   1.000  H
  C110     1.0000 0.77987  0.69466  0.55537  Biso   1.000  C
  H63      1.0000 0.78223  0.71267  0.63497  Biso   1.000  H
  C111     1.0000 0.87571  0.75414  0.73497  Biso   1.000  C
  H64      1.0000 0.86623  0.72317  0.75207  Biso   1.000  H
  C112     1.0000 0.74051  0.65733  0.50377  Biso   1.000  C
  H65      1.0000 0.71093  0.64507  0.54237  Biso   1.000  H
  C113     1.0000 0.89042  0.81597  0.57907  Biso   1.000  C
  H66      1.0000 0.89163  0.82797  0.48777  Biso   1.000  H
  C114     1.0000 0.90251  0.84414  0.69797  Biso   1.000  C
  H67      1.0000 0.91143  0.87517  0.68457  Biso   1.000  H
  C115     1.0000 0.88891  0.78451  0.84647  Biso   1.000  C
  H68      1.0000 0.88883  0.77347  0.93857  Biso   1.000  H
  C116     1.0000 0.99514  0.75360  0.00077  Biso   1.000  C
  C117     1.0000 0.02607  0.74282  0.06377  Biso   1.000  C
  H69      1.0000 0.01603  0.71957  0.13297  Biso   1.000  H
  C118     1.0000 0.01197  0.78797  0.89737  Biso   1.000  C
  H70      1.0000 0.99243  0.79617  0.85057  Biso   1.000  H
  C119     1.0000 0.07195  0.76675  0.02347  Biso   1.000  C
  H71      1.0000 0.09233  0.75917  0.06767  Biso   1.000  H
  C120     1.0000 0.05870  0.80988  0.86557  Biso   1.000  C
  H72      1.0000 0.06993  0.83337  0.79687  Biso   1.000  H
  N21      1.0000 0.89304  0.72590  0.24007  Biso   1.000  N
  N22      1.0000 0.79992  0.66702  0.35857  Biso   1.000  N
  N23      1.0000 0.08854  0.79997  0.92527  Biso   1.000  N
  N24      1.0000 0.90208  0.82942  0.83147  Biso   1.000  N
  Mn3      1.0000 0.83333  0.66667  0.16667  Biso   1.000  Mn
  C121     1.0000 0.07113  0.54072  0.19700  Biso   1.000  C
  C122     1.0000 0.08161  0.51600  0.29930  Biso   1.000  C
  C123     1.0000 0.07752  0.47527  0.49160  Biso   1.000  C
  C124     1.0000 0.06233  0.45114  0.62260  Biso   1.000  C
  C125     1.0000 0.11624  0.50215  0.28360  Biso   1.000  C
  H73      1.0000 0.13640  0.50900  0.20630  Biso   1.000  H
  C126     1.0000 0.03400  0.55006  0.20490  Biso   1.000  C
  C127     1.0000 0.97372  0.55413  0.28740  Biso   1.000  C
  C128     1.0000 0.10276  0.55970  0.07060  Biso   1.000  C
  C129     1.0000 0.11391  0.47746  0.40150  Biso   1.000  C
  H74      1.0000 0.13230  0.46440  0.42110  Biso   1.000  H
  C130     1.0000 0.02799  0.58145  0.11130  Biso   1.000  C
  H75      1.0000 0.04600  0.59710  0.03170  Biso   1.000  H
  C131     1.0000 0.08747  0.54509  0.93170  Biso   1.000  C
  H76      1.0000 0.05650  0.52360  0.91460  Biso   1.000  H
  C132     1.0000 0.99066  0.58348  0.16290  Biso   1.000  C
  H77      1.0000 0.97840  0.60080  0.12430  Biso   1.000  H
  C133     1.0000 0.14930  0.59221  0.08760  Biso   1.000  C
  H78      1.0000 0.16130  0.60300  0.17890  Biso   1.000  H
  C134     1.0000 0.17747  0.60829  0.96870  Biso   1.000  C
  H79      1.0000 0.20850  0.63040  0.98210  Biso   1.000  H
  C135     1.0000 0.11784  0.56226  0.82020  Biso   1.000  C
  H80      1.0000 0.10680  0.55130  0.72810  Biso   1.000  H
  C136     1.0000 0.08693  0.42512  0.66590  Biso   1.000  C
  C137     1.0000 0.07615  0.38341  0.60290  Biso   1.000  C
  H81      1.0000 0.05290  0.37020  0.53370  Biso   1.000  H
  C138     1.0000 0.12130  0.44266  0.76930  Biso   1.000  C
  H82      1.0000 0.12950  0.47040  0.81610  Biso   1.000  H
  C139     1.0000 0.10008  0.36146  0.64320  Biso   1.000  C
  H83      1.0000 0.09250  0.33350  0.59900  Biso   1.000  H
  C140     1.0000 0.14321  0.41784  0.80110  Biso   1.000  C
  H84      1.0000 0.16670  0.43010  0.86980  Biso   1.000  H
  N25      1.0000 0.05923  0.49952  0.42660  Biso   1.000  N
  N26      1.0000 0.00035  0.53376  0.30810  Biso   1.000  N
  N27      1.0000 0.13330  0.37809  0.74140  Biso   1.000  N
  N28      1.0000 0.16275  0.59400  0.83520  Biso   1.000  N
  C141     1.0000 0.92887  0.45928  0.80300  Biso   1.000  C
  C142     1.0000 0.91839  0.48400  0.70070  Biso   1.000  C
  C143     1.0000 0.92248  0.52473  0.50840  Biso   1.000  C
  C144     1.0000 0.93767  0.54886  0.37740  Biso   1.000  C
  C145     1.0000 0.88376  0.49785  0.71640  Biso   1.000  C
  H85      1.0000 0.86360  0.49100  0.79370  Biso   1.000  H
  C146     1.0000 0.96600  0.44994  0.79510  Biso   1.000  C
  C147     1.0000 0.02628  0.44587  0.71260  Biso   1.000  C
  C148     1.0000 0.89724  0.44030  0.92940  Biso   1.000  C
  C149     1.0000 0.88609  0.52254  0.59850  Biso   1.000  C
  H86      1.0000 0.86770  0.53560  0.57890  Biso   1.000  H
  C150     1.0000 0.97201  0.41855  0.88870  Biso   1.000  C
  H87      1.0000 0.95400  0.40290  0.96830  Biso   1.000  H
  C151     1.0000 0.91253  0.45491  0.06830  Biso   1.000  C
  H88      1.0000 0.94350  0.47640  0.08540  Biso   1.000  H
  C152     1.0000 0.00934  0.41652  0.83710  Biso   1.000  C
  H89      1.0000 0.02160  0.39920  0.87570  Biso   1.000  H
  C153     1.0000 0.85070  0.40779  0.91240  Biso   1.000  C
  H90      1.0000 0.83870  0.39700  0.82110  Biso   1.000  H
  C154     1.0000 0.82253  0.39171  0.03130  Biso   1.000  C
  H91      1.0000 0.79150  0.36960  0.01790  Biso   1.000  H
  C155     1.0000 0.88216  0.43774  0.17980  Biso   1.000  C
  H92      1.0000 0.89320  0.44870  0.27190  Biso   1.000  H
  C156     1.0000 0.91307  0.57488  0.33410  Biso   1.000  C
  C157     1.0000 0.92385  0.61659  0.39710  Biso   1.000  C
  H93      1.0000 0.94710  0.62980  0.46630  Biso   1.000  H
  C158     1.0000 0.87870  0.55734  0.23070  Biso   1.000  C
  H94      1.0000 0.87050  0.52960  0.18390  Biso   1.000  H
  C159     1.0000 0.89992  0.63854  0.35680  Biso   1.000  C
  H95      1.0000 0.90750  0.66650  0.40100  Biso   1.000  H
  C160     1.0000 0.85679  0.58216  0.19890  Biso   1.000  C
  H96      1.0000 0.83330  0.56990  0.13020  Biso   1.000  H
  N29      1.0000 0.94077  0.50048  0.57340  Biso   1.000  N
  N30      1.0000 0.99965  0.46624  0.69190  Biso   1.000  N
  N31      1.0000 0.86670  0.62191  0.25860  Biso   1.000  N
  N32      1.0000 0.83725  0.40600  0.16480  Biso   1.000  N
  Mn4      1.0000 0.00000  0.50000  0.50000  Biso   1.000  Mn
  C161     1.0000 0.73780  0.87405  0.53033  Biso   1.000  C
  C162     1.0000 0.74828  0.84933  0.63263  Biso   1.000  C
  C163     1.0000 0.74419  0.80860  0.82493  Biso   1.000  C
  C164     1.0000 0.72900  0.78447  0.95593  Biso   1.000  C
  C165     1.0000 0.78291  0.83548  0.61693  Biso   1.000  C
  H97      1.0000 0.80307  0.84233  0.53963  Biso   1.000  H
  C166     1.0000 0.70067  0.88339  0.53823  Biso   1.000  C
  C167     1.0000 0.64039  0.88746  0.62073  Biso   1.000  C
  C168     1.0000 0.76943  0.89303  0.40393  Biso   1.000  C
  C169     1.0000 0.78058  0.81079  0.73483  Biso   1.000  C
  H98      1.0000 0.79897  0.79773  0.75443  Biso   1.000  H
  C170     1.0000 0.69466  0.91478  0.44463  Biso   1.000  C
  H99      1.0000 0.71267  0.93043  0.36503  Biso   1.000  H
  C171     1.0000 0.75414  0.87842  0.26503  Biso   1.000  C
  H100     1.0000 0.72317  0.85693  0.24793  Biso   1.000  H
  C172     1.0000 0.65733  0.91681  0.49623  Biso   1.000  C
  H101     1.0000 0.64507  0.93413  0.45763  Biso   1.000  H
  C173     1.0000 0.81597  0.92554  0.42093  Biso   1.000  C
  H102     1.0000 0.82797  0.93633  0.51223  Biso   1.000  H
  C174     1.0000 0.84414  0.94162  0.30203  Biso   1.000  C
  H103     1.0000 0.87517  0.96373  0.31543  Biso   1.000  H
  C175     1.0000 0.78451  0.89559  0.15353  Biso   1.000  C
  H104     1.0000 0.77347  0.88463  0.06143  Biso   1.000  H
  C176     1.0000 0.75360  0.75845  0.99923  Biso   1.000  C
  C177     1.0000 0.74282  0.71674  0.93623  Biso   1.000  C
  H105     1.0000 0.71957  0.70353  0.86703  Biso   1.000  H
  C178     1.0000 0.78797  0.77599  0.10263  Biso   1.000  C
  H106     1.0000 0.79617  0.80373  0.14943  Biso   1.000  H
  C179     1.0000 0.76675  0.69479  0.97653  Biso   1.000  C
  H107     1.0000 0.75917  0.66683  0.93233  Biso   1.000  H
  C180     1.0000 0.80988  0.75117  0.13443  Biso   1.000  C
  H108     1.0000 0.83337  0.76343  0.20313  Biso   1.000  H
  N33      1.0000 0.72590  0.83285  0.75993  Biso   1.000  N
  N34      1.0000 0.66702  0.86709  0.64143  Biso   1.000  N
  N35      1.0000 0.79997  0.71142  0.07473  Biso   1.000  N
  N36      1.0000 0.82942  0.92733  0.16853  Biso   1.000  N
  C181     1.0000 0.59554  0.79261  0.13633  Biso   1.000  C
  C182     1.0000 0.58506  0.81733  0.03403  Biso   1.000  C
  C183     1.0000 0.58915  0.85806  0.84173  Biso   1.000  C
  C184     1.0000 0.60434  0.88219  0.71073  Biso   1.000  C
  C185     1.0000 0.55043  0.83118  0.04973  Biso   1.000  C
  H109     1.0000 0.53027  0.82433  0.12703  Biso   1.000  H
  C186     1.0000 0.63267  0.78327  0.12843  Biso   1.000  C
  C187     1.0000 0.69295  0.77920  0.04593  Biso   1.000  C
  C188     1.0000 0.56391  0.77363  0.26273  Biso   1.000  C
  C189     1.0000 0.55276  0.85587  0.93183  Biso   1.000  C
  H110     1.0000 0.53437  0.86893  0.91223  Biso   1.000  H
  C190     1.0000 0.63868  0.75188  0.22203  Biso   1.000  C
  H111     1.0000 0.62067  0.73623  0.30163  Biso   1.000  H
  C191     1.0000 0.57920  0.78824  0.40163  Biso   1.000  C
  H112     1.0000 0.61017  0.80973  0.41873  Biso   1.000  H
  C192     1.0000 0.67601  0.74985  0.17043  Biso   1.000  C
  H113     1.0000 0.68827  0.73253  0.20903  Biso   1.000  H
  C193     1.0000 0.51737  0.74112  0.24573  Biso   1.000  C
  H114     1.0000 0.50537  0.73033  0.15443  Biso   1.000  H
  C194     1.0000 0.48920  0.72504  0.36463  Biso   1.000  C
  H115     1.0000 0.45817  0.70293  0.35123  Biso   1.000  H
  C195     1.0000 0.54883  0.77107  0.51313  Biso   1.000  C
  H116     1.0000 0.55987  0.78203  0.60523  Biso   1.000  H
  C196     1.0000 0.57974  0.90821  0.66743  Biso   1.000  C
  C197     1.0000 0.59052  0.94992  0.73043  Biso   1.000  C
  H117     1.0000 0.61377  0.96313  0.79963  Biso   1.000  H
  C198     1.0000 0.54537  0.89067  0.56403  Biso   1.000  C
  H118     1.0000 0.53717  0.86293  0.51723  Biso   1.000  H
  C199     1.0000 0.56659  0.97187  0.69013  Biso   1.000  C
  H119     1.0000 0.57417  0.99983  0.73433  Biso   1.000  H
  C200     1.0000 0.52346  0.91549  0.53223  Biso   1.000  C
  H120     1.0000 0.49997  0.90323  0.46353  Biso   1.000  H
  N37      1.0000 0.60744  0.83381  0.90673  Biso   1.000  N
  N38      1.0000 0.66632  0.79957  0.02523  Biso   1.000  N
  N39      1.0000 0.53337  0.95524  0.59193  Biso   1.000  N
  N40      1.0000 0.50392  0.73933  0.49813  Biso   1.000  N
  Mn5      1.0000 0.66667  0.83333  0.83333  Biso   1.000  Mn
  C201     1.0000 0.40446  0.20739  0.86367  Biso   1.000  C
  C202     1.0000 0.41494  0.18267  0.96597  Biso   1.000  C
  C203     1.0000 0.41085  0.14194  0.15827  Biso   1.000  C
  C204     1.0000 0.39566  0.11781  0.28927  Biso   1.000  C
  C205     1.0000 0.44957  0.16882  0.95027  Biso   1.000  C
  H121     1.0000 0.46973  0.17567  0.87297  Biso   1.000  H
  C206     1.0000 0.36733  0.21673  0.87157  Biso   1.000  C
  C207     1.0000 0.30705  0.22080  0.95407  Biso   1.000  C
  C208     1.0000 0.43609  0.22637  0.73727  Biso   1.000  C
  C209     1.0000 0.44724  0.14413  0.06817  Biso   1.000  C
  H122     1.0000 0.46563  0.13107  0.08777  Biso   1.000  H
  C210     1.0000 0.36132  0.24812  0.77797  Biso   1.000  C
  H123     1.0000 0.37933  0.26377  0.69837  Biso   1.000  H
  C211     1.0000 0.42080  0.21176  0.59837  Biso   1.000  C
  H124     1.0000 0.38983  0.19027  0.58127  Biso   1.000  H
  C212     1.0000 0.32399  0.25015  0.82957  Biso   1.000  C
  H125     1.0000 0.31173  0.26747  0.79097  Biso   1.000  H
  C213     1.0000 0.48263  0.25888  0.75427  Biso   1.000  C
  H126     1.0000 0.49463  0.26967  0.84557  Biso   1.000  H
  C214     1.0000 0.51080  0.27496  0.63537  Biso   1.000  C
  H127     1.0000 0.54183  0.29707  0.64877  Biso   1.000  H
  C215     1.0000 0.45117  0.22893  0.48687  Biso   1.000  C
  H128     1.0000 0.44013  0.21797  0.39477  Biso   1.000  H
  C216     1.0000 0.42026  0.09179  0.33257  Biso   1.000  C
  C217     1.0000 0.40948  0.05008  0.26957  Biso   1.000  C
  H129     1.0000 0.38623  0.03687  0.20037  Biso   1.000  H
  C218     1.0000 0.45463  0.10933  0.43597  Biso   1.000  C
  H130     1.0000 0.46283  0.13707  0.48277  Biso   1.000  H
  C219     1.0000 0.43341  0.02813  0.30987  Biso   1.000  C
  H131     1.0000 0.42583  0.00017  0.26567  Biso   1.000  H
  C220     1.0000 0.47654  0.08451  0.46777  Biso   1.000  C
  H132     1.0000 0.50003  0.09677  0.53647  Biso   1.000  H
  N41      1.0000 0.39256  0.16619  0.09327  Biso   1.000  N
  N42      1.0000 0.33368  0.20043  0.97477  Biso   1.000  N
  N43      1.0000 0.46663  0.04476  0.40807  Biso   1.000  N
  N44      1.0000 0.49608  0.26067  0.50187  Biso   1.000  N
  C221     1.0000 0.26220  0.12595  0.46967  Biso   1.000  C
  C222     1.0000 0.25172  0.15067  0.36737  Biso   1.000  C
  C223     1.0000 0.25581  0.19140  0.17507  Biso   1.000  C
  C224     1.0000 0.27100  0.21553  0.04407  Biso   1.000  C
  C225     1.0000 0.21709  0.16452  0.38307  Biso   1.000  C
  H133     1.0000 0.19693  0.15767  0.46037  Biso   1.000  H
  C226     1.0000 0.29933  0.11661  0.46177  Biso   1.000  C
  C227     1.0000 0.35961  0.11254  0.37927  Biso   1.000  C
  C228     1.0000 0.23057  0.10697  0.59607  Biso   1.000  C
  C229     1.0000 0.21942  0.18921  0.26517  Biso   1.000  C
  H134     1.0000 0.20103  0.20227  0.24557  Biso   1.000  H
  C230     1.0000 0.30534  0.08522  0.55537  Biso   1.000  C
  H135     1.0000 0.28733  0.06957  0.63497  Biso   1.000  H
  C231     1.0000 0.24586  0.12158  0.73497  Biso   1.000  C
  H136     1.0000 0.27683  0.14307  0.75207  Biso   1.000  H
  C232     1.0000 0.34267  0.08319  0.50377  Biso   1.000  C
  H137     1.0000 0.35493  0.06587  0.54237  Biso   1.000  H
  C233     1.0000 0.18403  0.07446  0.57907  Biso   1.000  C
  H138     1.0000 0.17203  0.06367  0.48777  Biso   1.000  H
  C234     1.0000 0.15586  0.05838  0.69797  Biso   1.000  C
  H139     1.0000 0.12483  0.03627  0.68457  Biso   1.000  H
  C235     1.0000 0.21549  0.10441  0.84647  Biso   1.000  C
  H140     1.0000 0.22653  0.11537  0.93857  Biso   1.000  H
  C236     1.0000 0.24640  0.24155  0.00077  Biso   1.000  C
  C237     1.0000 0.25718  0.28326  0.06377  Biso   1.000  C
  H141     1.0000 0.28043  0.29647  0.13297  Biso   1.000  H
  C238     1.0000 0.21203  0.22401  0.89737  Biso   1.000  C
  H142     1.0000 0.20383  0.19627  0.85057  Biso   1.000  H
  C239     1.0000 0.23325  0.30521  0.02347  Biso   1.000  C
  H143     1.0000 0.24083  0.33317  0.06767  Biso   1.000  H
  C240     1.0000 0.19012  0.24883  0.86557  Biso   1.000  C
  H144     1.0000 0.16663  0.23657  0.79687  Biso   1.000  H
  N45      1.0000 0.27410  0.16715  0.24007  Biso   1.000  N
  N46      1.0000 0.33298  0.13291  0.35857  Biso   1.000  N
  N47      1.0000 0.20003  0.28858  0.92527  Biso   1.000  N
  N48      1.0000 0.17058  0.07267  0.83147  Biso   1.000  N
  Mn6      1.0000 0.33333  0.16667  0.16667  Biso   1.000  Mn
  C241     1.0000 0.45928  0.53041  0.19700  Biso   1.000  C
  C242     1.0000 0.48400  0.56561  0.29930  Biso   1.000  C
  C243     1.0000 0.52473  0.60225  0.49160  Biso   1.000  C
  C244     1.0000 0.54886  0.61119  0.62260  Biso   1.000  C
  C245     1.0000 0.49785  0.61409  0.28360  Biso   1.000  C
  H145     1.0000 0.49100  0.62740  0.20630  Biso   1.000  H
  C246     1.0000 0.44994  0.48394  0.20490  Biso   1.000  C
  C247     1.0000 0.44587  0.41959  0.28740  Biso   1.000  C
  C248     1.0000 0.44030  0.54306  0.07060  Biso   1.000  C
  C249     1.0000 0.52254  0.63645  0.40150  Biso   1.000  C
  H146     1.0000 0.53560  0.66790  0.42110  Biso   1.000  H
  C250     1.0000 0.41855  0.44654  0.11130  Biso   1.000  C
  H147     1.0000 0.40290  0.44890  0.03170  Biso   1.000  H
  C251     1.0000 0.45491  0.54238  0.93170  Biso   1.000  C
  H148     1.0000 0.47640  0.53290  0.91460  Biso   1.000  H
  C252     1.0000 0.41652  0.40718  0.16290  Biso   1.000  C
  H149     1.0000 0.39920  0.37760  0.12430  Biso   1.000  H
  C253     1.0000 0.40779  0.55709  0.08760  Biso   1.000  C
  H150     1.0000 0.39700  0.55830  0.17890  Biso   1.000  H
  C254     1.0000 0.39171  0.56918  0.96870  Biso   1.000  C
  H151     1.0000 0.36960  0.57810  0.98210  Biso   1.000  H
  C255     1.0000 0.43774  0.55558  0.82020  Biso   1.000  C
  H152     1.0000 0.44870  0.55550  0.72810  Biso   1.000  H
  C256     1.0000 0.57488  0.66181  0.66590  Biso   1.000  C
  C257     1.0000 0.61659  0.69274  0.60290  Biso   1.000  C
  H153     1.0000 0.62980  0.68270  0.53370  Biso   1.000  H
  C258     1.0000 0.55734  0.67864  0.76930  Biso   1.000  C
  H154     1.0000 0.52960  0.65910  0.81610  Biso   1.000  H
  C259     1.0000 0.63854  0.73862  0.64320  Biso   1.000  C
  H155     1.0000 0.66650  0.75900  0.59900  Biso   1.000  H
  C260     1.0000 0.58216  0.72537  0.80110  Biso   1.000  C
  H156     1.0000 0.56990  0.73660  0.86980  Biso   1.000  H
  N49      1.0000 0.50048  0.55971  0.42660  Biso   1.000  N
  N50      1.0000 0.46624  0.46659  0.30810  Biso   1.000  N
  N51      1.0000 0.62191  0.75521  0.74140  Biso   1.000  N
  N52      1.0000 0.40600  0.56875  0.83520  Biso   1.000  N
  C261     1.0000 0.54072  0.46959  0.80300  Biso   1.000  C
  C262     1.0000 0.51600  0.43439  0.70070  Biso   1.000  C
  C263     1.0000 0.47527  0.39775  0.50840  Biso   1.000  C
  C264     1.0000 0.45114  0.38881  0.37740  Biso   1.000  C
  C265     1.0000 0.50215  0.38591  0.71640  Biso   1.000  C
  H157     1.0000 0.50900  0.37260  0.79370  Biso   1.000  H
  C266     1.0000 0.55006  0.51606  0.79510  Biso   1.000  C
  C267     1.0000 0.55413  0.58041  0.71260  Biso   1.000  C
  C268     1.0000 0.55970  0.45694  0.92940  Biso   1.000  C
  C269     1.0000 0.47746  0.36355  0.59850  Biso   1.000  C
  H158     1.0000 0.46440  0.33210  0.57890  Biso   1.000  H
  C270     1.0000 0.58145  0.55346  0.88870  Biso   1.000  C
  H159     1.0000 0.59710  0.55110  0.96830  Biso   1.000  H
  C271     1.0000 0.54509  0.45762  0.06830  Biso   1.000  C
  H160     1.0000 0.52360  0.46710  0.08540  Biso   1.000  H
  C272     1.0000 0.58348  0.59282  0.83710  Biso   1.000  C
  H161     1.0000 0.60080  0.62240  0.87570  Biso   1.000  H
  C273     1.0000 0.59221  0.44291  0.91240  Biso   1.000  C
  H162     1.0000 0.60300  0.44170  0.82110  Biso   1.000  H
  C274     1.0000 0.60829  0.43082  0.03130  Biso   1.000  C
  H163     1.0000 0.63040  0.42190  0.01790  Biso   1.000  H
  C275     1.0000 0.56226  0.44442  0.17980  Biso   1.000  C
  H164     1.0000 0.55130  0.44450  0.27190  Biso   1.000  H
  C276     1.0000 0.42512  0.33819  0.33410  Biso   1.000  C
  C277     1.0000 0.38341  0.30726  0.39710  Biso   1.000  C
  H165     1.0000 0.37020  0.31730  0.46630  Biso   1.000  H
  C278     1.0000 0.44266  0.32136  0.23070  Biso   1.000  C
  H166     1.0000 0.47040  0.34090  0.18390  Biso   1.000  H
  C279     1.0000 0.36146  0.26138  0.35680  Biso   1.000  C
  H167     1.0000 0.33350  0.24100  0.40100  Biso   1.000  H
  C280     1.0000 0.41784  0.27463  0.19890  Biso   1.000  C
  H168     1.0000 0.43010  0.26340  0.13020  Biso   1.000  H
  N53      1.0000 0.49952  0.44029  0.57340  Biso   1.000  N
  N54      1.0000 0.53376  0.53341  0.69190  Biso   1.000  N
  N55      1.0000 0.37809  0.24479  0.25860  Biso   1.000  N
  N56      1.0000 0.59400  0.43125  0.16480  Biso   1.000  N
  Mn7      1.0000 0.50000  0.50000  0.50000  Biso   1.000  Mn
  C281     1.0000 0.12595  0.86374  0.53033  Biso   1.000  C
  C282     1.0000 0.15067  0.89894  0.63263  Biso   1.000  C
  C283     1.0000 0.19140  0.93558  0.82493  Biso   1.000  C
  C284     1.0000 0.21553  0.94452  0.95593  Biso   1.000  C
  C285     1.0000 0.16452  0.94742  0.61693  Biso   1.000  C
  H169     1.0000 0.15767  0.96073  0.53963  Biso   1.000  H
  C286     1.0000 0.11661  0.81727  0.53823  Biso   1.000  C
  C287     1.0000 0.11254  0.75292  0.62073  Biso   1.000  C
  C288     1.0000 0.10697  0.87639  0.40393  Biso   1.000  C
  C289     1.0000 0.18921  0.96978  0.73483  Biso   1.000  C
  H170     1.0000 0.20227  0.00123  0.75443  Biso   1.000  H
  C290     1.0000 0.08522  0.77987  0.44463  Biso   1.000  C
  H171     1.0000 0.06957  0.78223  0.36503  Biso   1.000  H
  C291     1.0000 0.12158  0.87571  0.26503  Biso   1.000  C
  H172     1.0000 0.14307  0.86623  0.24793  Biso   1.000  H
  C292     1.0000 0.08319  0.74051  0.49623  Biso   1.000  C
  H173     1.0000 0.06587  0.71093  0.45763  Biso   1.000  H
  C293     1.0000 0.07446  0.89042  0.42093  Biso   1.000  C
  H174     1.0000 0.06367  0.89163  0.51223  Biso   1.000  H
  C294     1.0000 0.05838  0.90251  0.30203  Biso   1.000  C
  H175     1.0000 0.03627  0.91143  0.31543  Biso   1.000  H
  C295     1.0000 0.10441  0.88891  0.15353  Biso   1.000  C
  H176     1.0000 0.11537  0.88883  0.06143  Biso   1.000  H
  C296     1.0000 0.24155  0.99514  0.99923  Biso   1.000  C
  C297     1.0000 0.28326  0.02607  0.93623  Biso   1.000  C
  H177     1.0000 0.29647  0.01603  0.86703  Biso   1.000  H
  C298     1.0000 0.22401  0.01197  0.10263  Biso   1.000  C
  H178     1.0000 0.19627  0.99243  0.14943  Biso   1.000  H
  C299     1.0000 0.30521  0.07195  0.97653  Biso   1.000  C
  H179     1.0000 0.33317  0.09233  0.93233  Biso   1.000  H
  C300     1.0000 0.24883  0.05870  0.13443  Biso   1.000  C
  H180     1.0000 0.23657  0.06993  0.20313  Biso   1.000  H
  N57      1.0000 0.16715  0.89304  0.75993  Biso   1.000  N
  N58      1.0000 0.13291  0.79992  0.64143  Biso   1.000  N
  N59      1.0000 0.28858  0.08854  0.07473  Biso   1.000  N
  N60      1.0000 0.07267  0.90208  0.16853  Biso   1.000  N
  C301     1.0000 0.20739  0.80292  0.13633  Biso   1.000  C
  C302     1.0000 0.18267  0.76772  0.03403  Biso   1.000  C
  C303     1.0000 0.14194  0.73108  0.84173  Biso   1.000  C
  C304     1.0000 0.11781  0.72214  0.71073  Biso   1.000  C
  C305     1.0000 0.16882  0.71924  0.04973  Biso   1.000  C
  H181     1.0000 0.17567  0.70593  0.12703  Biso   1.000  H
  C306     1.0000 0.21673  0.84939  0.12843  Biso   1.000  C
  C307     1.0000 0.22080  0.91374  0.04593  Biso   1.000  C
  C308     1.0000 0.22637  0.79027  0.26273  Biso   1.000  C
  C309     1.0000 0.14413  0.69688  0.93183  Biso   1.000  C
  H182     1.0000 0.13107  0.66543  0.91223  Biso   1.000  H
  C310     1.0000 0.24812  0.88679  0.22203  Biso   1.000  C
  H183     1.0000 0.26377  0.88443  0.30163  Biso   1.000  H
  C311     1.0000 0.21176  0.79095  0.40163  Biso   1.000  C
  H184     1.0000 0.19027  0.80043  0.41873  Biso   1.000  H
  C312     1.0000 0.25015  0.92615  0.17043  Biso   1.000  C
  H185     1.0000 0.26747  0.95573  0.20903  Biso   1.000  H
  C313     1.0000 0.25888  0.77624  0.24573  Biso   1.000  C
  H186     1.0000 0.26967  0.77503  0.15443  Biso   1.000  H
  C314     1.0000 0.27496  0.76415  0.36463  Biso   1.000  C
  H187     1.0000 0.29707  0.75523  0.35123  Biso   1.000  H
  C315     1.0000 0.22893  0.77775  0.51313  Biso   1.000  C
  H188     1.0000 0.21797  0.77783  0.60523  Biso   1.000  H
  C316     1.0000 0.09179  0.67152  0.66743  Biso   1.000  C
  C317     1.0000 0.05008  0.64059  0.73043  Biso   1.000  C
  H189     1.0000 0.03687  0.65063  0.79963  Biso   1.000  H
  C318     1.0000 0.10933  0.65469  0.56403  Biso   1.000  C
  H190     1.0000 0.13707  0.67423  0.51723  Biso   1.000  H
  C319     1.0000 0.02813  0.59471  0.69013  Biso   1.000  C
  H191     1.0000 0.00017  0.57433  0.73433  Biso   1.000  H
  C320     1.0000 0.08451  0.60796  0.53223  Biso   1.000  C
  H192     1.0000 0.09677  0.59673  0.46353  Biso   1.000  H
  N61      1.0000 0.16619  0.77362  0.90673  Biso   1.000  N
  N62      1.0000 0.20043  0.86674  0.02523  Biso   1.000  N
  N63      1.0000 0.04476  0.57812  0.59193  Biso   1.000  N
  N64      1.0000 0.26067  0.76458  0.49813  Biso   1.000  N
  Mn8      1.0000 0.16667  0.83333  0.83333  Biso   1.000  Mn
  C321     1.0000 0.79261  0.19708  0.86367  Biso   1.000  C
  C322     1.0000 0.81733  0.23228  0.96597  Biso   1.000  C
  C323     1.0000 0.85806  0.26892  0.15827  Biso   1.000  C
  C324     1.0000 0.88219  0.27786  0.28927  Biso   1.000  C
  C325     1.0000 0.83118  0.28076  0.95027  Biso   1.000  C
  H193     1.0000 0.82433  0.29407  0.87297  Biso   1.000  H
  C326     1.0000 0.78327  0.15061  0.87157  Biso   1.000  C
  C327     1.0000 0.77920  0.08626  0.95407  Biso   1.000  C
  C328     1.0000 0.77363  0.20973  0.73727  Biso   1.000  C
  C329     1.0000 0.85587  0.30312  0.06817  Biso   1.000  C
  H194     1.0000 0.86893  0.33457  0.08777  Biso   1.000  H
  C330     1.0000 0.75188  0.11321  0.77797  Biso   1.000  C
  H195     1.0000 0.73623  0.11557  0.69837  Biso   1.000  H
  C331     1.0000 0.78824  0.20905  0.59837  Biso   1.000  C
  H196     1.0000 0.80973  0.19957  0.58127  Biso   1.000  H
  C332     1.0000 0.74985  0.07385  0.82957  Biso   1.000  C
  H197     1.0000 0.73253  0.04427  0.79097  Biso   1.000  H
  C333     1.0000 0.74112  0.22376  0.75427  Biso   1.000  C
  H198     1.0000 0.73033  0.22497  0.84557  Biso   1.000  H
  C334     1.0000 0.72504  0.23585  0.63537  Biso   1.000  C
  H199     1.0000 0.70293  0.24477  0.64877  Biso   1.000  H
  C335     1.0000 0.77107  0.22225  0.48687  Biso   1.000  C
  H200     1.0000 0.78203  0.22217  0.39477  Biso   1.000  H
  C336     1.0000 0.90821  0.32848  0.33257  Biso   1.000  C
  C337     1.0000 0.94992  0.35941  0.26957  Biso   1.000  C
  H201     1.0000 0.96313  0.34937  0.20037  Biso   1.000  H
  C338     1.0000 0.89067  0.34531  0.43597  Biso   1.000  C
  H202     1.0000 0.86293  0.32577  0.48277  Biso   1.000  H
  C339     1.0000 0.97187  0.40529  0.30987  Biso   1.000  C
  H203     1.0000 0.99983  0.42567  0.26567  Biso   1.000  H
  C340     1.0000 0.91549  0.39204  0.46777  Biso   1.000  C
  H204     1.0000 0.90323  0.40327  0.53647  Biso   1.000  H
  N65      1.0000 0.83381  0.22638  0.09327  Biso   1.000  N
  N66      1.0000 0.79957  0.13326  0.97477  Biso   1.000  N
  N67      1.0000 0.95524  0.42188  0.40807  Biso   1.000  N
  N68      1.0000 0.73933  0.23542  0.50187  Biso   1.000  N
  C341     1.0000 0.87405  0.13626  0.46967  Biso   1.000  C
  C342     1.0000 0.84933  0.10106  0.36737  Biso   1.000  C
  C343     1.0000 0.80860  0.06442  0.17507  Biso   1.000  C
  C344     1.0000 0.78447  0.05548  0.04407  Biso   1.000  C
  C345     1.0000 0.83548  0.05258  0.38307  Biso   1.000  C
  H205     1.0000 0.84233  0.03927  0.46037  Biso   1.000  H
  C346     1.0000 0.88339  0.18273  0.46177  Biso   1.000  C
  C347     1.0000 0.88746  0.24708  0.37927  Biso   1.000  C
  C348     1.0000 0.89303  0.12361  0.59607  Biso   1.000  C
  C349     1.0000 0.81079  0.03022  0.26517  Biso   1.000  C
  H206     1.0000 0.79773  0.99877  0.24557  Biso   1.000  H
  C350     1.0000 0.91478  0.22013  0.55537  Biso   1.000  C
  H207     1.0000 0.93043  0.21777  0.63497  Biso   1.000  H
  C351     1.0000 0.87842  0.12429  0.73497  Biso   1.000  C
  H208     1.0000 0.85693  0.13377  0.75207  Biso   1.000  H
  C352     1.0000 0.91681  0.25949  0.50377  Biso   1.000  C
  H209     1.0000 0.93413  0.28907  0.54237  Biso   1.000  H
  C353     1.0000 0.92554  0.10958  0.57907  Biso   1.000  C
  H210     1.0000 0.93633  0.10837  0.48777  Biso   1.000  H
  C354     1.0000 0.94162  0.09749  0.69797  Biso   1.000  C
  H211     1.0000 0.96373  0.08857  0.68457  Biso   1.000  H
  C355     1.0000 0.89559  0.11109  0.84647  Biso   1.000  C
  H212     1.0000 0.88463  0.11117  0.93857  Biso   1.000  H
  C356     1.0000 0.75845  0.00486  0.00077  Biso   1.000  C
  C357     1.0000 0.71674  0.97393  0.06377  Biso   1.000  C
  H213     1.0000 0.70353  0.98397  0.13297  Biso   1.000  H
  C358     1.0000 0.77599  0.98803  0.89737  Biso   1.000  C
  H214     1.0000 0.80373  0.00757  0.85057  Biso   1.000  H
  C359     1.0000 0.69479  0.92805  0.02347  Biso   1.000  C
  H215     1.0000 0.66683  0.90767  0.06767  Biso   1.000  H
  C360     1.0000 0.75117  0.94130  0.86557  Biso   1.000  C
  H216     1.0000 0.76343  0.93007  0.79687  Biso   1.000  H
  N69      1.0000 0.83285  0.10696  0.24007  Biso   1.000  N
  N70      1.0000 0.86709  0.20008  0.35857  Biso   1.000  N
  N71      1.0000 0.71142  0.91146  0.92527  Biso   1.000  N
  N72      1.0000 0.92733  0.09792  0.83147  Biso   1.000  N
  Mn9      1.0000 0.83333  0.16667  0.16667  Biso   1.000  Mn
