data_image0
_cell_length_a       44.998
_cell_length_b       20.613
_cell_length_c       16.1694
_cell_angle_alpha    90
_cell_angle_beta     94.777
_cell_angle_gamma    90

_symmetry_space_group_name_H-M    "P 1"
_symmetry_int_tables_number       1

loop_
  _symmetry_equiv_pos_as_xyz
  'x, y, z'

loop_
  _atom_site_label
  _atom_site_occupancy
  _atom_site_fract_x
  _atom_site_fract_y
  _atom_site_fract_z
  _atom_site_thermal_displace_type
  _atom_site_B_iso_or_equiv
  _atom_site_type_symbol
  Co1      1.0000 0.07871  0.17770  0.53715  Biso   1.000  Co
  N1       1.0000 0.08324  0.27983  0.55680  Biso   1.000  N
  O1       1.0000 0.06332  0.19736  0.42024  Biso   1.000  O
  O2       1.0000 0.12782  0.18089  0.53796  Biso   1.000  O
  O3       1.0000 0.10575  0.15820  0.65015  Biso   1.000  O
  N2       1.0000 0.10331  0.31229  0.51230  Biso   1.000  N
  C1       1.0000 0.07057  0.32270  0.60030  Biso   1.000  C
  C2       1.0000 0.07878  0.21820  0.36350  Biso   1.000  C
  Co2      1.0000 0.13667  0.25963  0.45512  Biso   1.000  Co
  C3       1.0000 0.12914  0.16900  0.61600  Biso   1.000  C
  C4       1.0000 0.10155  0.37330  0.53070  Biso   1.000  C
  N3       1.0000 0.08072  0.38266  0.58570  Biso   1.000  N
  H1       1.0000 0.05630  0.31330  0.63700  Biso   1.000  H
  O4       1.0000 0.10677  0.22052  0.36836  Biso   1.000  O
  C5       1.0000 0.06199  0.24340  0.28600  Biso   1.000  C
  N4       1.0000 0.16919  0.19921  0.41158  Biso   1.000  N
  O5       1.0000 0.14308  0.33494  0.37464  Biso   1.000  O
  O6       1.0000 0.16518  0.30204  0.54968  Biso   1.000  O
  C6       1.0000 0.15867  0.16812  0.66550  Biso   1.000  C
  H2       1.0000 0.11290  0.40600  0.50930  Biso   1.000  H
  C7       1.0000 0.07217  0.44235  0.62170  Biso   1.000  C
  C8       1.0000 0.03142  0.25590  0.28560  Biso   1.000  C
  C9       1.0000 0.07664  0.25700  0.21670  Biso   1.000  C
  N5       1.0000 0.19884  0.21761  0.41180  Biso   1.000  N
  C10      1.0000 0.16733  0.14020  0.38390  Biso   1.000  C
  C11      1.0000 0.16163  0.38000  0.36990  Biso   1.000  C
  C12      1.0000 0.18770  0.31680  0.59520  Biso   1.000  C
  C13      1.0000 0.15932  0.17221  0.75230  Biso   1.000  C
  C14      1.0000 0.18536  0.16845  0.62780  Biso   1.000  C
  C15      1.0000 0.05685  0.44120  0.69300  Biso   1.000  C
  H3       1.0000 0.02150  0.24640  0.33230  Biso   1.000  H
  C16      1.0000 0.01587  0.28230  0.21600  Biso   1.000  C
  C17      1.0000 0.06134  0.28150  0.14580  Biso   1.000  C
  H4       1.0000 0.09710  0.24970  0.21750  Biso   1.000  H
  Co3      1.0000 0.21386  0.30818  0.44757  Biso   1.000  Co
  C18      1.0000 0.21315  0.16866  0.38330  Biso   1.000  C
  N6       1.0000 0.19430  0.11820  0.36490  Biso   1.000  N
  H5       1.0000 0.14980  0.11610  0.37780  Biso   1.000  H
  O7       1.0000 0.18858  0.37889  0.39949  Biso   1.000  O
  C19      1.0000 0.15160  0.44170  0.32780  Biso   1.000  C
  O8       1.0000 0.21346  0.32282  0.56971  Biso   1.000  O
  C20      1.0000 0.18470  0.32840  0.68590  Biso   1.000  C
  H6       1.0000 0.14150  0.17170  0.77780  Biso   1.000  H
  C21      1.0000 0.18611  0.17695  0.80010  Biso   1.000  C
  C22      1.0000 0.21223  0.17458  0.67490  Biso   1.000  C
  H7       1.0000 0.18510  0.16450  0.57040  Biso   1.000  H
  H8       1.0000 0.05140  0.40210  0.71630  Biso   1.000  H
  C23      1.0000 0.03083  0.29400  0.14610  Biso   1.000  C
  C24      1.0000 0.98271  0.29450  0.21760  Biso   1.000  C
  C25      1.0000 0.07691  0.29080  0.06880  Biso   1.000  C
  O9       1.0000 0.23585  0.30491  0.31836  Biso   1.000  O
  O10      1.0000 0.25805  0.32303  0.44163  Biso   1.000  O
  H9       1.0000 0.23350  0.16820  0.37660  Biso   1.000  H
  C26      1.0000 0.20195  0.05714  0.32860  Biso   1.000  C
  C27      1.0000 0.13336  0.44140  0.25450  Biso   1.000  C
  C28      1.0000 0.15684  0.32902  0.71650  Biso   1.000  C
  C29      1.0000 0.21018  0.33477  0.74100  Biso   1.000  C
  C30      1.0000 0.21240  0.17854  0.76000  Biso   1.000  C
  C31      1.0000 0.18720  0.18472  0.89220  Biso   1.000  C
  C32      1.0000 0.24109  0.18240  0.63670  Biso   1.000  C
  H10      1.0000 0.02040  0.31040  0.09850  Biso   1.000  H
  O11      1.0000 0.97004  0.27326  0.27740  Biso   1.000  O
  O12      1.0000 0.97011  0.32532  0.15687  Biso   1.000  O
  O13      1.0000 0.10463  0.28194  0.07410  Biso   1.000  O
  O14      1.0000 0.06123  0.30644  0.00360  Biso   1.000  O
  C33      1.0000 0.21810  0.05880  0.26120  Biso   1.000  C
  H11      1.0000 0.12640  0.40210  0.23210  Biso   1.000  H
  H12      1.0000 0.13980  0.32440  0.68010  Biso   1.000  H
  C34      1.0000 0.15396  0.33644  0.80110  Biso   1.000  C
  C35      1.0000 0.20741  0.34468  0.82540  Biso   1.000  C
  H13      1.0000 0.22900  0.33240  0.72140  Biso   1.000  H
  H14      1.0000 0.23050  0.18240  0.79170  Biso   1.000  H
  O15      1.0000 0.16419  0.19844  0.92565  Biso   1.000  O
  O16      1.0000 0.21254  0.17662  0.93198  Biso   1.000  O
  Co4      1.0000 0.92681  0.32138  0.11157  Biso   1.000  Co
  Co5      1.0000 0.13309  0.24190  0.99956  Biso   1.000  Co
  H15      1.0000 0.22330  0.09810  0.23810  Biso   1.000  H
  C36      1.0000 0.17936  0.34578  0.85460  Biso   1.000  C
  C37      1.0000 0.12411  0.33280  0.83480  Biso   1.000  C
  C38      1.0000 0.23459  0.35010  0.88590  Biso   1.000  C
  Co6      1.0000 0.20817  0.18769  0.05171  Biso   1.000  Co
  O17      1.0000 0.89906  0.34031  0.21139  Biso   1.000  O
  O18      1.0000 0.87716  0.31984  0.08772  Biso   1.000  O
  N7       1.0000 0.92041  0.21970  0.12770  Biso   1.000  N
  O19      1.0000 0.10316  0.44750  0.09170  Biso   1.000  O
  H16      1.0000 0.17750  0.35290  0.91080  Biso   1.000  H
  O20      1.0000 0.23473  0.38949  0.94370  Biso   1.000  O
  O21      1.0000 0.25619  0.31323  0.87187  Biso   1.000  O
  N8       1.0000 0.10104  0.18908  0.92410  Biso   1.000  N
  N9       1.0000 0.16634  0.30053  0.05916  Biso   1.000  N
  O22      1.0000 0.13664  0.16311  0.08371  Biso   1.000  O
  N10      1.0000 0.19586  0.28103  0.06990  Biso   1.000  N
  O23      1.0000 0.18267  0.12123  0.09209  Biso   1.000  O
  C39      1.0000 0.10109  0.12830  0.90240  Biso   1.000  C
  C40      1.0000 0.16539  0.36020  0.08310  Biso   1.000  C
  C41      1.0000 0.15521  0.11980  0.10400  Biso   1.000  C
  C42      1.0000 0.21130  0.33020  0.10060  Biso   1.000  C
  C43      1.0000 0.06772  0.17620  0.82200  Biso   1.000  C
  N11      1.0000 0.08036  0.11705  0.83870  Biso   1.000  N
  H17      1.0000 0.11370  0.09690  0.92740  Biso   1.000  H
  N12      1.0000 0.19311  0.38149  0.11050  Biso   1.000  N
  H18      1.0000 0.14810  0.38520  0.08170  Biso   1.000  H
  C44      1.0000 0.14543  0.05872  0.14390  Biso   1.000  C
  H19      1.0000 0.23180  0.33010  0.11370  Biso   1.000  H
  H20      1.0000 0.05270  0.18420  0.78040  Biso   1.000  H
  C45      1.0000 0.07348  0.05750  0.79700  Biso   1.000  C
  C46      1.0000 0.20198  0.44296  0.14700  Biso   1.000  C
  C47      1.0000 0.12792  0.05870  0.21060  Biso   1.000  C
  C48      1.0000 0.05961  0.05870  0.71860  Biso   1.000  C
  C49      1.0000 0.22041  0.44200  0.21990  Biso   1.000  C
  H21      1.0000 0.12120  0.09770  0.23110  Biso   1.000  H
  H22      1.0000 0.05500  0.09790  0.69210  Biso   1.000  H
  H23      1.0000 0.22680  0.40280  0.24360  Biso   1.000  H
  O24      1.0000 0.10105  0.05333  0.36090  Biso   1.000  O
  Co7      1.0000 0.57871  0.67770  0.53715  Biso   1.000  Co
  N13      1.0000 0.58324  0.77983  0.55680  Biso   1.000  N
  O25      1.0000 0.56332  0.69736  0.42024  Biso   1.000  O
  O26      1.0000 0.62782  0.68089  0.53796  Biso   1.000  O
  O27      1.0000 0.60575  0.65820  0.65015  Biso   1.000  O
  N14      1.0000 0.60331  0.81229  0.51230  Biso   1.000  N
  C50      1.0000 0.57057  0.82270  0.60030  Biso   1.000  C
  C51      1.0000 0.57878  0.71820  0.36350  Biso   1.000  C
  Co8      1.0000 0.63667  0.75963  0.45512  Biso   1.000  Co
  C52      1.0000 0.62914  0.66900  0.61600  Biso   1.000  C
  C53      1.0000 0.60155  0.87330  0.53070  Biso   1.000  C
  N15      1.0000 0.58072  0.88266  0.58570  Biso   1.000  N
  H24      1.0000 0.55630  0.81330  0.63700  Biso   1.000  H
  O28      1.0000 0.60677  0.72052  0.36836  Biso   1.000  O
  C54      1.0000 0.56199  0.74340  0.28600  Biso   1.000  C
  N16      1.0000 0.66919  0.69921  0.41158  Biso   1.000  N
  O29      1.0000 0.64308  0.83494  0.37464  Biso   1.000  O
  O30      1.0000 0.66518  0.80204  0.54968  Biso   1.000  O
  C55      1.0000 0.65867  0.66812  0.66550  Biso   1.000  C
  H25      1.0000 0.61290  0.90600  0.50930  Biso   1.000  H
  C56      1.0000 0.57217  0.94235  0.62170  Biso   1.000  C
  C57      1.0000 0.53142  0.75590  0.28560  Biso   1.000  C
  C58      1.0000 0.57664  0.75700  0.21670  Biso   1.000  C
  N17      1.0000 0.69884  0.71761  0.41180  Biso   1.000  N
  C59      1.0000 0.66733  0.64020  0.38390  Biso   1.000  C
  C60      1.0000 0.66163  0.88000  0.36990  Biso   1.000  C
  C61      1.0000 0.68770  0.81680  0.59520  Biso   1.000  C
  C62      1.0000 0.65932  0.67221  0.75230  Biso   1.000  C
  C63      1.0000 0.68536  0.66845  0.62780  Biso   1.000  C
  C64      1.0000 0.55685  0.94120  0.69300  Biso   1.000  C
  H26      1.0000 0.52150  0.74640  0.33230  Biso   1.000  H
  C65      1.0000 0.51587  0.78230  0.21600  Biso   1.000  C
  C66      1.0000 0.56134  0.78150  0.14580  Biso   1.000  C
  H27      1.0000 0.59710  0.74970  0.21750  Biso   1.000  H
  Co9      1.0000 0.71386  0.80818  0.44757  Biso   1.000  Co
  C67      1.0000 0.71315  0.66866  0.38330  Biso   1.000  C
  N18      1.0000 0.69430  0.61820  0.36490  Biso   1.000  N
  H28      1.0000 0.64980  0.61610  0.37780  Biso   1.000  H
  O31      1.0000 0.68858  0.87889  0.39949  Biso   1.000  O
  C68      1.0000 0.65160  0.94170  0.32780  Biso   1.000  C
  O32      1.0000 0.71346  0.82282  0.56971  Biso   1.000  O
  C69      1.0000 0.68470  0.82840  0.68590  Biso   1.000  C
  H29      1.0000 0.64150  0.67170  0.77780  Biso   1.000  H
  C70      1.0000 0.68611  0.67695  0.80010  Biso   1.000  C
  C71      1.0000 0.71223  0.67458  0.67490  Biso   1.000  C
  H30      1.0000 0.68510  0.66450  0.57040  Biso   1.000  H
  H31      1.0000 0.55140  0.90210  0.71630  Biso   1.000  H
  C72      1.0000 0.53083  0.79400  0.14610  Biso   1.000  C
  C73      1.0000 0.48271  0.79450  0.21760  Biso   1.000  C
  C74      1.0000 0.57691  0.79080  0.06880  Biso   1.000  C
  O33      1.0000 0.73585  0.80491  0.31836  Biso   1.000  O
  O34      1.0000 0.75805  0.82303  0.44163  Biso   1.000  O
  H32      1.0000 0.73350  0.66820  0.37660  Biso   1.000  H
  C75      1.0000 0.70195  0.55714  0.32860  Biso   1.000  C
  C76      1.0000 0.63336  0.94140  0.25450  Biso   1.000  C
  C77      1.0000 0.65684  0.82902  0.71650  Biso   1.000  C
  C78      1.0000 0.71018  0.83477  0.74100  Biso   1.000  C
  C79      1.0000 0.71240  0.67854  0.76000  Biso   1.000  C
  C80      1.0000 0.68720  0.68472  0.89220  Biso   1.000  C
  C81      1.0000 0.74109  0.68240  0.63670  Biso   1.000  C
  H33      1.0000 0.52040  0.81040  0.09850  Biso   1.000  H
  O35      1.0000 0.47004  0.77326  0.27740  Biso   1.000  O
  O36      1.0000 0.47011  0.82532  0.15687  Biso   1.000  O
  O37      1.0000 0.60463  0.78194  0.07410  Biso   1.000  O
  O38      1.0000 0.56123  0.80644  0.00360  Biso   1.000  O
  C82      1.0000 0.71810  0.55880  0.26120  Biso   1.000  C
  H34      1.0000 0.62640  0.90210  0.23210  Biso   1.000  H
  H35      1.0000 0.63980  0.82440  0.68010  Biso   1.000  H
  C83      1.0000 0.65396  0.83644  0.80110  Biso   1.000  C
  C84      1.0000 0.70741  0.84468  0.82540  Biso   1.000  C
  H36      1.0000 0.72900  0.83240  0.72140  Biso   1.000  H
  H37      1.0000 0.73050  0.68240  0.79170  Biso   1.000  H
  O39      1.0000 0.66419  0.69844  0.92565  Biso   1.000  O
  O40      1.0000 0.71254  0.67662  0.93198  Biso   1.000  O
  Co10     1.0000 0.42681  0.82138  0.11157  Biso   1.000  Co
  Co11     1.0000 0.63309  0.74190  0.99956  Biso   1.000  Co
  H38      1.0000 0.72330  0.59810  0.23810  Biso   1.000  H
  C85      1.0000 0.67936  0.84578  0.85460  Biso   1.000  C
  C86      1.0000 0.62411  0.83280  0.83480  Biso   1.000  C
  C87      1.0000 0.73459  0.85010  0.88590  Biso   1.000  C
  Co12     1.0000 0.70817  0.68769  0.05171  Biso   1.000  Co
  O41      1.0000 0.39906  0.84031  0.21139  Biso   1.000  O
  O42      1.0000 0.37716  0.81984  0.08772  Biso   1.000  O
  N19      1.0000 0.42041  0.71970  0.12770  Biso   1.000  N
  O43      1.0000 0.60316  0.94750  0.09170  Biso   1.000  O
  H39      1.0000 0.67750  0.85290  0.91080  Biso   1.000  H
  O44      1.0000 0.73473  0.88949  0.94370  Biso   1.000  O
  O45      1.0000 0.75619  0.81323  0.87187  Biso   1.000  O
  N20      1.0000 0.60104  0.68908  0.92410  Biso   1.000  N
  N21      1.0000 0.66634  0.80053  0.05916  Biso   1.000  N
  O46      1.0000 0.63664  0.66311  0.08371  Biso   1.000  O
  N22      1.0000 0.69586  0.78103  0.06990  Biso   1.000  N
  O47      1.0000 0.68267  0.62123  0.09209  Biso   1.000  O
  C88      1.0000 0.60109  0.62830  0.90240  Biso   1.000  C
  C89      1.0000 0.66539  0.86020  0.08310  Biso   1.000  C
  C90      1.0000 0.65521  0.61980  0.10400  Biso   1.000  C
  C91      1.0000 0.71130  0.83020  0.10060  Biso   1.000  C
  C92      1.0000 0.56772  0.67620  0.82200  Biso   1.000  C
  N23      1.0000 0.58036  0.61705  0.83870  Biso   1.000  N
  H40      1.0000 0.61370  0.59690  0.92740  Biso   1.000  H
  N24      1.0000 0.69311  0.88149  0.11050  Biso   1.000  N
  H41      1.0000 0.64810  0.88520  0.08170  Biso   1.000  H
  C93      1.0000 0.64543  0.55872  0.14390  Biso   1.000  C
  H42      1.0000 0.73180  0.83010  0.11370  Biso   1.000  H
  H43      1.0000 0.55270  0.68420  0.78040  Biso   1.000  H
  C94      1.0000 0.57348  0.55750  0.79700  Biso   1.000  C
  C95      1.0000 0.70198  0.94296  0.14700  Biso   1.000  C
  C96      1.0000 0.62792  0.55870  0.21060  Biso   1.000  C
  C97      1.0000 0.55961  0.55870  0.71860  Biso   1.000  C
  C98      1.0000 0.72041  0.94200  0.21990  Biso   1.000  C
  H44      1.0000 0.62120  0.59770  0.23110  Biso   1.000  H
  H45      1.0000 0.55500  0.59790  0.69210  Biso   1.000  H
  H46      1.0000 0.72680  0.90280  0.24360  Biso   1.000  H
  O48      1.0000 0.60105  0.55333  0.36090  Biso   1.000  O
  Co13     1.0000 0.92129  0.17770  0.46285  Biso   1.000  Co
  N25      1.0000 0.91676  0.27983  0.44320  Biso   1.000  N
  O49      1.0000 0.93668  0.19736  0.57976  Biso   1.000  O
  O50      1.0000 0.87218  0.18089  0.46204  Biso   1.000  O
  O51      1.0000 0.89425  0.15820  0.34985  Biso   1.000  O
  N26      1.0000 0.89669  0.31229  0.48770  Biso   1.000  N
  C99      1.0000 0.92943  0.32270  0.39970  Biso   1.000  C
  C100     1.0000 0.92122  0.21820  0.63650  Biso   1.000  C
  Co14     1.0000 0.86333  0.25963  0.54488  Biso   1.000  Co
  C101     1.0000 0.87086  0.16900  0.38400  Biso   1.000  C
  C102     1.0000 0.89845  0.37330  0.46930  Biso   1.000  C
  N27      1.0000 0.91928  0.38266  0.41430  Biso   1.000  N
  H47      1.0000 0.94370  0.31330  0.36300  Biso   1.000  H
  O52      1.0000 0.89323  0.22052  0.63164  Biso   1.000  O
  C103     1.0000 0.93801  0.24340  0.71400  Biso   1.000  C
  N28      1.0000 0.83081  0.19921  0.58842  Biso   1.000  N
  O53      1.0000 0.85692  0.33494  0.62536  Biso   1.000  O
  O54      1.0000 0.83482  0.30204  0.45032  Biso   1.000  O
  C104     1.0000 0.84133  0.16812  0.33450  Biso   1.000  C
  H48      1.0000 0.88710  0.40600  0.49070  Biso   1.000  H
  C105     1.0000 0.92783  0.44235  0.37830  Biso   1.000  C
  C106     1.0000 0.96858  0.25590  0.71440  Biso   1.000  C
  C107     1.0000 0.92336  0.25700  0.78330  Biso   1.000  C
  N29      1.0000 0.80116  0.21761  0.58820  Biso   1.000  N
  C108     1.0000 0.83267  0.14020  0.61610  Biso   1.000  C
  C109     1.0000 0.83837  0.38000  0.63010  Biso   1.000  C
  C110     1.0000 0.81230  0.31680  0.40480  Biso   1.000  C
  C111     1.0000 0.84068  0.17221  0.24770  Biso   1.000  C
  C112     1.0000 0.81464  0.16845  0.37220  Biso   1.000  C
  C113     1.0000 0.94315  0.44120  0.30700  Biso   1.000  C
  H49      1.0000 0.97850  0.24640  0.66770  Biso   1.000  H
  C114     1.0000 0.98413  0.28230  0.78400  Biso   1.000  C
  C115     1.0000 0.93866  0.28150  0.85420  Biso   1.000  C
  H50      1.0000 0.90290  0.24970  0.78250  Biso   1.000  H
  Co15     1.0000 0.78614  0.30818  0.55243  Biso   1.000  Co
  C116     1.0000 0.78685  0.16866  0.61670  Biso   1.000  C
  N30      1.0000 0.80570  0.11820  0.63510  Biso   1.000  N
  H51      1.0000 0.85020  0.11610  0.62220  Biso   1.000  H
  O55      1.0000 0.81142  0.37889  0.60051  Biso   1.000  O
  C117     1.0000 0.84840  0.44170  0.67220  Biso   1.000  C
  O56      1.0000 0.78654  0.32282  0.43029  Biso   1.000  O
  C118     1.0000 0.81530  0.32840  0.31410  Biso   1.000  C
  H52      1.0000 0.85850  0.17170  0.22220  Biso   1.000  H
  C119     1.0000 0.81389  0.17695  0.19990  Biso   1.000  C
  C120     1.0000 0.78777  0.17458  0.32510  Biso   1.000  C
  H53      1.0000 0.81490  0.16450  0.42960  Biso   1.000  H
  H54      1.0000 0.94860  0.40210  0.28370  Biso   1.000  H
  C121     1.0000 0.96917  0.29400  0.85390  Biso   1.000  C
  C122     1.0000 0.01729  0.29450  0.78240  Biso   1.000  C
  C123     1.0000 0.92309  0.29080  0.93120  Biso   1.000  C
  O57      1.0000 0.76415  0.30491  0.68164  Biso   1.000  O
  O58      1.0000 0.74195  0.32303  0.55837  Biso   1.000  O
  H55      1.0000 0.76650  0.16820  0.62340  Biso   1.000  H
  C124     1.0000 0.79805  0.05714  0.67140  Biso   1.000  C
  C125     1.0000 0.86664  0.44140  0.74550  Biso   1.000  C
  C126     1.0000 0.84316  0.32902  0.28350  Biso   1.000  C
  C127     1.0000 0.78982  0.33477  0.25900  Biso   1.000  C
  C128     1.0000 0.78760  0.17854  0.24000  Biso   1.000  C
  C129     1.0000 0.81280  0.18472  0.10780  Biso   1.000  C
  C130     1.0000 0.75891  0.18240  0.36330  Biso   1.000  C
  H56      1.0000 0.97960  0.31040  0.90150  Biso   1.000  H
  O59      1.0000 0.02996  0.27326  0.72260  Biso   1.000  O
  O60      1.0000 0.02989  0.32532  0.84313  Biso   1.000  O
  O61      1.0000 0.89537  0.28194  0.92590  Biso   1.000  O
  O62      1.0000 0.93877  0.30644  0.99640  Biso   1.000  O
  C131     1.0000 0.78190  0.05880  0.73880  Biso   1.000  C
  H57      1.0000 0.87360  0.40210  0.76790  Biso   1.000  H
  H58      1.0000 0.86020  0.32440  0.31990  Biso   1.000  H
  C132     1.0000 0.84604  0.33644  0.19890  Biso   1.000  C
  C133     1.0000 0.79259  0.34468  0.17460  Biso   1.000  C
  H59      1.0000 0.77100  0.33240  0.27860  Biso   1.000  H
  H60      1.0000 0.76950  0.18240  0.20830  Biso   1.000  H
  O63      1.0000 0.83581  0.19844  0.07435  Biso   1.000  O
  O64      1.0000 0.78746  0.17662  0.06802  Biso   1.000  O
  Co16     1.0000 0.07319  0.32138  0.88843  Biso   1.000  Co
  Co17     1.0000 0.86691  0.24190  0.00044  Biso   1.000  Co
  H61      1.0000 0.77670  0.09810  0.76190  Biso   1.000  H
  C134     1.0000 0.82064  0.34578  0.14540  Biso   1.000  C
  C135     1.0000 0.87589  0.33280  0.16520  Biso   1.000  C
  C136     1.0000 0.76541  0.35010  0.11410  Biso   1.000  C
  Co18     1.0000 0.79183  0.18769  0.94829  Biso   1.000  Co
  O65      1.0000 0.10094  0.34031  0.78861  Biso   1.000  O
  O66      1.0000 0.12284  0.31984  0.91228  Biso   1.000  O
  N31      1.0000 0.07959  0.21970  0.87230  Biso   1.000  N
  O67      1.0000 0.89684  0.44750  0.90830  Biso   1.000  O
  H62      1.0000 0.82250  0.35290  0.08920  Biso   1.000  H
  O68      1.0000 0.76527  0.38949  0.05630  Biso   1.000  O
  O69      1.0000 0.74381  0.31323  0.12813  Biso   1.000  O
  N32      1.0000 0.89896  0.18908  0.07590  Biso   1.000  N
  N33      1.0000 0.83366  0.30053  0.94084  Biso   1.000  N
  O70      1.0000 0.86336  0.16311  0.91629  Biso   1.000  O
  N34      1.0000 0.80414  0.28103  0.93010  Biso   1.000  N
  O71      1.0000 0.81733  0.12123  0.90791  Biso   1.000  O
  C137     1.0000 0.89891  0.12830  0.09760  Biso   1.000  C
  C138     1.0000 0.83461  0.36020  0.91690  Biso   1.000  C
  C139     1.0000 0.84479  0.11980  0.89600  Biso   1.000  C
  C140     1.0000 0.78870  0.33020  0.89940  Biso   1.000  C
  C141     1.0000 0.93228  0.17620  0.17800  Biso   1.000  C
  N35      1.0000 0.91964  0.11705  0.16130  Biso   1.000  N
  H63      1.0000 0.88630  0.09690  0.07260  Biso   1.000  H
  N36      1.0000 0.80689  0.38149  0.88950  Biso   1.000  N
  H64      1.0000 0.85190  0.38520  0.91830  Biso   1.000  H
  C142     1.0000 0.85457  0.05872  0.85610  Biso   1.000  C
  H65      1.0000 0.76820  0.33010  0.88630  Biso   1.000  H
  H66      1.0000 0.94730  0.18420  0.21960  Biso   1.000  H
  C143     1.0000 0.92652  0.05750  0.20300  Biso   1.000  C
  C144     1.0000 0.79802  0.44296  0.85300  Biso   1.000  C
  C145     1.0000 0.87208  0.05870  0.78940  Biso   1.000  C
  C146     1.0000 0.94039  0.05870  0.28140  Biso   1.000  C
  C147     1.0000 0.77959  0.44200  0.78010  Biso   1.000  C
  H67      1.0000 0.87880  0.09770  0.76890  Biso   1.000  H
  H68      1.0000 0.94500  0.09790  0.30790  Biso   1.000  H
  H69      1.0000 0.77320  0.40280  0.75640  Biso   1.000  H
  O72      1.0000 0.89895  0.05333  0.63910  Biso   1.000  O
  Co19     1.0000 0.42129  0.67770  0.46285  Biso   1.000  Co
  N37      1.0000 0.41676  0.77983  0.44320  Biso   1.000  N
  O73      1.0000 0.43668  0.69736  0.57976  Biso   1.000  O
  O74      1.0000 0.37218  0.68089  0.46204  Biso   1.000  O
  O75      1.0000 0.39425  0.65820  0.34985  Biso   1.000  O
  N38      1.0000 0.39669  0.81229  0.48770  Biso   1.000  N
  C148     1.0000 0.42943  0.82270  0.39970  Biso   1.000  C
  C149     1.0000 0.42122  0.71820  0.63650  Biso   1.000  C
  Co20     1.0000 0.36333  0.75963  0.54488  Biso   1.000  Co
  C150     1.0000 0.37086  0.66900  0.38400  Biso   1.000  C
  C151     1.0000 0.39845  0.87330  0.46930  Biso   1.000  C
  N39      1.0000 0.41928  0.88266  0.41430  Biso   1.000  N
  H70      1.0000 0.44370  0.81330  0.36300  Biso   1.000  H
  O76      1.0000 0.39323  0.72052  0.63164  Biso   1.000  O
  C152     1.0000 0.43801  0.74340  0.71400  Biso   1.000  C
  N40      1.0000 0.33081  0.69921  0.58842  Biso   1.000  N
  O77      1.0000 0.35692  0.83494  0.62536  Biso   1.000  O
  O78      1.0000 0.33482  0.80204  0.45032  Biso   1.000  O
  C153     1.0000 0.34133  0.66812  0.33450  Biso   1.000  C
  H71      1.0000 0.38710  0.90600  0.49070  Biso   1.000  H
  C154     1.0000 0.42783  0.94235  0.37830  Biso   1.000  C
  C155     1.0000 0.46858  0.75590  0.71440  Biso   1.000  C
  C156     1.0000 0.42336  0.75700  0.78330  Biso   1.000  C
  N41      1.0000 0.30116  0.71761  0.58820  Biso   1.000  N
  C157     1.0000 0.33267  0.64020  0.61610  Biso   1.000  C
  C158     1.0000 0.33837  0.88000  0.63010  Biso   1.000  C
  C159     1.0000 0.31230  0.81680  0.40480  Biso   1.000  C
  C160     1.0000 0.34068  0.67221  0.24770  Biso   1.000  C
  C161     1.0000 0.31464  0.66845  0.37220  Biso   1.000  C
  C162     1.0000 0.44315  0.94120  0.30700  Biso   1.000  C
  H72      1.0000 0.47850  0.74640  0.66770  Biso   1.000  H
  C163     1.0000 0.48413  0.78230  0.78400  Biso   1.000  C
  C164     1.0000 0.43866  0.78150  0.85420  Biso   1.000  C
  H73      1.0000 0.40290  0.74970  0.78250  Biso   1.000  H
  Co21     1.0000 0.28614  0.80818  0.55243  Biso   1.000  Co
  C165     1.0000 0.28685  0.66866  0.61670  Biso   1.000  C
  N42      1.0000 0.30570  0.61820  0.63510  Biso   1.000  N
  H74      1.0000 0.35020  0.61610  0.62220  Biso   1.000  H
  O79      1.0000 0.31142  0.87889  0.60051  Biso   1.000  O
  C166     1.0000 0.34840  0.94170  0.67220  Biso   1.000  C
  O80      1.0000 0.28654  0.82282  0.43029  Biso   1.000  O
  C167     1.0000 0.31530  0.82840  0.31410  Biso   1.000  C
  H75      1.0000 0.35850  0.67170  0.22220  Biso   1.000  H
  C168     1.0000 0.31389  0.67695  0.19990  Biso   1.000  C
  C169     1.0000 0.28777  0.67458  0.32510  Biso   1.000  C
  H76      1.0000 0.31490  0.66450  0.42960  Biso   1.000  H
  H77      1.0000 0.44860  0.90210  0.28370  Biso   1.000  H
  C170     1.0000 0.46917  0.79400  0.85390  Biso   1.000  C
  C171     1.0000 0.51729  0.79450  0.78240  Biso   1.000  C
  C172     1.0000 0.42309  0.79080  0.93120  Biso   1.000  C
  O81      1.0000 0.26415  0.80491  0.68164  Biso   1.000  O
  O82      1.0000 0.24195  0.82303  0.55837  Biso   1.000  O
  H78      1.0000 0.26650  0.66820  0.62340  Biso   1.000  H
  C173     1.0000 0.29805  0.55714  0.67140  Biso   1.000  C
  C174     1.0000 0.36664  0.94140  0.74550  Biso   1.000  C
  C175     1.0000 0.34316  0.82902  0.28350  Biso   1.000  C
  C176     1.0000 0.28982  0.83477  0.25900  Biso   1.000  C
  C177     1.0000 0.28760  0.67854  0.24000  Biso   1.000  C
  C178     1.0000 0.31280  0.68472  0.10780  Biso   1.000  C
  C179     1.0000 0.25891  0.68240  0.36330  Biso   1.000  C
  H79      1.0000 0.47960  0.81040  0.90150  Biso   1.000  H
  O83      1.0000 0.52996  0.77326  0.72260  Biso   1.000  O
  O84      1.0000 0.52989  0.82532  0.84313  Biso   1.000  O
  O85      1.0000 0.39537  0.78194  0.92590  Biso   1.000  O
  O86      1.0000 0.43877  0.80644  0.99640  Biso   1.000  O
  C180     1.0000 0.28190  0.55880  0.73880  Biso   1.000  C
  H80      1.0000 0.37360  0.90210  0.76790  Biso   1.000  H
  H81      1.0000 0.36020  0.82440  0.31990  Biso   1.000  H
  C181     1.0000 0.34604  0.83644  0.19890  Biso   1.000  C
  C182     1.0000 0.29259  0.84468  0.17460  Biso   1.000  C
  H82      1.0000 0.27100  0.83240  0.27860  Biso   1.000  H
  H83      1.0000 0.26950  0.68240  0.20830  Biso   1.000  H
  O87      1.0000 0.33581  0.69844  0.07435  Biso   1.000  O
  O88      1.0000 0.28746  0.67662  0.06802  Biso   1.000  O
  Co22     1.0000 0.57319  0.82138  0.88843  Biso   1.000  Co
  Co23     1.0000 0.36691  0.74190  0.00044  Biso   1.000  Co
  H84      1.0000 0.27670  0.59810  0.76190  Biso   1.000  H
  C183     1.0000 0.32064  0.84578  0.14540  Biso   1.000  C
  C184     1.0000 0.37589  0.83280  0.16520  Biso   1.000  C
  C185     1.0000 0.26541  0.85010  0.11410  Biso   1.000  C
  Co24     1.0000 0.29183  0.68769  0.94829  Biso   1.000  Co
  O89      1.0000 0.60094  0.84031  0.78861  Biso   1.000  O
  O90      1.0000 0.62284  0.81984  0.91228  Biso   1.000  O
  N43      1.0000 0.57959  0.71970  0.87230  Biso   1.000  N
  O91      1.0000 0.39684  0.94750  0.90830  Biso   1.000  O
  H85      1.0000 0.32250  0.85290  0.08920  Biso   1.000  H
  O92      1.0000 0.26527  0.88949  0.05630  Biso   1.000  O
  O93      1.0000 0.24381  0.81323  0.12813  Biso   1.000  O
  N44      1.0000 0.39896  0.68908  0.07590  Biso   1.000  N
  N45      1.0000 0.33366  0.80053  0.94084  Biso   1.000  N
  O94      1.0000 0.36336  0.66311  0.91629  Biso   1.000  O
  N46      1.0000 0.30414  0.78103  0.93010  Biso   1.000  N
  O95      1.0000 0.31733  0.62123  0.90791  Biso   1.000  O
  C186     1.0000 0.39891  0.62830  0.09760  Biso   1.000  C
  C187     1.0000 0.33461  0.86020  0.91690  Biso   1.000  C
  C188     1.0000 0.34479  0.61980  0.89600  Biso   1.000  C
  C189     1.0000 0.28870  0.83020  0.89940  Biso   1.000  C
  C190     1.0000 0.43228  0.67620  0.17800  Biso   1.000  C
  N47      1.0000 0.41964  0.61705  0.16130  Biso   1.000  N
  H86      1.0000 0.38630  0.59690  0.07260  Biso   1.000  H
  N48      1.0000 0.30689  0.88149  0.88950  Biso   1.000  N
  H87      1.0000 0.35190  0.88520  0.91830  Biso   1.000  H
  C191     1.0000 0.35457  0.55872  0.85610  Biso   1.000  C
  H88      1.0000 0.26820  0.83010  0.88630  Biso   1.000  H
  H89      1.0000 0.44730  0.68420  0.21960  Biso   1.000  H
  C192     1.0000 0.42652  0.55750  0.20300  Biso   1.000  C
  C193     1.0000 0.29802  0.94296  0.85300  Biso   1.000  C
  C194     1.0000 0.37208  0.55870  0.78940  Biso   1.000  C
  C195     1.0000 0.44039  0.55870  0.28140  Biso   1.000  C
  C196     1.0000 0.27959  0.94200  0.78010  Biso   1.000  C
  H90      1.0000 0.37880  0.59770  0.76890  Biso   1.000  H
  H91      1.0000 0.44500  0.59790  0.30790  Biso   1.000  H
  H92      1.0000 0.27320  0.90280  0.75640  Biso   1.000  H
  O96      1.0000 0.39895  0.55333  0.63910  Biso   1.000  O
  Co25     1.0000 0.92129  0.82230  0.46285  Biso   1.000  Co
  N49      1.0000 0.91676  0.72017  0.44320  Biso   1.000  N
  O97      1.0000 0.93668  0.80264  0.57976  Biso   1.000  O
  O98      1.0000 0.87218  0.81911  0.46204  Biso   1.000  O
  O99      1.0000 0.89425  0.84180  0.34985  Biso   1.000  O
  N50      1.0000 0.89669  0.68771  0.48770  Biso   1.000  N
  C197     1.0000 0.92943  0.67730  0.39970  Biso   1.000  C
  C198     1.0000 0.92122  0.78180  0.63650  Biso   1.000  C
  Co26     1.0000 0.86333  0.74037  0.54488  Biso   1.000  Co
  C199     1.0000 0.87086  0.83100  0.38400  Biso   1.000  C
  C200     1.0000 0.89845  0.62670  0.46930  Biso   1.000  C
  N51      1.0000 0.91928  0.61734  0.41430  Biso   1.000  N
  H93      1.0000 0.94370  0.68670  0.36300  Biso   1.000  H
  O100     1.0000 0.89323  0.77948  0.63164  Biso   1.000  O
  C201     1.0000 0.93801  0.75660  0.71400  Biso   1.000  C
  N52      1.0000 0.83081  0.80079  0.58842  Biso   1.000  N
  O101     1.0000 0.85692  0.66506  0.62536  Biso   1.000  O
  O102     1.0000 0.83482  0.69796  0.45032  Biso   1.000  O
  C202     1.0000 0.84133  0.83188  0.33450  Biso   1.000  C
  H94      1.0000 0.88710  0.59400  0.49070  Biso   1.000  H
  C203     1.0000 0.92783  0.55765  0.37830  Biso   1.000  C
  C204     1.0000 0.96858  0.74410  0.71440  Biso   1.000  C
  C205     1.0000 0.92336  0.74300  0.78330  Biso   1.000  C
  N53      1.0000 0.80116  0.78239  0.58820  Biso   1.000  N
  C206     1.0000 0.83267  0.85980  0.61610  Biso   1.000  C
  C207     1.0000 0.83837  0.62000  0.63010  Biso   1.000  C
  C208     1.0000 0.81230  0.68320  0.40480  Biso   1.000  C
  C209     1.0000 0.84068  0.82779  0.24770  Biso   1.000  C
  C210     1.0000 0.81464  0.83155  0.37220  Biso   1.000  C
  C211     1.0000 0.94315  0.55880  0.30700  Biso   1.000  C
  H95      1.0000 0.97850  0.75360  0.66770  Biso   1.000  H
  C212     1.0000 0.98413  0.71770  0.78400  Biso   1.000  C
  C213     1.0000 0.93866  0.71850  0.85420  Biso   1.000  C
  H96      1.0000 0.90290  0.75030  0.78250  Biso   1.000  H
  Co27     1.0000 0.78614  0.69182  0.55243  Biso   1.000  Co
  C214     1.0000 0.78685  0.83134  0.61670  Biso   1.000  C
  N54      1.0000 0.80570  0.88180  0.63510  Biso   1.000  N
  H97      1.0000 0.85020  0.88390  0.62220  Biso   1.000  H
  O103     1.0000 0.81142  0.62111  0.60051  Biso   1.000  O
  C215     1.0000 0.84840  0.55830  0.67220  Biso   1.000  C
  O104     1.0000 0.78654  0.67718  0.43029  Biso   1.000  O
  C216     1.0000 0.81530  0.67160  0.31410  Biso   1.000  C
  H98      1.0000 0.85850  0.82830  0.22220  Biso   1.000  H
  C217     1.0000 0.81389  0.82305  0.19990  Biso   1.000  C
  C218     1.0000 0.78777  0.82542  0.32510  Biso   1.000  C
  H99      1.0000 0.81490  0.83550  0.42960  Biso   1.000  H
  H100     1.0000 0.94860  0.59790  0.28370  Biso   1.000  H
  C219     1.0000 0.96917  0.70600  0.85390  Biso   1.000  C
  C220     1.0000 0.01729  0.70550  0.78240  Biso   1.000  C
  C221     1.0000 0.92309  0.70920  0.93120  Biso   1.000  C
  O105     1.0000 0.76415  0.69509  0.68164  Biso   1.000  O
  O106     1.0000 0.74195  0.67697  0.55837  Biso   1.000  O
  H101     1.0000 0.76650  0.83180  0.62340  Biso   1.000  H
  C222     1.0000 0.79805  0.94286  0.67140  Biso   1.000  C
  C223     1.0000 0.86664  0.55860  0.74550  Biso   1.000  C
  C224     1.0000 0.84316  0.67098  0.28350  Biso   1.000  C
  C225     1.0000 0.78982  0.66523  0.25900  Biso   1.000  C
  C226     1.0000 0.78760  0.82146  0.24000  Biso   1.000  C
  C227     1.0000 0.81280  0.81528  0.10780  Biso   1.000  C
  C228     1.0000 0.75891  0.81760  0.36330  Biso   1.000  C
  H102     1.0000 0.97960  0.68960  0.90150  Biso   1.000  H
  O107     1.0000 0.02996  0.72674  0.72260  Biso   1.000  O
  O108     1.0000 0.02989  0.67468  0.84313  Biso   1.000  O
  O109     1.0000 0.89537  0.71806  0.92590  Biso   1.000  O
  O110     1.0000 0.93877  0.69356  0.99640  Biso   1.000  O
  C229     1.0000 0.78190  0.94120  0.73880  Biso   1.000  C
  H103     1.0000 0.87360  0.59790  0.76790  Biso   1.000  H
  H104     1.0000 0.86020  0.67560  0.31990  Biso   1.000  H
  C230     1.0000 0.84604  0.66356  0.19890  Biso   1.000  C
  C231     1.0000 0.79259  0.65532  0.17460  Biso   1.000  C
  H105     1.0000 0.77100  0.66760  0.27860  Biso   1.000  H
  H106     1.0000 0.76950  0.81760  0.20830  Biso   1.000  H
  O111     1.0000 0.83581  0.80156  0.07435  Biso   1.000  O
  O112     1.0000 0.78746  0.82338  0.06802  Biso   1.000  O
  Co28     1.0000 0.07319  0.67862  0.88843  Biso   1.000  Co
  Co29     1.0000 0.86691  0.75810  0.00044  Biso   1.000  Co
  H107     1.0000 0.77670  0.90190  0.76190  Biso   1.000  H
  C232     1.0000 0.82064  0.65422  0.14540  Biso   1.000  C
  C233     1.0000 0.87589  0.66720  0.16520  Biso   1.000  C
  C234     1.0000 0.76541  0.64990  0.11410  Biso   1.000  C
  Co30     1.0000 0.79183  0.81231  0.94829  Biso   1.000  Co
  O113     1.0000 0.10094  0.65969  0.78861  Biso   1.000  O
  O114     1.0000 0.12284  0.68016  0.91228  Biso   1.000  O
  N55      1.0000 0.07959  0.78030  0.87230  Biso   1.000  N
  O115     1.0000 0.89684  0.55250  0.90830  Biso   1.000  O
  H108     1.0000 0.82250  0.64710  0.08920  Biso   1.000  H
  O116     1.0000 0.76527  0.61051  0.05630  Biso   1.000  O
  O117     1.0000 0.74381  0.68677  0.12813  Biso   1.000  O
  N56      1.0000 0.89896  0.81092  0.07590  Biso   1.000  N
  N57      1.0000 0.83366  0.69947  0.94084  Biso   1.000  N
  O118     1.0000 0.86336  0.83689  0.91629  Biso   1.000  O
  N58      1.0000 0.80414  0.71897  0.93010  Biso   1.000  N
  O119     1.0000 0.81733  0.87877  0.90791  Biso   1.000  O
  C235     1.0000 0.89891  0.87170  0.09760  Biso   1.000  C
  C236     1.0000 0.83461  0.63980  0.91690  Biso   1.000  C
  C237     1.0000 0.84479  0.88020  0.89600  Biso   1.000  C
  C238     1.0000 0.78870  0.66980  0.89940  Biso   1.000  C
  C239     1.0000 0.93228  0.82380  0.17800  Biso   1.000  C
  N59      1.0000 0.91964  0.88295  0.16130  Biso   1.000  N
  H109     1.0000 0.88630  0.90310  0.07260  Biso   1.000  H
  N60      1.0000 0.80689  0.61851  0.88950  Biso   1.000  N
  H110     1.0000 0.85190  0.61480  0.91830  Biso   1.000  H
  C240     1.0000 0.85457  0.94128  0.85610  Biso   1.000  C
  H111     1.0000 0.76820  0.66990  0.88630  Biso   1.000  H
  H112     1.0000 0.94730  0.81580  0.21960  Biso   1.000  H
  C241     1.0000 0.92652  0.94250  0.20300  Biso   1.000  C
  C242     1.0000 0.79802  0.55704  0.85300  Biso   1.000  C
  C243     1.0000 0.87208  0.94130  0.78940  Biso   1.000  C
  C244     1.0000 0.94039  0.94130  0.28140  Biso   1.000  C
  C245     1.0000 0.77959  0.55800  0.78010  Biso   1.000  C
  H113     1.0000 0.87880  0.90230  0.76890  Biso   1.000  H
  H114     1.0000 0.94500  0.90210  0.30790  Biso   1.000  H
  H115     1.0000 0.77320  0.59720  0.75640  Biso   1.000  H
  O120     1.0000 0.89895  0.94667  0.63910  Biso   1.000  O
  Co31     1.0000 0.42129  0.32230  0.46285  Biso   1.000  Co
  N61      1.0000 0.41676  0.22017  0.44320  Biso   1.000  N
  O121     1.0000 0.43668  0.30264  0.57976  Biso   1.000  O
  O122     1.0000 0.37218  0.31911  0.46204  Biso   1.000  O
  O123     1.0000 0.39425  0.34180  0.34985  Biso   1.000  O
  N62      1.0000 0.39669  0.18771  0.48770  Biso   1.000  N
  C246     1.0000 0.42943  0.17730  0.39970  Biso   1.000  C
  C247     1.0000 0.42122  0.28180  0.63650  Biso   1.000  C
  Co32     1.0000 0.36333  0.24037  0.54488  Biso   1.000  Co
  C248     1.0000 0.37086  0.33100  0.38400  Biso   1.000  C
  C249     1.0000 0.39845  0.12670  0.46930  Biso   1.000  C
  N63      1.0000 0.41928  0.11734  0.41430  Biso   1.000  N
  H116     1.0000 0.44370  0.18670  0.36300  Biso   1.000  H
  O124     1.0000 0.39323  0.27948  0.63164  Biso   1.000  O
  C250     1.0000 0.43801  0.25660  0.71400  Biso   1.000  C
  N64      1.0000 0.33081  0.30079  0.58842  Biso   1.000  N
  O125     1.0000 0.35692  0.16506  0.62536  Biso   1.000  O
  O126     1.0000 0.33482  0.19796  0.45032  Biso   1.000  O
  C251     1.0000 0.34133  0.33188  0.33450  Biso   1.000  C
  H117     1.0000 0.38710  0.09400  0.49070  Biso   1.000  H
  C252     1.0000 0.42783  0.05765  0.37830  Biso   1.000  C
  C253     1.0000 0.46858  0.24410  0.71440  Biso   1.000  C
  C254     1.0000 0.42336  0.24300  0.78330  Biso   1.000  C
  N65      1.0000 0.30116  0.28239  0.58820  Biso   1.000  N
  C255     1.0000 0.33267  0.35980  0.61610  Biso   1.000  C
  C256     1.0000 0.33837  0.12000  0.63010  Biso   1.000  C
  C257     1.0000 0.31230  0.18320  0.40480  Biso   1.000  C
  C258     1.0000 0.34068  0.32779  0.24770  Biso   1.000  C
  C259     1.0000 0.31464  0.33155  0.37220  Biso   1.000  C
  C260     1.0000 0.44315  0.05880  0.30700  Biso   1.000  C
  H118     1.0000 0.47850  0.25360  0.66770  Biso   1.000  H
  C261     1.0000 0.48413  0.21770  0.78400  Biso   1.000  C
  C262     1.0000 0.43866  0.21850  0.85420  Biso   1.000  C
  H119     1.0000 0.40290  0.25030  0.78250  Biso   1.000  H
  Co33     1.0000 0.28614  0.19182  0.55243  Biso   1.000  Co
  C263     1.0000 0.28685  0.33134  0.61670  Biso   1.000  C
  N66      1.0000 0.30570  0.38180  0.63510  Biso   1.000  N
  H120     1.0000 0.35020  0.38390  0.62220  Biso   1.000  H
  O127     1.0000 0.31142  0.12111  0.60051  Biso   1.000  O
  C264     1.0000 0.34840  0.05830  0.67220  Biso   1.000  C
  O128     1.0000 0.28654  0.17718  0.43029  Biso   1.000  O
  C265     1.0000 0.31530  0.17160  0.31410  Biso   1.000  C
  H121     1.0000 0.35850  0.32830  0.22220  Biso   1.000  H
  C266     1.0000 0.31389  0.32305  0.19990  Biso   1.000  C
  C267     1.0000 0.28777  0.32542  0.32510  Biso   1.000  C
  H122     1.0000 0.31490  0.33550  0.42960  Biso   1.000  H
  H123     1.0000 0.44860  0.09790  0.28370  Biso   1.000  H
  C268     1.0000 0.46917  0.20600  0.85390  Biso   1.000  C
  C269     1.0000 0.51729  0.20550  0.78240  Biso   1.000  C
  C270     1.0000 0.42309  0.20920  0.93120  Biso   1.000  C
  O129     1.0000 0.26415  0.19509  0.68164  Biso   1.000  O
  O130     1.0000 0.24195  0.17697  0.55837  Biso   1.000  O
  H124     1.0000 0.26650  0.33180  0.62340  Biso   1.000  H
  C271     1.0000 0.29805  0.44286  0.67140  Biso   1.000  C
  C272     1.0000 0.36664  0.05860  0.74550  Biso   1.000  C
  C273     1.0000 0.34316  0.17098  0.28350  Biso   1.000  C
  C274     1.0000 0.28982  0.16523  0.25900  Biso   1.000  C
  C275     1.0000 0.28760  0.32146  0.24000  Biso   1.000  C
  C276     1.0000 0.31280  0.31528  0.10780  Biso   1.000  C
  C277     1.0000 0.25891  0.31760  0.36330  Biso   1.000  C
  H125     1.0000 0.47960  0.18960  0.90150  Biso   1.000  H
  O131     1.0000 0.52996  0.22674  0.72260  Biso   1.000  O
  O132     1.0000 0.52989  0.17468  0.84313  Biso   1.000  O
  O133     1.0000 0.39537  0.21806  0.92590  Biso   1.000  O
  O134     1.0000 0.43877  0.19356  0.99640  Biso   1.000  O
  C278     1.0000 0.28190  0.44120  0.73880  Biso   1.000  C
  H126     1.0000 0.37360  0.09790  0.76790  Biso   1.000  H
  H127     1.0000 0.36020  0.17560  0.31990  Biso   1.000  H
  C279     1.0000 0.34604  0.16356  0.19890  Biso   1.000  C
  C280     1.0000 0.29259  0.15532  0.17460  Biso   1.000  C
  H128     1.0000 0.27100  0.16760  0.27860  Biso   1.000  H
  H129     1.0000 0.26950  0.31760  0.20830  Biso   1.000  H
  O135     1.0000 0.33581  0.30156  0.07435  Biso   1.000  O
  O136     1.0000 0.28746  0.32338  0.06802  Biso   1.000  O
  Co34     1.0000 0.57319  0.17862  0.88843  Biso   1.000  Co
  Co35     1.0000 0.36691  0.25810  0.00044  Biso   1.000  Co
  H130     1.0000 0.27670  0.40190  0.76190  Biso   1.000  H
  C281     1.0000 0.32064  0.15422  0.14540  Biso   1.000  C
  C282     1.0000 0.37589  0.16720  0.16520  Biso   1.000  C
  C283     1.0000 0.26541  0.14990  0.11410  Biso   1.000  C
  Co36     1.0000 0.29183  0.31231  0.94829  Biso   1.000  Co
  O137     1.0000 0.60094  0.15969  0.78861  Biso   1.000  O
  O138     1.0000 0.62284  0.18016  0.91228  Biso   1.000  O
  N67      1.0000 0.57959  0.28030  0.87230  Biso   1.000  N
  O139     1.0000 0.39684  0.05250  0.90830  Biso   1.000  O
  H131     1.0000 0.32250  0.14710  0.08920  Biso   1.000  H
  O140     1.0000 0.26527  0.11051  0.05630  Biso   1.000  O
  O141     1.0000 0.24381  0.18677  0.12813  Biso   1.000  O
  N68      1.0000 0.39896  0.31092  0.07590  Biso   1.000  N
  N69      1.0000 0.33366  0.19947  0.94084  Biso   1.000  N
  O142     1.0000 0.36336  0.33689  0.91629  Biso   1.000  O
  N70      1.0000 0.30414  0.21897  0.93010  Biso   1.000  N
  O143     1.0000 0.31733  0.37877  0.90791  Biso   1.000  O
  C284     1.0000 0.39891  0.37170  0.09760  Biso   1.000  C
  C285     1.0000 0.33461  0.13980  0.91690  Biso   1.000  C
  C286     1.0000 0.34479  0.38020  0.89600  Biso   1.000  C
  C287     1.0000 0.28870  0.16980  0.89940  Biso   1.000  C
  C288     1.0000 0.43228  0.32380  0.17800  Biso   1.000  C
  N71      1.0000 0.41964  0.38295  0.16130  Biso   1.000  N
  H132     1.0000 0.38630  0.40310  0.07260  Biso   1.000  H
  N72      1.0000 0.30689  0.11851  0.88950  Biso   1.000  N
  H133     1.0000 0.35190  0.11480  0.91830  Biso   1.000  H
  C289     1.0000 0.35457  0.44128  0.85610  Biso   1.000  C
  H134     1.0000 0.26820  0.16990  0.88630  Biso   1.000  H
  H135     1.0000 0.44730  0.31580  0.21960  Biso   1.000  H
  C290     1.0000 0.42652  0.44250  0.20300  Biso   1.000  C
  C291     1.0000 0.29802  0.05704  0.85300  Biso   1.000  C
  C292     1.0000 0.37208  0.44130  0.78940  Biso   1.000  C
  C293     1.0000 0.44039  0.44130  0.28140  Biso   1.000  C
  C294     1.0000 0.27959  0.05800  0.78010  Biso   1.000  C
  H136     1.0000 0.37880  0.40230  0.76890  Biso   1.000  H
  H137     1.0000 0.44500  0.40210  0.30790  Biso   1.000  H
  H138     1.0000 0.27320  0.09720  0.75640  Biso   1.000  H
  O144     1.0000 0.39895  0.44667  0.63910  Biso   1.000  O
  Co37     1.0000 0.07871  0.82230  0.53715  Biso   1.000  Co
  N73      1.0000 0.08324  0.72017  0.55680  Biso   1.000  N
  O145     1.0000 0.06332  0.80264  0.42024  Biso   1.000  O
  O146     1.0000 0.12782  0.81911  0.53796  Biso   1.000  O
  O147     1.0000 0.10575  0.84180  0.65015  Biso   1.000  O
  N74      1.0000 0.10331  0.68771  0.51230  Biso   1.000  N
  C295     1.0000 0.07057  0.67730  0.60030  Biso   1.000  C
  C296     1.0000 0.07878  0.78180  0.36350  Biso   1.000  C
  Co38     1.0000 0.13667  0.74037  0.45512  Biso   1.000  Co
  C297     1.0000 0.12914  0.83100  0.61600  Biso   1.000  C
  C298     1.0000 0.10155  0.62670  0.53070  Biso   1.000  C
  N75      1.0000 0.08072  0.61734  0.58570  Biso   1.000  N
  H139     1.0000 0.05630  0.68670  0.63700  Biso   1.000  H
  O148     1.0000 0.10677  0.77948  0.36836  Biso   1.000  O
  C299     1.0000 0.06199  0.75660  0.28600  Biso   1.000  C
  N76      1.0000 0.16919  0.80079  0.41158  Biso   1.000  N
  O149     1.0000 0.14308  0.66506  0.37464  Biso   1.000  O
  O150     1.0000 0.16518  0.69796  0.54968  Biso   1.000  O
  C300     1.0000 0.15867  0.83188  0.66550  Biso   1.000  C
  H140     1.0000 0.11290  0.59400  0.50930  Biso   1.000  H
  C301     1.0000 0.07217  0.55765  0.62170  Biso   1.000  C
  C302     1.0000 0.03142  0.74410  0.28560  Biso   1.000  C
  C303     1.0000 0.07664  0.74300  0.21670  Biso   1.000  C
  N77      1.0000 0.19884  0.78239  0.41180  Biso   1.000  N
  C304     1.0000 0.16733  0.85980  0.38390  Biso   1.000  C
  C305     1.0000 0.16163  0.62000  0.36990  Biso   1.000  C
  C306     1.0000 0.18770  0.68320  0.59520  Biso   1.000  C
  C307     1.0000 0.15932  0.82779  0.75230  Biso   1.000  C
  C308     1.0000 0.18536  0.83155  0.62780  Biso   1.000  C
  C309     1.0000 0.05685  0.55880  0.69300  Biso   1.000  C
  H141     1.0000 0.02150  0.75360  0.33230  Biso   1.000  H
  C310     1.0000 0.01587  0.71770  0.21600  Biso   1.000  C
  C311     1.0000 0.06134  0.71850  0.14580  Biso   1.000  C
  H142     1.0000 0.09710  0.75030  0.21750  Biso   1.000  H
  Co39     1.0000 0.21386  0.69182  0.44757  Biso   1.000  Co
  C312     1.0000 0.21315  0.83134  0.38330  Biso   1.000  C
  N78      1.0000 0.19430  0.88180  0.36490  Biso   1.000  N
  H143     1.0000 0.14980  0.88390  0.37780  Biso   1.000  H
  O151     1.0000 0.18858  0.62111  0.39949  Biso   1.000  O
  C313     1.0000 0.15160  0.55830  0.32780  Biso   1.000  C
  O152     1.0000 0.21346  0.67718  0.56971  Biso   1.000  O
  C314     1.0000 0.18470  0.67160  0.68590  Biso   1.000  C
  H144     1.0000 0.14150  0.82830  0.77780  Biso   1.000  H
  C315     1.0000 0.18611  0.82305  0.80010  Biso   1.000  C
  C316     1.0000 0.21223  0.82542  0.67490  Biso   1.000  C
  H145     1.0000 0.18510  0.83550  0.57040  Biso   1.000  H
  H146     1.0000 0.05140  0.59790  0.71630  Biso   1.000  H
  C317     1.0000 0.03083  0.70600  0.14610  Biso   1.000  C
  C318     1.0000 0.98271  0.70550  0.21760  Biso   1.000  C
  C319     1.0000 0.07691  0.70920  0.06880  Biso   1.000  C
  O153     1.0000 0.23585  0.69509  0.31836  Biso   1.000  O
  O154     1.0000 0.25805  0.67697  0.44163  Biso   1.000  O
  H147     1.0000 0.23350  0.83180  0.37660  Biso   1.000  H
  C320     1.0000 0.20195  0.94286  0.32860  Biso   1.000  C
  C321     1.0000 0.13336  0.55860  0.25450  Biso   1.000  C
  C322     1.0000 0.15684  0.67098  0.71650  Biso   1.000  C
  C323     1.0000 0.21018  0.66523  0.74100  Biso   1.000  C
  C324     1.0000 0.21240  0.82146  0.76000  Biso   1.000  C
  C325     1.0000 0.18720  0.81528  0.89220  Biso   1.000  C
  C326     1.0000 0.24109  0.81760  0.63670  Biso   1.000  C
  H148     1.0000 0.02040  0.68960  0.09850  Biso   1.000  H
  O155     1.0000 0.97004  0.72674  0.27740  Biso   1.000  O
  O156     1.0000 0.97011  0.67468  0.15687  Biso   1.000  O
  O157     1.0000 0.10463  0.71806  0.07410  Biso   1.000  O
  O158     1.0000 0.06123  0.69356  0.00360  Biso   1.000  O
  C327     1.0000 0.21810  0.94120  0.26120  Biso   1.000  C
  H149     1.0000 0.12640  0.59790  0.23210  Biso   1.000  H
  H150     1.0000 0.13980  0.67560  0.68010  Biso   1.000  H
  C328     1.0000 0.15396  0.66356  0.80110  Biso   1.000  C
  C329     1.0000 0.20741  0.65532  0.82540  Biso   1.000  C
  H151     1.0000 0.22900  0.66760  0.72140  Biso   1.000  H
  H152     1.0000 0.23050  0.81760  0.79170  Biso   1.000  H
  O159     1.0000 0.16419  0.80156  0.92565  Biso   1.000  O
  O160     1.0000 0.21254  0.82338  0.93198  Biso   1.000  O
  Co40     1.0000 0.92681  0.67862  0.11157  Biso   1.000  Co
  Co41     1.0000 0.13309  0.75810  0.99956  Biso   1.000  Co
  H153     1.0000 0.22330  0.90190  0.23810  Biso   1.000  H
  C330     1.0000 0.17936  0.65422  0.85460  Biso   1.000  C
  C331     1.0000 0.12411  0.66720  0.83480  Biso   1.000  C
  C332     1.0000 0.23459  0.64990  0.88590  Biso   1.000  C
  Co42     1.0000 0.20817  0.81231  0.05171  Biso   1.000  Co
  O161     1.0000 0.89906  0.65969  0.21139  Biso   1.000  O
  O162     1.0000 0.87716  0.68016  0.08772  Biso   1.000  O
  N79      1.0000 0.92041  0.78030  0.12770  Biso   1.000  N
  O163     1.0000 0.10316  0.55250  0.09170  Biso   1.000  O
  H154     1.0000 0.17750  0.64710  0.91080  Biso   1.000  H
  O164     1.0000 0.23473  0.61051  0.94370  Biso   1.000  O
  O165     1.0000 0.25619  0.68677  0.87187  Biso   1.000  O
  N80      1.0000 0.10104  0.81092  0.92410  Biso   1.000  N
  N81      1.0000 0.16634  0.69947  0.05916  Biso   1.000  N
  O166     1.0000 0.13664  0.83689  0.08371  Biso   1.000  O
  N82      1.0000 0.19586  0.71897  0.06990  Biso   1.000  N
  O167     1.0000 0.18267  0.87877  0.09209  Biso   1.000  O
  C333     1.0000 0.10109  0.87170  0.90240  Biso   1.000  C
  C334     1.0000 0.16539  0.63980  0.08310  Biso   1.000  C
  C335     1.0000 0.15521  0.88020  0.10400  Biso   1.000  C
  C336     1.0000 0.21130  0.66980  0.10060  Biso   1.000  C
  C337     1.0000 0.06772  0.82380  0.82200  Biso   1.000  C
  N83      1.0000 0.08036  0.88295  0.83870  Biso   1.000  N
  H155     1.0000 0.11370  0.90310  0.92740  Biso   1.000  H
  N84      1.0000 0.19311  0.61851  0.11050  Biso   1.000  N
  H156     1.0000 0.14810  0.61480  0.08170  Biso   1.000  H
  C338     1.0000 0.14543  0.94128  0.14390  Biso   1.000  C
  H157     1.0000 0.23180  0.66990  0.11370  Biso   1.000  H
  H158     1.0000 0.05270  0.81580  0.78040  Biso   1.000  H
  C339     1.0000 0.07348  0.94250  0.79700  Biso   1.000  C
  C340     1.0000 0.20198  0.55704  0.14700  Biso   1.000  C
  C341     1.0000 0.12792  0.94130  0.21060  Biso   1.000  C
  C342     1.0000 0.05961  0.94130  0.71860  Biso   1.000  C
  C343     1.0000 0.22041  0.55800  0.21990  Biso   1.000  C
  H159     1.0000 0.12120  0.90230  0.23110  Biso   1.000  H
  H160     1.0000 0.05500  0.90210  0.69210  Biso   1.000  H
  H161     1.0000 0.22680  0.59720  0.24360  Biso   1.000  H
  O168     1.0000 0.10105  0.94667  0.36090  Biso   1.000  O
  Co43     1.0000 0.57871  0.32230  0.53715  Biso   1.000  Co
  N85      1.0000 0.58324  0.22017  0.55680  Biso   1.000  N
  O169     1.0000 0.56332  0.30264  0.42024  Biso   1.000  O
  O170     1.0000 0.62782  0.31911  0.53796  Biso   1.000  O
  O171     1.0000 0.60575  0.34180  0.65015  Biso   1.000  O
  N86      1.0000 0.60331  0.18771  0.51230  Biso   1.000  N
  C344     1.0000 0.57057  0.17730  0.60030  Biso   1.000  C
  C345     1.0000 0.57878  0.28180  0.36350  Biso   1.000  C
  Co44     1.0000 0.63667  0.24037  0.45512  Biso   1.000  Co
  C346     1.0000 0.62914  0.33100  0.61600  Biso   1.000  C
  C347     1.0000 0.60155  0.12670  0.53070  Biso   1.000  C
  N87      1.0000 0.58072  0.11734  0.58570  Biso   1.000  N
  H162     1.0000 0.55630  0.18670  0.63700  Biso   1.000  H
  O172     1.0000 0.60677  0.27948  0.36836  Biso   1.000  O
  C348     1.0000 0.56199  0.25660  0.28600  Biso   1.000  C
  N88      1.0000 0.66919  0.30079  0.41158  Biso   1.000  N
  O173     1.0000 0.64308  0.16506  0.37464  Biso   1.000  O
  O174     1.0000 0.66518  0.19796  0.54968  Biso   1.000  O
  C349     1.0000 0.65867  0.33188  0.66550  Biso   1.000  C
  H163     1.0000 0.61290  0.09400  0.50930  Biso   1.000  H
  C350     1.0000 0.57217  0.05765  0.62170  Biso   1.000  C
  C351     1.0000 0.53142  0.24410  0.28560  Biso   1.000  C
  C352     1.0000 0.57664  0.24300  0.21670  Biso   1.000  C
  N89      1.0000 0.69884  0.28239  0.41180  Biso   1.000  N
  C353     1.0000 0.66733  0.35980  0.38390  Biso   1.000  C
  C354     1.0000 0.66163  0.12000  0.36990  Biso   1.000  C
  C355     1.0000 0.68770  0.18320  0.59520  Biso   1.000  C
  C356     1.0000 0.65932  0.32779  0.75230  Biso   1.000  C
  C357     1.0000 0.68536  0.33155  0.62780  Biso   1.000  C
  C358     1.0000 0.55685  0.05880  0.69300  Biso   1.000  C
  H164     1.0000 0.52150  0.25360  0.33230  Biso   1.000  H
  C359     1.0000 0.51587  0.21770  0.21600  Biso   1.000  C
  C360     1.0000 0.56134  0.21850  0.14580  Biso   1.000  C
  H165     1.0000 0.59710  0.25030  0.21750  Biso   1.000  H
  Co45     1.0000 0.71386  0.19182  0.44757  Biso   1.000  Co
  C361     1.0000 0.71315  0.33134  0.38330  Biso   1.000  C
  N90      1.0000 0.69430  0.38180  0.36490  Biso   1.000  N
  H166     1.0000 0.64980  0.38390  0.37780  Biso   1.000  H
  O175     1.0000 0.68858  0.12111  0.39949  Biso   1.000  O
  C362     1.0000 0.65160  0.05830  0.32780  Biso   1.000  C
  O176     1.0000 0.71346  0.17718  0.56971  Biso   1.000  O
  C363     1.0000 0.68470  0.17160  0.68590  Biso   1.000  C
  H167     1.0000 0.64150  0.32830  0.77780  Biso   1.000  H
  C364     1.0000 0.68611  0.32305  0.80010  Biso   1.000  C
  C365     1.0000 0.71223  0.32542  0.67490  Biso   1.000  C
  H168     1.0000 0.68510  0.33550  0.57040  Biso   1.000  H
  H169     1.0000 0.55140  0.09790  0.71630  Biso   1.000  H
  C366     1.0000 0.53083  0.20600  0.14610  Biso   1.000  C
  C367     1.0000 0.48271  0.20550  0.21760  Biso   1.000  C
  C368     1.0000 0.57691  0.20920  0.06880  Biso   1.000  C
  O177     1.0000 0.73585  0.19509  0.31836  Biso   1.000  O
  O178     1.0000 0.75805  0.17697  0.44163  Biso   1.000  O
  H170     1.0000 0.73350  0.33180  0.37660  Biso   1.000  H
  C369     1.0000 0.70195  0.44286  0.32860  Biso   1.000  C
  C370     1.0000 0.63336  0.05860  0.25450  Biso   1.000  C
  C371     1.0000 0.65684  0.17098  0.71650  Biso   1.000  C
  C372     1.0000 0.71018  0.16523  0.74100  Biso   1.000  C
  C373     1.0000 0.71240  0.32146  0.76000  Biso   1.000  C
  C374     1.0000 0.68720  0.31528  0.89220  Biso   1.000  C
  C375     1.0000 0.74109  0.31760  0.63670  Biso   1.000  C
  H171     1.0000 0.52040  0.18960  0.09850  Biso   1.000  H
  O179     1.0000 0.47004  0.22674  0.27740  Biso   1.000  O
  O180     1.0000 0.47011  0.17468  0.15687  Biso   1.000  O
  O181     1.0000 0.60463  0.21806  0.07410  Biso   1.000  O
  O182     1.0000 0.56123  0.19356  0.00360  Biso   1.000  O
  C376     1.0000 0.71810  0.44120  0.26120  Biso   1.000  C
  H172     1.0000 0.62640  0.09790  0.23210  Biso   1.000  H
  H173     1.0000 0.63980  0.17560  0.68010  Biso   1.000  H
  C377     1.0000 0.65396  0.16356  0.80110  Biso   1.000  C
  C378     1.0000 0.70741  0.15532  0.82540  Biso   1.000  C
  H174     1.0000 0.72900  0.16760  0.72140  Biso   1.000  H
  H175     1.0000 0.73050  0.31760  0.79170  Biso   1.000  H
  O183     1.0000 0.66419  0.30156  0.92565  Biso   1.000  O
  O184     1.0000 0.71254  0.32338  0.93198  Biso   1.000  O
  Co46     1.0000 0.42681  0.17862  0.11157  Biso   1.000  Co
  Co47     1.0000 0.63309  0.25810  0.99956  Biso   1.000  Co
  H176     1.0000 0.72330  0.40190  0.23810  Biso   1.000  H
  C379     1.0000 0.67936  0.15422  0.85460  Biso   1.000  C
  C380     1.0000 0.62411  0.16720  0.83480  Biso   1.000  C
  C381     1.0000 0.73459  0.14990  0.88590  Biso   1.000  C
  Co48     1.0000 0.70817  0.31231  0.05171  Biso   1.000  Co
  O185     1.0000 0.39906  0.15969  0.21139  Biso   1.000  O
  O186     1.0000 0.37716  0.18016  0.08772  Biso   1.000  O
  N91      1.0000 0.42041  0.28030  0.12770  Biso   1.000  N
  O187     1.0000 0.60316  0.05250  0.09170  Biso   1.000  O
  H177     1.0000 0.67750  0.14710  0.91080  Biso   1.000  H
  O188     1.0000 0.73473  0.11051  0.94370  Biso   1.000  O
  O189     1.0000 0.75619  0.18677  0.87187  Biso   1.000  O
  N92      1.0000 0.60104  0.31092  0.92410  Biso   1.000  N
  N93      1.0000 0.66634  0.19947  0.05916  Biso   1.000  N
  O190     1.0000 0.63664  0.33689  0.08371  Biso   1.000  O
  N94      1.0000 0.69586  0.21897  0.06990  Biso   1.000  N
  O191     1.0000 0.68267  0.37877  0.09209  Biso   1.000  O
  C382     1.0000 0.60109  0.37170  0.90240  Biso   1.000  C
  C383     1.0000 0.66539  0.13980  0.08310  Biso   1.000  C
  C384     1.0000 0.65521  0.38020  0.10400  Biso   1.000  C
  C385     1.0000 0.71130  0.16980  0.10060  Biso   1.000  C
  C386     1.0000 0.56772  0.32380  0.82200  Biso   1.000  C
  N95      1.0000 0.58036  0.38295  0.83870  Biso   1.000  N
  H178     1.0000 0.61370  0.40310  0.92740  Biso   1.000  H
  N96      1.0000 0.69311  0.11851  0.11050  Biso   1.000  N
  H179     1.0000 0.64810  0.11480  0.08170  Biso   1.000  H
  C387     1.0000 0.64543  0.44128  0.14390  Biso   1.000  C
  H180     1.0000 0.73180  0.16990  0.11370  Biso   1.000  H
  H181     1.0000 0.55270  0.31580  0.78040  Biso   1.000  H
  C388     1.0000 0.57348  0.44250  0.79700  Biso   1.000  C
  C389     1.0000 0.70198  0.05704  0.14700  Biso   1.000  C
  C390     1.0000 0.62792  0.44130  0.21060  Biso   1.000  C
  C391     1.0000 0.55961  0.44130  0.71860  Biso   1.000  C
  C392     1.0000 0.72041  0.05800  0.21990  Biso   1.000  C
  H182     1.0000 0.62120  0.40230  0.23110  Biso   1.000  H
  H183     1.0000 0.55500  0.40210  0.69210  Biso   1.000  H
  H184     1.0000 0.72680  0.09720  0.24360  Biso   1.000  H
  O192     1.0000 0.60105  0.44667  0.36090  Biso   1.000  O
  C393     1.0000 0.07927  0.50000  0.58540  Biso   1.000  C
  C394     1.0000 0.04990  0.50000  0.72830  Biso   1.000  C
  H185     1.0000 0.08880  0.50000  0.53660  Biso   1.000  H
  C395     1.0000 0.16217  0.50000  0.36000  Biso   1.000  C
  H186     1.0000 0.04030  0.50000  0.77700  Biso   1.000  H
  C396     1.0000 0.12503  0.50000  0.21290  Biso   1.000  C
  H187     1.0000 0.17670  0.50000  0.40440  Biso   1.000  H
  C397     1.0000 0.10930  0.50000  0.12620  Biso   1.000  C
  C398     1.0000 0.19281  0.50000  0.10950  Biso   1.000  C
  C399     1.0000 0.22915  0.50000  0.25720  Biso   1.000  C
  H188     1.0000 0.18070  0.50000  0.06000  Biso   1.000  H
  H189     1.0000 0.24090  0.50000  0.30730  Biso   1.000  H
  C400     1.0000 0.57927  0.00000  0.58540  Biso   1.000  C
  C401     1.0000 0.54990  0.00000  0.72830  Biso   1.000  C
  H190     1.0000 0.58880  0.00000  0.53660  Biso   1.000  H
  C402     1.0000 0.66217  0.00000  0.36000  Biso   1.000  C
  H191     1.0000 0.54030  0.00000  0.77700  Biso   1.000  H
  C403     1.0000 0.62503  0.00000  0.21290  Biso   1.000  C
  H192     1.0000 0.67670  0.00000  0.40440  Biso   1.000  H
  C404     1.0000 0.60930  0.00000  0.12620  Biso   1.000  C
  C405     1.0000 0.69281  0.00000  0.10950  Biso   1.000  C
  C406     1.0000 0.72915  0.00000  0.25720  Biso   1.000  C
  H193     1.0000 0.68070  0.00000  0.06000  Biso   1.000  H
  H194     1.0000 0.74090  0.00000  0.30730  Biso   1.000  H
  C407     1.0000 0.92073  0.50000  0.41460  Biso   1.000  C
  C408     1.0000 0.95010  0.50000  0.27170  Biso   1.000  C
  H195     1.0000 0.91120  0.50000  0.46340  Biso   1.000  H
  C409     1.0000 0.83783  0.50000  0.64000  Biso   1.000  C
  H196     1.0000 0.95970  0.50000  0.22300  Biso   1.000  H
  C410     1.0000 0.87497  0.50000  0.78710  Biso   1.000  C
  H197     1.0000 0.82330  0.50000  0.59560  Biso   1.000  H
  C411     1.0000 0.89070  0.50000  0.87380  Biso   1.000  C
  C412     1.0000 0.80719  0.50000  0.89050  Biso   1.000  C
  C413     1.0000 0.77085  0.50000  0.74280  Biso   1.000  C
  H198     1.0000 0.81930  0.50000  0.94000  Biso   1.000  H
  H199     1.0000 0.75910  0.50000  0.69270  Biso   1.000  H
  C414     1.0000 0.42073  0.00000  0.41460  Biso   1.000  C
  C415     1.0000 0.45010  0.00000  0.27170  Biso   1.000  C
  H200     1.0000 0.41120  0.00000  0.46340  Biso   1.000  H
  C416     1.0000 0.33783  0.00000  0.64000  Biso   1.000  C
  H201     1.0000 0.45970  0.00000  0.22300  Biso   1.000  H
  C417     1.0000 0.37497  0.00000  0.78710  Biso   1.000  C
  H202     1.0000 0.32330  0.00000  0.59560  Biso   1.000  H
  C418     1.0000 0.39070  0.00000  0.87380  Biso   1.000  C
  C419     1.0000 0.30719  0.00000  0.89050  Biso   1.000  C
  C420     1.0000 0.27085  0.00000  0.74280  Biso   1.000  C
  H203     1.0000 0.31930  0.00000  0.94000  Biso   1.000  H
  H204     1.0000 0.25910  0.00000  0.69270  Biso   1.000  H
  C421     1.0000 0.19312  0.00000  0.36350  Biso   1.000  C
  C422     1.0000 0.22664  0.00000  0.22750  Biso   1.000  C
  H205     1.0000 0.18170  0.00000  0.40880  Biso   1.000  H
  H206     1.0000 0.23810  0.00000  0.18230  Biso   1.000  H
  C423     1.0000 0.15529  0.00000  0.11470  Biso   1.000  C
  C424     1.0000 0.07994  0.00000  0.83770  Biso   1.000  C
  C425     1.0000 0.12040  0.00000  0.24700  Biso   1.000  C
  H207     1.0000 0.16890  0.00000  0.07450  Biso   1.000  H
  C426     1.0000 0.05245  0.00000  0.67900  Biso   1.000  C
  H208     1.0000 0.08850  0.00000  0.89210  Biso   1.000  H
  C427     1.0000 0.10588  0.00000  0.32920  Biso   1.000  C
  H209     1.0000 0.04280  0.00000  0.62590  Biso   1.000  H
  C428     1.0000 0.69312  0.50000  0.36350  Biso   1.000  C
  C429     1.0000 0.72664  0.50000  0.22750  Biso   1.000  C
  H210     1.0000 0.68170  0.50000  0.40880  Biso   1.000  H
  H211     1.0000 0.73810  0.50000  0.18230  Biso   1.000  H
  C430     1.0000 0.65529  0.50000  0.11470  Biso   1.000  C
  C431     1.0000 0.57994  0.50000  0.83770  Biso   1.000  C
  C432     1.0000 0.62040  0.50000  0.24700  Biso   1.000  C
  H212     1.0000 0.66890  0.50000  0.07450  Biso   1.000  H
  C433     1.0000 0.55245  0.50000  0.67900  Biso   1.000  C
  H213     1.0000 0.58850  0.50000  0.89210  Biso   1.000  H
  C434     1.0000 0.60588  0.50000  0.32920  Biso   1.000  C
  H214     1.0000 0.54280  0.50000  0.62590  Biso   1.000  H
  C435     1.0000 0.80688  0.00000  0.63650  Biso   1.000  C
  C436     1.0000 0.77336  0.00000  0.77250  Biso   1.000  C
  H215     1.0000 0.81830  0.00000  0.59120  Biso   1.000  H
  H216     1.0000 0.76190  0.00000  0.81770  Biso   1.000  H
  C437     1.0000 0.84471  0.00000  0.88530  Biso   1.000  C
  C438     1.0000 0.92006  0.00000  0.16230  Biso   1.000  C
  C439     1.0000 0.87960  0.00000  0.75300  Biso   1.000  C
  H217     1.0000 0.83110  0.00000  0.92550  Biso   1.000  H
  C440     1.0000 0.94755  0.00000  0.32100  Biso   1.000  C
  H218     1.0000 0.91150  0.00000  0.10790  Biso   1.000  H
  C441     1.0000 0.89412  0.00000  0.67080  Biso   1.000  C
  H219     1.0000 0.95720  0.00000  0.37410  Biso   1.000  H
  C442     1.0000 0.30688  0.50000  0.63650  Biso   1.000  C
  C443     1.0000 0.27336  0.50000  0.77250  Biso   1.000  C
  H220     1.0000 0.31830  0.50000  0.59120  Biso   1.000  H
  H221     1.0000 0.26190  0.50000  0.81770  Biso   1.000  H
  C444     1.0000 0.34471  0.50000  0.88530  Biso   1.000  C
  C445     1.0000 0.42006  0.50000  0.16230  Biso   1.000  C
  C446     1.0000 0.37960  0.50000  0.75300  Biso   1.000  C
  H222     1.0000 0.33110  0.50000  0.92550  Biso   1.000  H
  C447     1.0000 0.44755  0.50000  0.32100  Biso   1.000  C
  H223     1.0000 0.41150  0.50000  0.10790  Biso   1.000  H
  C448     1.0000 0.39412  0.50000  0.67080  Biso   1.000  C
  H224     1.0000 0.45720  0.50000  0.37410  Biso   1.000  H
