data_MUZGAQ_clean
_audit_creation_date              2015-10-16
_audit_creation_method            'Materials Studio'
_symmetry_space_group_name_H-M    'P1'
_symmetry_Int_Tables_number       1
_symmetry_cell_setting            triclinic
loop_
_symmetry_equiv_pos_as_xyz
  x,y,z
_cell_length_a                    21.1070
_cell_length_b                    21.1850
_cell_length_c                    36.3230
_cell_angle_alpha                 89.0010
_cell_angle_beta                  82.4860
_cell_angle_gamma                 68.3590
loop_
_atom_site_label
_atom_site_type_symbol
_atom_site_fract_x
_atom_site_fract_y
_atom_site_fract_z
_atom_site_U_iso_or_equiv
_atom_site_adp_type
_atom_site_occupancy
Dy1    Dy    0.67771   0.31490   0.09988   0.01267  Uiso   1.00
Dy2    Dy    0.52862   0.56318   0.72285   0.01267  Uiso   1.00
Dy3    Dy    0.52255   0.86010   0.79284   0.01267  Uiso   1.00
Dy4    Dy    0.67751   0.25534   0.37892   0.01267  Uiso   1.00
Dy5    Dy    0.86036   0.20775   0.14464   0.01267  Uiso   1.00
Dy6    Dy    0.45877   0.76196   0.86257   0.01267  Uiso   1.00
Dy7    Dy    0.35590   0.95003   0.85166   0.01267  Uiso   1.00
Dy8    Dy    0.21559   0.06460   0.79400   0.01267  Uiso   1.00
Dy9    Dy    0.72807   0.40448   0.32109   0.01267  Uiso   1.00
Dy10   Dy    0.88785   0.98921   0.26805   0.01267  Uiso   1.00
Dy11   Dy    0.07711   0.85175   0.76456   0.01267  Uiso   1.00
Dy12   Dy    0.54600   0.40505   0.77605   0.01267  Uiso   1.00
Dy13   Dy    0.99493   0.74675   0.81987   0.01267  Uiso   1.00
Dy14   Dy    0.45400   0.59495   0.22395   0.01267  Uiso   1.00
Dy15   Dy    0.32249   0.74466   0.62108   0.01267  Uiso   1.00
Dy16   Dy    0.64410   0.04997   0.14834   0.01267  Uiso   1.00
Dy17   Dy    0.50010   0.69038   0.64425   0.01267  Uiso   1.00
Dy18   Dy    0.27459   0.03940   0.69137   0.01267  Uiso   1.00
Dy19   Dy    0.47745   0.13990   0.20716   0.01267  Uiso   1.00
Dy20   Dy    0.10994   0.18719   0.72946   0.01267  Uiso   1.00
Dy21   Dy    0.39484   0.87682   0.63078   0.01267  Uiso   1.00
Dy22   Dy    0.82019   0.33464   0.22251   0.01267  Uiso   1.00
Dy23   Dy    0.13964   0.79225   0.85536   0.01267  Uiso   1.00
Dy24   Dy    0.00507   0.25325   0.18013   0.01267  Uiso   1.00
Dy25   Dy    0.32229   0.68510   0.90012   0.01267  Uiso   1.00
Dy26   Dy    0.89006   0.81281   0.27054   0.01267  Uiso   1.00
Dy27   Dy    0.46866   0.96429   0.69841   0.01267  Uiso   1.00
Dy28   Dy    0.83337   0.02955   0.11989   0.01267  Uiso   1.00
Dy29   Dy    0.61830   0.69391   0.71609   0.01267  Uiso   1.00
Dy30   Dy    0.27193   0.59552   0.67891   0.01267  Uiso   1.00
Dy31   Dy    0.47138   0.43682   0.27715   0.01267  Uiso   1.00
Dy32   Dy    0.54123   0.23804   0.13743   0.01267  Uiso   1.00
Dy33   Dy    0.52404   0.41788   0.17328   0.01267  Uiso   1.00
Dy34   Dy    0.51125   0.89548   0.90006   0.01267  Uiso   1.00
Dy35   Dy    0.72541   0.96060   0.30863   0.01267  Uiso   1.00
Dy36   Dy    0.92289   0.14825   0.23544   0.01267  Uiso   1.00
Dy37   Dy    0.78441   0.93540   0.20600   0.01267  Uiso   1.00
Dy38   Dy    0.16663   0.97045   0.88011   0.01267  Uiso   1.00
Dy39   Dy    0.36884   0.53591   0.76603   0.01267  Uiso   1.00
Dy40   Dy    0.47596   0.58212   0.82672   0.01267  Uiso   1.00
Dy41   Dy    0.11215   0.01079   0.73195   0.01267  Uiso   1.00
Dy42   Dy    0.87353   0.12655   0.34087   0.01267  Uiso   1.00
Dy43   Dy    0.48875   0.10452   0.09994   0.01267  Uiso   1.00
Dy44   Dy    0.60516   0.12318   0.36922   0.01267  Uiso   1.00
Dy45   Dy    0.63116   0.46409   0.23397   0.01267  Uiso   1.00
Dy46   Dy    0.38170   0.30609   0.28391   0.01267  Uiso   1.00
Dy47   Dy    0.17981   0.66536   0.77749   0.01267  Uiso   1.00
Dy48   Dy    0.53000   0.24106   0.45142   0.01267  Uiso   1.00
Dy49   Dy    0.49990   0.30962   0.35575   0.01267  Uiso   1.00
Dy50   Dy    0.12647   0.87345   0.65913   0.01267  Uiso   1.00
Dy51   Dy    0.47000   0.75894   0.54858   0.01267  Uiso   1.00
Dy52   Dy    0.53134   0.03571   0.30159   0.01267  Uiso   1.00
Zn1    Zn    0.89234   0.28434   0.57233   0.01267  Uiso   1.00
Zn2    Zn    0.10766   0.71566   0.42767   0.01267  Uiso   1.00
Zn3    Zn    0.00000   0.50000   0.00000   0.01267  Uiso   1.00
H1     H     0.55930   0.05300   0.82080   0.01267  Uiso   1.00
H2     H     0.96580   0.30050   0.06910   0.01267  Uiso   1.00
H3     H     0.29130   0.34500   0.46310   0.01267  Uiso   1.00
H4     H     0.12540   0.92150   0.00900   0.01267  Uiso   1.00
H5     H     0.41660   0.10700   0.50490   0.01267  Uiso   1.00
H6     H     0.03420   0.69950   0.93090   0.01267  Uiso   1.00
H7     H     0.53080   0.20900   0.60730   0.01267  Uiso   1.00
H8     H     0.87150   0.16170   0.59350   0.01267  Uiso   1.00
H9     H     0.72600   0.60630   0.57020   0.01267  Uiso   1.00
H10    H     0.60060   0.64560   0.96630   0.01267  Uiso   1.00
H11    H     0.26350   0.71070   0.51640   0.01267  Uiso   1.00
H12    H     0.91120   0.14880   0.80610   0.01267  Uiso   1.00
H13    H     0.56730   0.87720   0.13740   0.01267  Uiso   1.00
H14    H     0.82390   0.77630   0.85350   0.01267  Uiso   1.00
H15    H     0.28910   0.37460   0.73510   0.01267  Uiso   1.00
H16    H     0.57870   0.84790   0.25090   0.01267  Uiso   1.00
H17    H     0.56490   0.46200   0.45480   0.01267  Uiso   1.00
H18    H     0.37240   0.37100   0.07610   0.01267  Uiso   1.00
H19    H     0.65340   0.78040   0.01050   0.01267  Uiso   1.00
H20    H     0.97760   0.42600   0.86700   0.01267  Uiso   1.00
H21    H     0.53030   0.76670   0.24340   0.01267  Uiso   1.00
H22    H     0.85270   0.77070   0.11000   0.01267  Uiso   1.00
H23    H     0.29130   0.31570   0.42380   0.01267  Uiso   1.00
H24    H     0.75270   0.71290   0.26500   0.01267  Uiso   1.00
H25    H     0.79620   0.85920   0.41450   0.01267  Uiso   1.00
H26    H     0.76730   0.89330   0.06020   0.01267  Uiso   1.00
H27    H     0.03320   0.83800   0.07330   0.01267  Uiso   1.00
H28    H     0.37870   0.83190   0.27390   0.01267  Uiso   1.00
H29    H     0.70780   0.66100   0.16140   0.01267  Uiso   1.00
H30    H     0.32170   0.18480   0.61330   0.01267  Uiso   1.00
H31    H     0.08250   0.47840   0.90450   0.01267  Uiso   1.00
H32    H     0.50190   0.01600   0.58430   0.01267  Uiso   1.00
H33    H     0.41890   0.37240   0.65890   0.01267  Uiso   1.00
H34    H     0.08880   0.85120   0.19390   0.01267  Uiso   1.00
H35    H     0.97660   0.80760   0.07020   0.01267  Uiso   1.00
H36    H     0.73990   0.47300   0.76940   0.01267  Uiso   1.00
H37    H     0.75400   0.28640   0.54680   0.01267  Uiso   1.00
H38    H     0.35730   0.58820   0.47780   0.01267  Uiso   1.00
H39    H     0.64270   0.41180   0.52220   0.01267  Uiso   1.00
H40    H     0.82140   0.69270   0.73800   0.01267  Uiso   1.00
H41    H     0.17610   0.22370   0.14650   0.01267  Uiso   1.00
H42    H     0.02330   0.95950   0.04780   0.01267  Uiso   1.00
H43    H     0.97210   0.65380   0.18000   0.01267  Uiso   1.00
H44    H     0.50690   0.85130   0.34240   0.01267  Uiso   1.00
H45    H     0.19640   0.58160   0.39800   0.01267  Uiso   1.00
H46    H     0.31200   0.44010   0.87970   0.01267  Uiso   1.00
H47    H     0.24730   0.28710   0.73500   0.01267  Uiso   1.00
H48    H     0.74260   0.60580   0.37870   0.01267  Uiso   1.00
H49    H     0.46970   0.23330   0.75660   0.01267  Uiso   1.00
H50    H     0.58650   0.14850   0.83200   0.01267  Uiso   1.00
H51    H     0.71090   0.62540   0.26490   0.01267  Uiso   1.00
H52    H     0.02940   0.20800   0.59670   0.01267  Uiso   1.00
H53    H     0.20270   0.13020   0.22770   0.01267  Uiso   1.00
H54    H     0.54810   0.77760   0.12280   0.01267  Uiso   1.00
H55    H     0.97060   0.79200   0.40330   0.01267  Uiso   1.00
H56    H     0.79790   0.42930   0.03190   0.01267  Uiso   1.00
H57    H     0.17550   0.20780   0.97330   0.01267  Uiso   1.00
H58    H     0.44070   0.94700   0.17920   0.01267  Uiso   1.00
H59    H     0.24600   0.71360   0.45320   0.01267  Uiso   1.00
H60    H     0.03330   0.14660   0.04250   0.01267  Uiso   1.00
H61    H     0.88280   0.25810   0.72290   0.01267  Uiso   1.00
H62    H     0.44680   0.68150   0.41480   0.01267  Uiso   1.00
H63    H     0.26120   0.50990   0.57900   0.01267  Uiso   1.00
H64    H     0.73150   0.47040   0.65650   0.01267  Uiso   1.00
H65    H     0.23400   0.70370   0.26870   0.01267  Uiso   1.00
H66    H     0.39940   0.35440   0.03370   0.01267  Uiso   1.00
H67    H     0.47460   0.43510   0.51370   0.01267  Uiso   1.00
H68    H     0.58340   0.89300   0.49510   0.01267  Uiso   1.00
H69    H     0.18690   0.01340   0.49050   0.01267  Uiso   1.00
H70    H     0.22520   0.88720   0.28970   0.01267  Uiso   1.00
H71    H     0.45190   0.22240   0.87720   0.01267  Uiso   1.00
H72    H     0.97700   0.63280   0.95930   0.01267  Uiso   1.00
H73    H     0.15160   0.47440   0.74050   0.01267  Uiso   1.00
H74    H     0.86980   0.80850   0.45750   0.01267  Uiso   1.00
H75    H     0.20450   0.78760   0.17950   0.01267  Uiso   1.00
H76    H     0.95520   0.20720   0.50500   0.01267  Uiso   1.00
H77    H     0.54930   0.08940   0.55630   0.01267  Uiso   1.00
H78    H     0.73430   0.60950   0.06900   0.01267  Uiso   1.00
H79    H     0.68820   0.59390   0.45150   0.01267  Uiso   1.00
H80    H     0.05710   0.53720   0.22140   0.01267  Uiso   1.00
H81    H     0.70870   0.65500   0.53690   0.01267  Uiso   1.00
H82    H     0.02340   0.19240   0.92980   0.01267  Uiso   1.00
H83    H     0.84840   0.52560   0.25950   0.01267  Uiso   1.00
H84    H     0.42130   0.15210   0.74910   0.01267  Uiso   1.00
H85    H     0.55700   0.52590   0.04130   0.01267  Uiso   1.00
H86    H     0.80360   0.41840   0.60200   0.01267  Uiso   1.00
H87    H     0.06820   0.59530   0.31710   0.01267  Uiso   1.00
H88    H     0.58110   0.62760   0.34110   0.01267  Uiso   1.00
H89    H     0.90700   0.92040   0.69100   0.01267  Uiso   1.00
H90    H     0.06980   0.83250   0.55440   0.01267  Uiso   1.00
H91    H     0.59940   0.07580   0.71200   0.01267  Uiso   1.00
H92    H     0.20380   0.14080   0.58550   0.01267  Uiso   1.00
H93    H     0.08150   0.11000   0.62520   0.01267  Uiso   1.00
H94    H     0.25740   0.39420   0.62130   0.01267  Uiso   1.00
H95    H     0.63520   0.96810   0.47350   0.01267  Uiso   1.00
H96    H     0.45070   0.91060   0.44370   0.01267  Uiso   1.00
H97    H     0.44300   0.47410   0.95870   0.01267  Uiso   1.00
H98    H     0.02790   0.34620   0.82000   0.01267  Uiso   1.00
H99    H     0.25090   0.94750   0.17360   0.01267  Uiso   1.00
H100   H     0.43510   0.53800   0.54520   0.01267  Uiso   1.00
H101   H     0.73330   0.75340   0.18240   0.01267  Uiso   1.00
H102   H     0.06610   0.95050   0.39100   0.01267  Uiso   1.00
H103   H     0.65060   0.63980   0.33620   0.01267  Uiso   1.00
H104   H     0.85950   0.98520   0.80480   0.01267  Uiso   1.00
H105   H     0.27400   0.39370   0.42980   0.01267  Uiso   1.00
H106   H     0.11720   0.74190   0.27710   0.01267  Uiso   1.00
H107   H     0.85940   0.48930   0.00400   0.01267  Uiso   1.00
H108   H     0.14060   0.51070   0.99600   0.01267  Uiso   1.00
H109   H     0.12610   0.38050   0.72840   0.01267  Uiso   1.00
H110   H     0.51390   0.45380   0.93330   0.01267  Uiso   1.00
H111   H     0.37700   0.38150   0.62530   0.01267  Uiso   1.00
H112   H     0.36410   0.24170   0.56560   0.01267  Uiso   1.00
H113   H     0.73880   0.49010   0.42100   0.01267  Uiso   1.00
H114   H     0.52540   0.56490   0.48630   0.01267  Uiso   1.00
H115   H     0.96150   0.55910   0.79320   0.01267  Uiso   1.00
H116   H     0.48610   0.54620   0.06670   0.01267  Uiso   1.00
H117   H     0.93390   0.04950   0.60900   0.01267  Uiso   1.00
H118   H     0.02300   0.36720   0.04070   0.01267  Uiso   1.00
H119   H     0.87390   0.61950   0.27160   0.01267  Uiso   1.00
H120   H     0.25120   0.95860   0.54200   0.01267  Uiso   1.00
H121   H     0.73650   0.28930   0.48360   0.01267  Uiso   1.00
H122   H     0.49310   0.14870   0.65760   0.01267  Uiso   1.00
H123   H     0.79550   0.21240   0.82050   0.01267  Uiso   1.00
H124   H     0.28690   0.41900   0.17850   0.01267  Uiso   1.00
H125   H     0.36480   0.03190   0.52650   0.01267  Uiso   1.00
H126   H     0.15020   0.33490   0.55520   0.01267  Uiso   1.00
H127   H     0.31180   0.40610   0.54850   0.01267  Uiso   1.00
H128   H     0.26850   0.52960   0.34350   0.01267  Uiso   1.00
H129   H     0.70870   0.68430   0.57620   0.01267  Uiso   1.00
H130   H     0.17150   0.63560   0.23240   0.01267  Uiso   1.00
H131   H     0.58660   0.88850   0.04260   0.01267  Uiso   1.00
H132   H     0.13020   0.19150   0.54250   0.01267  Uiso   1.00
H133   H     0.41350   0.85150   0.16800   0.01267  Uiso   1.00
H134   H     0.20210   0.57070   0.96810   0.01267  Uiso   1.00
H135   H     0.26570   0.39050   0.93100   0.01267  Uiso   1.00
H136   H     0.01050   0.79980   0.10680   0.01267  Uiso   1.00
H137   H     0.38740   0.50160   0.43590   0.01267  Uiso   1.00
H138   H     0.48270   0.52410   0.95500   0.01267  Uiso   1.00
H139   H     0.40060   0.92420   0.28800   0.01267  Uiso   1.00
H140   H     0.10200   0.92720   0.30220   0.01267  Uiso   1.00
H141   H     0.77480   0.11280   0.71030   0.01267  Uiso   1.00
H142   H     0.34940   0.36020   0.66380   0.01267  Uiso   1.00
H143   H     0.12850   0.83830   0.40650   0.01267  Uiso   1.00
H144   H     0.14730   0.22930   0.89000   0.01267  Uiso   1.00
H145   H     0.19210   0.03200   0.33530   0.01267  Uiso   1.00
H146   H     0.29030   0.43870   0.13670   0.01267  Uiso   1.00
H147   H     0.02240   0.57400   0.13300   0.01267  Uiso   1.00
H148   H     0.80790   0.96800   0.66470   0.01267  Uiso   1.00
H149   H     0.87460   0.07850   0.99100   0.01267  Uiso   1.00
H150   H     0.74910   0.05250   0.82640   0.01267  Uiso   1.00
H151   H     0.34590   0.32540   0.05360   0.01267  Uiso   1.00
H152   H     0.91750   0.52160   0.09550   0.01267  Uiso   1.00
H153   H     0.96680   0.16200   0.92670   0.01267  Uiso   1.00
H154   H     0.63590   0.75830   0.43440   0.01267  Uiso   1.00
H155   H     0.62300   0.61850   0.37470   0.01267  Uiso   1.00
H156   H     0.94290   0.46280   0.77860   0.01267  Uiso   1.00
H157   H     0.93180   0.40470   0.68290   0.01267  Uiso   1.00
H158   H     0.65410   0.67460   0.94640   0.01267  Uiso   1.00
H159   H     0.78000   0.25130   0.61750   0.01267  Uiso   1.00
H160   H     0.88310   0.72620   0.39590   0.01267  Uiso   1.00
H161   H     0.11690   0.27380   0.60410   0.01267  Uiso   1.00
H162   H     0.09300   0.07960   0.30900   0.01267  Uiso   1.00
H163   H     0.62130   0.16810   0.72610   0.01267  Uiso   1.00
H164   H     0.67830   0.81520   0.38670   0.01267  Uiso   1.00
H165   H     0.15660   0.49080   0.32350   0.01267  Uiso   1.00
H166   H     0.68590   0.30340   0.66560   0.01267  Uiso   1.00
H167   H     0.55320   0.31850   0.58520   0.01267  Uiso   1.00
H168   H     0.49810   0.98400   0.41570   0.01267  Uiso   1.00
H169   H     0.98950   0.20020   0.89320   0.01267  Uiso   1.00
H170   H     0.28080   0.20150   0.16570   0.01267  Uiso   1.00
H171   H     0.79730   0.86980   0.77230   0.01267  Uiso   1.00
H172   H     0.51730   0.47590   0.04500   0.01267  Uiso   1.00
H173   H     0.22000   0.74870   0.38250   0.01267  Uiso   1.00
H174   H     0.46920   0.79100   0.39270   0.01267  Uiso   1.00
H175   H     0.43270   0.12280   0.86260   0.01267  Uiso   1.00
H176   H     0.26670   0.24660   0.81760   0.01267  Uiso   1.00
H177   H     0.84980   0.66510   0.44480   0.01267  Uiso   1.00
H178   H     0.29220   0.33900   0.83860   0.01267  Uiso   1.00
H179   H     0.76600   0.29630   0.73130   0.01267  Uiso   1.00
H180   H     0.68800   0.55990   0.12030   0.01267  Uiso   1.00
H181   H     0.97670   0.04050   0.95220   0.01267  Uiso   1.00
H182   H     0.70240   0.63550   0.85270   0.01267  Uiso   1.00
H183   H     0.17860   0.30730   0.26200   0.01267  Uiso   1.00
H184   H     0.61260   0.49840   0.56410   0.01267  Uiso   1.00
H185   H     0.29770   0.08020   0.25490   0.01267  Uiso   1.00
H186   H     0.92080   0.67900   0.76070   0.01267  Uiso   1.00
H187   H     0.07920   0.32100   0.23930   0.01267  Uiso   1.00
H188   H     0.71920   0.79850   0.83430   0.01267  Uiso   1.00
H189   H     0.82450   0.79220   0.02670   0.01267  Uiso   1.00
H190   H     0.82850   0.36440   0.76760   0.01267  Uiso   1.00
H191   H     0.93020   0.16750   0.44560   0.01267  Uiso   1.00
H192   H     0.09640   0.31260   0.93360   0.01267  Uiso   1.00
H193   H     0.81310   0.98660   0.50950   0.01267  Uiso   1.00
H194   H     0.31410   0.69660   0.33440   0.01267  Uiso   1.00
H195   H     0.12130   0.53180   0.85550   0.01267  Uiso   1.00
H196   H     0.70970   0.56130   0.86330   0.01267  Uiso   1.00
H197   H     0.71310   0.58100   0.82150   0.01267  Uiso   1.00
H198   H     0.12350   0.10420   0.99720   0.01267  Uiso   1.00
H199   H     0.47920   0.60080   0.36870   0.01267  Uiso   1.00
H200   H     0.90360   0.68740   0.06640   0.01267  Uiso   1.00
H201   H     0.89800   0.07280   0.69780   0.01267  Uiso   1.00
H202   H     0.96670   0.85340   0.95750   0.01267  Uiso   1.00
H203   H     0.52080   0.39920   0.63130   0.01267  Uiso   1.00
H204   H     0.23270   0.10670   0.93980   0.01267  Uiso   1.00
H205   H     0.70230   0.91980   0.74510   0.01267  Uiso   1.00
H206   H     0.62760   0.62900   0.92390   0.01267  Uiso   1.00
H207   H     0.87650   0.89580   0.00280   0.01267  Uiso   1.00
H208   H     0.91850   0.89000   0.37480   0.01267  Uiso   1.00
H209   H     0.34660   0.21960   0.98950   0.01267  Uiso   1.00
H210   H     0.03850   0.44090   0.20680   0.01267  Uiso   1.00
H211   H     0.78230   0.66200   0.33100   0.01267  Uiso   1.00
H212   H     0.29760   0.36450   0.14730   0.01267  Uiso   1.00
H213   H     0.41340   0.11150   0.95740   0.01267  Uiso   1.00
H214   H     0.84340   0.50920   0.67650   0.01267  Uiso   1.00
H215   H     0.14050   0.01480   0.19520   0.01267  Uiso   1.00
H216   H     0.21770   0.33800   0.66900   0.01267  Uiso   1.00
H217   H     0.26010   0.52700   0.23060   0.01267  Uiso   1.00
H218   H     0.74880   0.04140   0.45800   0.01267  Uiso   1.00
H219   H     0.87870   0.46820   0.14450   0.01267  Uiso   1.00
H220   H     0.04480   0.79280   0.49500   0.01267  Uiso   1.00
C1     C     0.19030   0.80720   0.57460   0.01267  Uiso   1.00
C2     C     0.62560   0.02580   0.23680   0.01267  Uiso   1.00
C3     C     0.68550   0.39850   0.41000   0.01267  Uiso   1.00
C4     C     0.67680   0.70510   0.15930   0.01267  Uiso   1.00
C5     C     0.56360   0.99140   0.75790   0.01267  Uiso   1.00
C6     C     0.82320   0.76040   0.82990   0.01267  Uiso   1.00
C7     C     0.80910   0.16530   0.81870   0.01267  Uiso   1.00
C8     C     0.17680   0.23960   0.17010   0.01267  Uiso   1.00
C9     C     0.16600   0.29760   0.64030   0.01267  Uiso   1.00
C10    C     0.60670   0.97870   0.49610   0.01267  Uiso   1.00
C11    C     0.57510   0.75380   0.24880   0.01267  Uiso   1.00
C12    C     0.62390   0.93260   0.87390   0.01267  Uiso   1.00
C13    C     0.10820   0.47360   0.74850   0.01267  Uiso   1.00
C14    C     0.13610   0.11180   0.26510   0.01267  Uiso   1.00
C15    C     0.86390   0.88820   0.73490   0.01267  Uiso   1.00
C16    C     0.89620   0.92450   0.99080   0.01267  Uiso   1.00
C17    C     0.69210   0.59690   0.84640   0.01267  Uiso   1.00
C18    C     0.73500   0.55100   0.11570   0.01267  Uiso   1.00
C19    C     0.95430   0.08180   0.60770   0.01267  Uiso   1.00
C20    C     0.92960   0.41090   0.22500   0.01267  Uiso   1.00
C21    C     0.97620   0.38010   0.03940   0.01267  Uiso   1.00
C22    C     0.79140   0.25040   0.72610   0.01267  Uiso   1.00
C23    C     0.87070   0.53010   0.10020   0.01267  Uiso   1.00
C24    C     0.36630   0.02960   0.92390   0.01267  Uiso   1.00
C25    C     0.19850   0.11370   0.56710   0.01267  Uiso   1.00
C26    C     0.72650   0.56990   0.72040   0.01267  Uiso   1.00
C27    C     0.26500   0.44900   0.88430   0.01267  Uiso   1.00
C28    C     0.05590   0.52900   0.76770   0.01267  Uiso   1.00
C29    C     0.89600   0.03230   0.98510   0.01267  Uiso   1.00
C30    C     0.39330   0.02130   0.50390   0.01267  Uiso   1.00
C31    C     0.61690   0.68410   0.25230   0.01267  Uiso   1.00
C32    C     0.74180   0.87220   0.04990   0.01267  Uiso   1.00
C33    C     0.97430   0.01260   0.79030   0.01267  Uiso   1.00
C34    C     0.57360   0.07500   0.80090   0.01267  Uiso   1.00
C35    C     0.80910   0.96010   0.49040   0.01267  Uiso   1.00
C36    C     0.66330   0.54250   0.33740   0.01267  Uiso   1.00
C37    C     0.31730   0.33030   0.73930   0.01267  Uiso   1.00
C38    C     0.76920   0.95620   0.43110   0.01267  Uiso   1.00
C39    C     0.46150   0.47950   0.36910   0.01267  Uiso   1.00
C40    C     0.57610   0.93190   0.50910   0.01267  Uiso   1.00
C41    C     0.89980   0.05870   0.80440   0.01267  Uiso   1.00
C42    C     0.40470   0.15880   0.63960   0.01267  Uiso   1.00
C43    C     0.52790   0.50920   0.05790   0.01267  Uiso   1.00
C44    C     0.19090   0.83470   0.18130   0.01267  Uiso   1.00
C45    C     0.38340   0.59040   0.45550   0.01267  Uiso   1.00
C46    C     0.38490   0.33700   0.05650   0.01267  Uiso   1.00
C47    C     0.55480   0.72790   0.93350   0.01267  Uiso   1.00
C48    C     0.77890   0.26190   0.49030   0.01267  Uiso   1.00
C49    C     0.91730   0.14960   0.59700   0.01267  Uiso   1.00
C50    C     0.90300   0.16110   0.71360   0.01267  Uiso   1.00
C51    C     0.86600   0.91810   0.70270   0.01267  Uiso   1.00
C52    C     0.21150   0.72860   0.47340   0.01267  Uiso   1.00
C53    C     0.44130   0.53640   0.39740   0.01267  Uiso   1.00
C54    C     0.39060   0.85580   0.25420   0.01267  Uiso   1.00
C55    C     0.84850   0.03130   0.80940   0.01267  Uiso   1.00
C56    C     0.22330   0.18930   0.96980   0.01267  Uiso   1.00
C57    C     0.05790   0.66120   0.94350   0.01267  Uiso   1.00
C58    C     0.69480   0.76080   0.17060   0.01267  Uiso   1.00
C59    C     0.67570   0.80510   0.02070   0.01267  Uiso   1.00
C60    C     0.74420   0.91840   0.73270   0.01267  Uiso   1.00
C61    C     0.66340   0.56550   0.45260   0.01267  Uiso   1.00
C62    C     0.55860   0.04810   0.54410   0.01267  Uiso   1.00
C63    C     0.00370   0.47640   0.22060   0.01267  Uiso   1.00
C64    C     0.78850   0.27140   0.52660   0.01267  Uiso   1.00
C65    C     0.78410   0.39290   0.61740   0.01267  Uiso   1.00
C66    C     0.82700   0.21390   0.46030   0.01267  Uiso   1.00
C67    C     0.41610   0.22690   0.86370   0.01267  Uiso   1.00
C68    C     0.01590   0.05880   0.05080   0.01267  Uiso   1.00
C69    C     0.77060   0.99440   0.45820   0.01267  Uiso   1.00
C70    C     0.94210   0.33880   0.05650   0.01267  Uiso   1.00
C71    C     0.83510   0.66550   0.42170   0.01267  Uiso   1.00
C72    C     0.27350   0.43010   0.27960   0.01267  Uiso   1.00
C73    C     0.15210   0.50270   0.87000   0.01267  Uiso   1.00
C74    C     0.11800   0.21960   0.81920   0.01267  Uiso   1.00
C75    C     0.58830   0.63180   0.24730   0.01267  Uiso   1.00
C76    C     0.89220   0.41870   0.70010   0.01267  Uiso   1.00
C77    C     0.92850   0.85800   0.75230   0.01267  Uiso   1.00
C78    C     0.12740   0.64360   0.94590   0.01267  Uiso   1.00
C79    C     0.58390   0.77310   0.13630   0.01267  Uiso   1.00
C80    C     0.75620   0.09950   0.33020   0.01267  Uiso   1.00
C81    C     0.60940   0.14420   0.74580   0.01267  Uiso   1.00
C82    C     0.76850   0.29640   0.62480   0.01267  Uiso   1.00
C83    C     0.37440   0.97420   0.76320   0.01267  Uiso   1.00
C84    C     0.19850   0.11040   0.25050   0.01267  Uiso   1.00
C85    C     0.46580   0.16650   0.63900   0.01267  Uiso   1.00
C86    C     0.31450   0.60150   0.59000   0.01267  Uiso   1.00
C87    C     0.87940   0.70280   0.77540   0.01267  Uiso   1.00
C88    C     0.79420   0.66410   0.35460   0.01267  Uiso   1.00
C89    C     0.70170   0.39030   0.66670   0.01267  Uiso   1.00
C90    C     0.38580   0.11680   0.66860   0.01267  Uiso   1.00
C91    C     0.32980   0.09660   0.94500   0.01267  Uiso   1.00
C92    C     0.20240   0.85780   0.28680   0.01267  Uiso   1.00
C93    C     0.22130   0.49070   0.86290   0.01267  Uiso   1.00
C94    C     0.38890   0.63020   0.68700   0.01267  Uiso   1.00
C95    C     0.43100   0.44970   0.52740   0.01267  Uiso   1.00
C96    C     0.65140   0.82660   0.16290   0.01267  Uiso   1.00
C97    C     0.53420   0.83350   0.36100   0.01267  Uiso   1.00
C98    C     0.08270   0.85040   0.40300   0.01267  Uiso   1.00
C99    C     0.84130   0.85410   0.46030   0.01267  Uiso   1.00
C100   C     0.63520   0.81250   0.38700   0.01267  Uiso   1.00
C101   C     0.94410   0.47100   0.23230   0.01267  Uiso   1.00
C102   C     0.87230   0.11710   0.70650   0.01267  Uiso   1.00
C103   C     0.19450   0.05410   0.31310   0.01267  Uiso   1.00
C104   C     0.49830   0.90100   0.55590   0.01267  Uiso   1.00
C105   C     0.61420   0.88320   0.33140   0.01267  Uiso   1.00
C106   C     0.28730   0.67310   0.34510   0.01267  Uiso   1.00
C107   C     0.37670   0.33780   0.42720   0.01267  Uiso   1.00
C108   C     0.61210   0.61780   0.84890   0.01267  Uiso   1.00
C109   C     0.42490   0.24620   0.75120   0.01267  Uiso   1.00
C110   C     0.79760   0.14220   0.71320   0.01267  Uiso   1.00
C111   C     0.07040   0.58910   0.77500   0.01267  Uiso   1.00
C112   C     0.19090   0.03990   0.50960   0.01267  Uiso   1.00
C113   C     0.48210   0.30090   0.22050   0.01267  Uiso   1.00
C114   C     0.91030   0.72630   0.14930   0.01267  Uiso   1.00
C115   C     0.41120   0.86620   0.19230   0.01267  Uiso   1.00
C116   C     0.11920   0.54790   0.98200   0.01267  Uiso   1.00
C117   C     0.37360   0.38700   0.65170   0.01267  Uiso   1.00
C118   C     0.32320   0.29490   0.84070   0.01267  Uiso   1.00
C119   C     0.21890   0.92680   0.17880   0.01267  Uiso   1.00
C120   C     0.09210   0.41700   0.74190   0.01267  Uiso   1.00
C121   C     0.29830   0.60970   0.33330   0.01267  Uiso   1.00
C122   C     0.24040   0.22620   0.18090   0.01267  Uiso   1.00
C123   C     0.10400   0.96770   0.01490   0.01267  Uiso   1.00
C124   C     0.80550   0.94590   0.68690   0.01267  Uiso   1.00
C125   C     0.75890   0.74850   0.78440   0.01267  Uiso   1.00
C126   C     0.83400   0.70240   0.35970   0.01267  Uiso   1.00
C127   C     0.46420   0.05510   0.45750   0.01267  Uiso   1.00
C128   C     0.71270   0.32690   0.65490   0.01267  Uiso   1.00
C129   C     0.14490   0.29770   0.60780   0.01267  Uiso   1.00
C130   C     0.30550   0.49610   0.56630   0.01267  Uiso   1.00
C131   C     0.77790   0.46080   0.75110   0.01267  Uiso   1.00
C132   C     0.28200   0.83070   0.87310   0.01267  Uiso   1.00
C133   C     0.42640   0.92500   0.19910   0.01267  Uiso   1.00
C134   C     0.80150   0.88960   0.74950   0.01267  Uiso   1.00
C135   C     0.04620   0.91430   0.92090   0.01267  Uiso   1.00
C136   C     0.30790   0.40310   0.15360   0.01267  Uiso   1.00
C137   C     0.15150   0.96870   0.19060   0.01267  Uiso   1.00
C138   C     0.56900   0.55030   0.47260   0.01267  Uiso   1.00
C139   C     0.20860   0.74960   0.27390   0.01267  Uiso   1.00
C140   C     0.12060   0.29720   0.22460   0.01267  Uiso   1.00
C141   C     0.00490   0.17090   0.91340   0.01267  Uiso   1.00
C142   C     0.54430   0.40510   0.60880   0.01267  Uiso   1.00
C143   C     0.12070   0.87240   0.19080   0.01267  Uiso   1.00
C144   C     0.01400   0.53540   0.22890   0.01267  Uiso   1.00
C145   C     0.88860   0.73180   0.11540   0.01267  Uiso   1.00
C146   C     0.85070   0.06680   0.19270   0.01267  Uiso   1.00
C147   C     0.40740   0.51250   0.54600   0.01267  Uiso   1.00
C148   C     0.22940   0.00560   0.54180   0.01267  Uiso   1.00
C149   C     0.62640   0.61300   0.34830   0.01267  Uiso   1.00
C150   C     0.82970   0.31920   0.07300   0.01267  Uiso   1.00
C151   C     0.59670   0.08820   0.73670   0.01267  Uiso   1.00
C152   C     0.76360   0.58200   0.08480   0.01267  Uiso   1.00
C153   C     0.71800   0.16930   0.12690   0.01267  Uiso   1.00
C154   C     0.39510   0.19760   0.74630   0.01267  Uiso   1.00
C155   C     0.75960   0.77380   0.81910   0.01267  Uiso   1.00
C156   C     0.42390   0.06810   0.49090   0.01267  Uiso   1.00
C157   C     0.15000   0.25690   0.67150   0.01267  Uiso   1.00
C158   C     0.68270   0.66970   0.26070   0.01267  Uiso   1.00
C159   C     0.04110   0.11690   0.61520   0.01267  Uiso   1.00
C160   C     0.01630   0.06600   0.61530   0.01267  Uiso   1.00
C161   C     0.30150   0.34910   0.43690   0.01267  Uiso   1.00
C162   C     0.57970   0.05030   0.76490   0.01267  Uiso   1.00
C163   C     0.10020   0.94130   0.19560   0.01267  Uiso   1.00
C164   C     0.50170   0.09900   0.44410   0.01267  Uiso   1.00
C165   C     0.00750   0.17710   0.60070   0.01267  Uiso   1.00
C166   C     0.59260   0.48750   0.45400   0.01267  Uiso   1.00
C167   C     0.34860   0.17340   0.83710   0.01267  Uiso   1.00
C168   C     0.10450   0.80640   0.53620   0.01267  Uiso   1.00
C169   C     0.94650   0.00150   0.36870   0.01267  Uiso   1.00
C170   C     0.85000   0.74310   0.32850   0.01267  Uiso   1.00
C171   C     0.95890   0.88310   0.38480   0.01267  Uiso   1.00
C172   C     0.21600   0.49660   0.27570   0.01267  Uiso   1.00
C173   C     0.12770   0.88290   0.29350   0.01267  Uiso   1.00
C174   C     0.50160   0.81910   0.69940   0.01267  Uiso   1.00
C175   C     0.22110   0.73810   0.50970   0.01267  Uiso   1.00
C176   C     0.13820   0.77330   0.27890   0.01267  Uiso   1.00
C177   C     0.08970   0.27370   0.85070   0.01267  Uiso   1.00
C178   C     0.67020   0.90340   0.05500   0.01267  Uiso   1.00
C179   C     0.15970   0.51780   0.30340   0.01267  Uiso   1.00
C180   C     0.69450   0.50390   0.43370   0.01267  Uiso   1.00
C181   C     0.98800   0.61460   0.12820   0.01267  Uiso   1.00
C182   C     0.77870   0.50930   0.13710   0.01267  Uiso   1.00
C183   C     0.51130   0.79620   0.39180   0.01267  Uiso   1.00
C184   C     0.99510   0.82910   0.08660   0.01267  Uiso   1.00
C185   C     0.78400   0.50340   0.72430   0.01267  Uiso   1.00
C186   C     0.98600   0.46460   0.77110   0.01267  Uiso   1.00
C187   C     0.13400   0.08190   0.29730   0.01267  Uiso   1.00
C188   C     0.06210   0.10200   0.89740   0.01267  Uiso   1.00
C189   C     0.44140   0.95190   0.45590   0.01267  Uiso   1.00
C190   C     0.73400   0.98430   0.39860   0.01267  Uiso   1.00
C191   C     0.80300   0.25430   0.30340   0.01267  Uiso   1.00
C192   C     0.77670   0.81070   0.03020   0.01267  Uiso   1.00
C193   C     0.99630   0.52360   0.77940   0.01267  Uiso   1.00
C194   C     0.53850   0.52050   0.63090   0.01267  Uiso   1.00
C195   C     0.90790   0.58300   0.25810   0.01267  Uiso   1.00
C196   C     0.37610   0.06740   0.12610   0.01267  Uiso   1.00
C197   C     0.26600   0.01570   0.60140   0.01267  Uiso   1.00
C198   C     0.49840   0.18090   0.30060   0.01267  Uiso   1.00
C199   C     0.95920   0.66300   0.15640   0.01267  Uiso   1.00
C200   C     0.29740   0.65740   0.82720   0.01267  Uiso   1.00
C201   C     0.65570   0.46430   0.43470   0.01267  Uiso   1.00
C202   C     0.98370   0.93400   0.38470   0.01267  Uiso   1.00
C203   C     0.04080   0.33700   0.84360   0.01267  Uiso   1.00
C204   C     0.47210   0.49080   0.94210   0.01267  Uiso   1.00
C205   C     0.78110   0.07320   0.82120   0.01267  Uiso   1.00
C206   C     0.01200   0.38540   0.87180   0.01267  Uiso   1.00
C207   C     0.59800   0.46240   0.56960   0.01267  Uiso   1.00
C208   C     0.34790   0.57740   0.29960   0.01267  Uiso   1.00
C209   C     0.89550   0.19360   0.46380   0.01267  Uiso   1.00
C210   C     0.84030   0.48220   0.69660   0.01267  Uiso   1.00
C211   C     0.52770   0.00470   0.56090   0.01267  Uiso   1.00
C212   C     0.14930   0.93320   0.80730   0.01267  Uiso   1.00
C213   C     0.70650   0.72350   0.26290   0.01267  Uiso   1.00
C214   C     0.36560   0.12940   0.95960   0.01267  Uiso   1.00
C215   C     0.09020   0.78200   0.49910   0.01267  Uiso   1.00
C216   C     0.80970   0.19280   0.42540   0.01267  Uiso   1.00
C217   C     0.21590   0.60710   0.38260   0.01267  Uiso   1.00
C218   C     0.41170   0.36820   0.75270   0.01267  Uiso   1.00
C219   C     0.24470   0.52760   0.83100   0.01267  Uiso   1.00
C220   C     0.15870   0.14590   0.53970   0.01267  Uiso   1.00
C221   C     0.84790   0.49730   0.13000   0.01267  Uiso   1.00
C222   C     0.38310   0.31590   0.74770   0.01267  Uiso   1.00
C223   C     0.38790   0.38220   0.15110   0.01267  Uiso   1.00
C224   C     0.93790   0.89800   0.10260   0.01267  Uiso   1.00
C225   C     0.43460   0.52370   0.90880   0.01267  Uiso   1.00
C226   C     0.99250   0.82290   0.39930   0.01267  Uiso   1.00
C227   C     0.07150   0.14200   0.24770   0.01267  Uiso   1.00
C228   C     0.62330   0.66220   0.57280   0.01267  Uiso   1.00
C229   C     0.56540   0.47630   0.09120   0.01267  Uiso   1.00
C230   C     0.17890   0.28930   0.23880   0.01267  Uiso   1.00
C231   C     0.80150   0.88630   0.43290   0.01267  Uiso   1.00
C232   C     0.10380   0.07550   0.00920   0.01267  Uiso   1.00
C233   C     0.26260   0.57320   0.35130   0.01267  Uiso   1.00
C234   C     0.75530   0.47240   0.16900   0.01267  Uiso   1.00
C235   C     0.88080   0.45210   0.01800   0.01267  Uiso   1.00
C236   C     0.01960   0.86530   0.28840   0.01267  Uiso   1.00
C237   C     0.25820   0.12780   0.95010   0.01267  Uiso   1.00
C238   C     0.90980   0.21800   0.50090   0.01267  Uiso   1.00
C239   C     0.20580   0.33590   0.64540   0.01267  Uiso   1.00
C240   C     0.65210   0.42260   0.70040   0.01267  Uiso   1.00
C241   C     0.95380   0.08570   0.07910   0.01267  Uiso   1.00
C242   C     0.85510   0.70230   0.39220   0.01267  Uiso   1.00
C243   C     0.25580   0.08160   0.26730   0.01267  Uiso   1.00
C244   C     0.10780   0.58130   0.29990   0.01267  Uiso   1.00
C245   C     0.17030   0.68080   0.92700   0.01267  Uiso   1.00
C246   C     0.87260   0.35640   0.05410   0.01267  Uiso   1.00
C247   C     0.05350   0.99850   0.63130   0.01267  Uiso   1.00
C248   C     0.45570   0.59490   0.39120   0.01267  Uiso   1.00
C249   C     0.04570   0.91820   0.39230   0.01267  Uiso   1.00
C250   C     0.04920   0.10100   0.03500   0.01267  Uiso   1.00
C251   C     0.77130   0.62880   0.38250   0.01267  Uiso   1.00
C252   C     0.33660   0.43450   0.54740   0.01267  Uiso   1.00
C253   C     0.43440   0.64410   0.41930   0.01267  Uiso   1.00
C254   C     0.44520   0.27210   0.06650   0.01267  Uiso   1.00
C255   C     0.69850   0.65090   0.56310   0.01267  Uiso   1.00
C256   C     0.02380   0.61990   0.96060   0.01267  Uiso   1.00
C257   C     0.61510   0.66300   0.94350   0.01267  Uiso   1.00
C258   C     0.95080   0.89900   0.96500   0.01267  Uiso   1.00
C259   C     0.12930   0.46990   0.89980   0.01267  Uiso   1.00
C260   C     0.98040   0.13470   0.71160   0.01267  Uiso   1.00
C261   C     0.53580   0.94490   0.54250   0.01267  Uiso   1.00
C262   C     0.23640   0.41800   0.91520   0.01267  Uiso   1.00
C263   C     0.63440   0.87060   0.04040   0.01267  Uiso   1.00
C264   C     0.60490   0.80240   0.25370   0.01267  Uiso   1.00
C265   C     0.40440   0.16530   0.85560   0.01267  Uiso   1.00
C266   C     0.59530   0.84120   0.36040   0.01267  Uiso   1.00
C267   C     0.88200   0.78040   0.18080   0.01267  Uiso   1.00
C268   C     0.61110   0.36980   0.31300   0.01267  Uiso   1.00
C269   C     0.08110   0.31870   0.91040   0.01267  Uiso   1.00
C270   C     0.24110   0.25150   0.21560   0.01267  Uiso   1.00
C271   C     0.04450   0.98940   0.03920   0.01267  Uiso   1.00
C272   C     0.43640   0.00860   0.24210   0.01267  Uiso   1.00
C273   C     0.16490   0.33450   0.57830   0.01267  Uiso   1.00
C274   C     0.82110   0.71070   0.76120   0.01267  Uiso   1.00
C275   C     0.63370   0.97040   0.07610   0.01267  Uiso   1.00
C276   C     0.19700   0.74570   0.69660   0.01267  Uiso   1.00
C277   C     0.91890   0.68130   0.08960   0.01267  Uiso   1.00
C278   C     0.60910   0.77740   0.41580   0.01267  Uiso   1.00
C279   C     0.58880   0.13380   0.80770   0.01267  Uiso   1.00
C280   C     0.89180   0.52640   0.25150   0.01267  Uiso   1.00
C281   C     0.40330   0.91180   0.26330   0.01267  Uiso   1.00
C282   C     0.29350   0.27650   0.73710   0.01267  Uiso   1.00
C283   C     0.84440   0.41470   0.03430   0.01267  Uiso   1.00
C284   C     0.48870   0.20380   0.60820   0.01267  Uiso   1.00
C285   C     0.87930   0.12760   0.80920   0.01267  Uiso   1.00
C286   C     0.22870   0.37120   0.61750   0.01267  Uiso   1.00
C287   C     0.17300   0.78610   0.53970   0.01267  Uiso   1.00
C288   C     0.40200   0.53760   0.43040   0.01267  Uiso   1.00
C289   C     0.09700   0.83890   0.28640   0.01267  Uiso   1.00
C290   C     0.15560   0.58530   0.96570   0.01267  Uiso   1.00
C291   C     0.56560   0.35590   0.58070   0.01267  Uiso   1.00
C292   C     0.23080   0.04380   0.56890   0.01267  Uiso   1.00
C293   C     0.02570   0.98740   0.20970   0.01267  Uiso   1.00
C294   C     0.42030   0.94970   0.23510   0.01267  Uiso   1.00
C295   C     0.22210   0.53920   0.24890   0.01267  Uiso   1.00
C296   C     0.39090   0.22260   0.58420   0.01267  Uiso   1.00
C297   C     0.55870   0.46360   0.60260   0.01267  Uiso   1.00
C298   C     0.24380   0.90050   0.66980   0.01267  Uiso   1.00
C299   C     0.30740   0.23780   0.23030   0.01267  Uiso   1.00
C300   C     0.33670   0.45750   0.66260   0.01267  Uiso   1.00
C301   C     0.23150   0.70360   0.37520   0.01267  Uiso   1.00
C302   C     0.33100   0.11420   0.82810   0.01267  Uiso   1.00
C303   C     0.47230   0.99530   0.43910   0.01267  Uiso   1.00
C304   C     0.51790   0.69910   0.77950   0.01267  Uiso   1.00
C305   C     0.66900   0.88580   0.17190   0.01267  Uiso   1.00
C306   C     0.95550   0.01060   0.96080   0.01267  Uiso   1.00
C307   C     0.98410   0.94120   0.94920   0.01267  Uiso   1.00
C308   C     0.69260   0.76220   0.76970   0.01267  Uiso   1.00
C309   C     0.16730   0.60420   0.24990   0.01267  Uiso   1.00
C310   C     0.34430   0.53570   0.56530   0.01267  Uiso   1.00
C311   C     0.11140   0.26820   0.88460   0.01267  Uiso   1.00
C312   C     0.61660   0.40960   0.54450   0.01267  Uiso   1.00
C313   C     0.59560   0.83470   0.14440   0.01267  Uiso   1.00
C314   C     0.36480   0.18750   0.61300   0.01267  Uiso   1.00
C315   C     0.32430   0.19490   0.97930   0.01267  Uiso   1.00
C316   C     0.30520   0.23920   0.82940   0.01267  Uiso   1.00
C317   C     0.83270   0.39580   0.75010   0.01267  Uiso   1.00
C318   C     0.86180   0.22670   0.72110   0.01267  Uiso   1.00
C319   C     0.70260   0.34260   0.17280   0.01267  Uiso   1.00
C320   C     0.73740   0.42680   0.64870   0.01267  Uiso   1.00
N1     N     0.66690   0.78730   0.26210   0.01267  Uiso   1.00
N2     N     0.14190   0.74540   0.47250   0.01267  Uiso   1.00
N3     N     0.94490   0.19400   0.59210   0.01267  Uiso   1.00
N4     N     0.24130   0.86130   0.17440   0.01267  Uiso   1.00
N5     N     0.33310   0.21270   0.73790   0.01267  Uiso   1.00
N6     N     0.94600   0.43530   0.02200   0.01267  Uiso   1.00
N7     N     0.05400   0.56470   0.97800   0.01267  Uiso   1.00
N8     N     0.60020   0.35600   0.54970   0.01267  Uiso   1.00
N9     N     0.97000   0.62240   0.09510   0.01267  Uiso   1.00
N10    N     0.03000   0.37760   0.90490   0.01267  Uiso   1.00
N11    N     0.23920   0.79140   0.27640   0.01267  Uiso   1.00
N12    N     0.83040   0.57220   0.07840   0.01267  Uiso   1.00
N13    N     0.25710   0.21910   0.98260   0.01267  Uiso   1.00
N14    N     0.88290   0.72750   0.81020   0.01267  Uiso   1.00
N15    N     0.79340   0.63010   0.41560   0.01267  Uiso   1.00
N16    N     0.03400   0.41080   0.75300   0.01267  Uiso   1.00
N17    N     0.60180   0.58830   0.47230   0.01267  Uiso   1.00
N18    N     0.45010   0.22900   0.58290   0.01267  Uiso   1.00
N19    N     0.05510   0.80600   0.40790   0.01267  Uiso   1.00
N20    N     0.74290   0.78090   0.01740   0.01267  Uiso   1.00
N21    N     0.19840   0.66970   0.39150   0.01267  Uiso   1.00
N22    N     0.59840   0.03570   0.51320   0.01267  Uiso   1.00
N23    N     0.11710   0.27250   0.18980   0.01267  Uiso   1.00
N24    N     0.83770   0.89090   0.49150   0.01267  Uiso   1.00
N25    N     0.39340   0.83210   0.22080   0.01267  Uiso   1.00
N26    N     0.96600   0.58920   0.24700   0.01267  Uiso   1.00
N27    N     0.86870   0.99270   0.99980   0.01267  Uiso   1.00
N28    N     0.85810   0.25460   0.52750   0.01267  Uiso   1.00
N29    N     0.11400   0.62100   0.27310   0.01267  Uiso   1.00
N30    N     0.61840   0.71360   0.14630   0.01267  Uiso   1.00
N31    N     0.16960   0.42780   0.92160   0.01267  Uiso   1.00
N32    N     0.40160   0.96430   0.48680   0.01267  Uiso   1.00
N33    N     0.38160   0.28640   0.85370   0.01267  Uiso   1.00
N34    N     0.39820   0.41170   0.52770   0.01267  Uiso   1.00
N35    N     0.54990   0.77100   0.41710   0.01267  Uiso   1.00
N36    N     0.74520   0.94400   0.70010   0.01267  Uiso   1.00
N37    N     0.76080   0.20860   0.72360   0.01267  Uiso   1.00
N38    N     0.80160   0.33030   0.60850   0.01267  Uiso   1.00
N39    N     0.60660   0.16790   0.77920   0.01267  Uiso   1.00
N40    N     0.75870   0.13870   0.82560   0.01267  Uiso   1.00
N41    N     0.16230   0.10910   0.50850   0.01267  Uiso   1.00
N42    N     0.88600   0.37900   0.72690   0.01267  Uiso   1.00
N43    N     0.25480   0.05600   0.29990   0.01267  Uiso   1.00
N44    N     0.39980   0.64400   0.45030   0.01267  Uiso   1.00
N45    N     0.20660   0.36990   0.58440   0.01267  Uiso   1.00
N46    N     0.13130   0.00730   0.00020   0.01267  Uiso   1.00
O1     O     0.48080   0.47990   0.73373   0.01267  Uiso   1.00
O2     O     0.56690   0.39660   0.22956   0.01267  Uiso   1.00
O3     O     0.70710   0.07730   0.32680   0.01267  Uiso   1.00
O4     O     0.62360   0.42460   0.08060   0.01267  Uiso   1.00
O5     O     0.94600   0.13580   0.09850   0.01267  Uiso   1.00
O6     O     0.58590   0.13040   0.10668   0.01267  Uiso   1.00
O7     O     0.47870   0.69470   0.80790   0.01267  Uiso   1.00
O8     O     0.18780   0.92470   0.69150   0.01267  Uiso   1.00
O9     O     0.44180   0.48740   0.22022   0.01267  Uiso   1.00
O10    O     0.45720   0.92120   0.58610   0.01267  Uiso   1.00
O11    O     0.01810   0.13740   0.26460   0.01267  Uiso   1.00
O12    O     0.37000   0.12690   0.12180   0.01267  Uiso   1.00
O13    O     0.30710   0.26910   0.25850   0.01267  Uiso   1.00
O14    O     0.03980   0.83270   0.82601   0.01267  Uiso   1.00
O15    O     0.35580   0.62920   0.84080   0.01267  Uiso   1.00
O16    O     0.17320   0.77560   0.79156   0.01267  Uiso   1.00
O17    O     0.29290   0.92270   0.67320   0.01267  Uiso   1.00
O18    O     0.56360   0.95020   0.78390   0.01267  Uiso   1.00
O19    O     0.11610   0.21980   0.66440   0.01267  Uiso   1.00
O20    O     0.27440   0.39650   0.30800   0.01267  Uiso   1.00
O21    O     0.54640   0.74360   0.77667   0.01267  Uiso   1.00
O22    O     0.13530   0.90200   0.83630   0.01267  Uiso   1.00
O23    O     0.69290   0.73090   0.74150   0.01267  Uiso   1.00
O24    O     0.43850   0.66320   0.87913   0.01267  Uiso   1.00
O25    O     0.72920   0.39270   0.38380   0.01267  Uiso   1.00
O26    O     0.11210   0.23470   0.78570   0.01267  Uiso   1.00
O27    O     0.32090   0.40870   0.25240   0.01267  Uiso   1.00
O28    O     0.63980   0.80940   0.78670   0.01267  Uiso   1.00
O29    O     0.28220   0.89070   0.86385   0.01267  Uiso   1.00
O30    O     0.92790   0.25790   0.23440   0.01267  Uiso   1.00
O31    O     0.53180   0.50640   0.66530   0.01267  Uiso   1.00
O32    O     0.93670   0.93590   0.13160   0.01267  Uiso   1.00
O33    O     0.13880   0.92100   0.77497   0.01267  Uiso   1.00
O34    O     0.54290   0.13470   0.31710   0.01267  Uiso   1.00
O35    O     0.89150   0.89930   0.22955   0.01267  Uiso   1.00
O36    O     0.27630   0.47950   0.67090   0.01267  Uiso   1.00
O37    O     0.54920   0.98630   0.72730   0.01267  Uiso   1.00
O38    O     0.13960   0.84280   0.59830   0.01267  Uiso   1.00
O39    O     0.48350   0.74140   0.92560   0.01267  Uiso   1.00
O40    O     0.43440   0.02010   0.11680   0.01267  Uiso   1.00
O41    O     0.41960   0.32010   0.44850   0.01267  Uiso   1.00
O42    O     0.73860   0.43330   0.25857   0.01267  Uiso   1.00
O43    O     0.68970   0.04230   0.40290   0.01267  Uiso   1.00
O44    O     0.19880   0.57920   0.82080   0.01267  Uiso   1.00
O45    O     0.25210   0.05160   0.63030   0.01267  Uiso   1.00
O46    O     0.08780   0.94610   0.91900   0.01267  Uiso   1.00
O47    O     0.46610   0.16180   0.27820   0.01267  Uiso   1.00
O48    O     0.35640   0.00030   0.73210   0.01267  Uiso   1.00
O49    O     0.77560   0.00380   0.25775   0.01267  Uiso   1.00
O50    O     0.63470   0.94080   0.15940   0.01267  Uiso   1.00
O51    O     0.48860   0.15370   0.46200   0.01267  Uiso   1.00
O52    O     0.52880   0.06110   0.15600   0.01267  Uiso   1.00
O53    O     0.75210   0.14270   0.35419   0.01267  Uiso   1.00
O54    O     0.56560   0.97990   0.88320   0.01267  Uiso   1.00
O55    O     0.96020   0.16730   0.17399   0.01267  Uiso   1.00
O56    O     0.22440   0.99620   0.74225   0.01267  Uiso   1.00
O57    O     0.41410   0.86960   0.89332   0.01267  Uiso   1.00
O58    O     0.64360   0.99970   0.26790   0.01267  Uiso   1.00
O59    O     0.41680   0.37860   0.31858   0.01267  Uiso   1.00
O60    O     0.10850   0.10070   0.77045   0.01267  Uiso   1.00
O61    O     0.38900   0.97960   0.65619   0.01267  Uiso   1.00
O62    O     0.11570   0.98440   0.63540   0.01267  Uiso   1.00
O63    O     0.83390   0.73950   0.29860   0.01267  Uiso   1.00
O64    O     0.44190   0.64230   0.69121   0.01267  Uiso   1.00
O65    O     0.36420   0.59760   0.71110   0.01267  Uiso   1.00
O66    O     0.63440   0.18160   0.41470   0.01267  Uiso   1.00
O67    O     0.42960   0.00440   0.92250   0.01267  Uiso   1.00
O68    O     0.51140   0.84630   0.53800   0.01267  Uiso   1.00
O69    O     0.43310   0.60340   0.77044   0.01267  Uiso   1.00
O70    O     0.66220   0.21940   0.12800   0.01267  Uiso   1.00
O71    O     0.77530   0.17750   0.11700   0.01267  Uiso   1.00
O72    O     0.52130   0.30530   0.19210   0.01267  Uiso   1.00
O73    O     0.67600   0.94830   0.85750   0.01267  Uiso   1.00
O74    O     0.55260   0.51300   0.19090   0.01267  Uiso   1.00
O75    O     0.74790   0.94840   0.36970   0.01267  Uiso   1.00
O76    O     0.58040   0.67990   0.55150   0.01267  Uiso   1.00
O77    O     0.31030   0.95770   0.59710   0.01267  Uiso   1.00
O78    O     0.26140   0.56670   0.74143   0.01267  Uiso   1.00
O79    O     0.63580   0.40240   0.28890   0.01267  Uiso   1.00
O80    O     0.39230   0.34250   0.39190   0.01267  Uiso   1.00
O81    O     0.37070   0.42980   0.75000   0.01267  Uiso   1.00
O82    O     0.91220   0.05390   0.08100   0.01267  Uiso   1.00
O83    O     0.86120   0.07900   0.22503   0.01267  Uiso   1.00
O84    O     0.37340   0.49450   0.66110   0.01267  Uiso   1.00
O85    O     0.63000   0.87310   0.87820   0.01267  Uiso   1.00
O86    O     0.52620   0.57790   0.61990   0.01267  Uiso   1.00
O87    O     0.14530   0.16010   0.83110   0.01267  Uiso   1.00
O88    O     0.67340   0.99370   0.09020   0.01267  Uiso   1.00
O89    O     0.47350   0.35200   0.75980   0.01267  Uiso   1.00
O90    O     0.84800   0.19550   0.28950   0.01267  Uiso   1.00
O91    O     0.67080   0.02360   0.20946   0.01267  Uiso   1.00
O92    O     0.27080   0.60730   0.61620   0.01267  Uiso   1.00
O93    O     0.71470   0.87570   0.19190   0.01267  Uiso   1.00
O94    O     0.81220   0.07530   0.30850   0.01267  Uiso   1.00
O95    O     0.51920   0.52010   0.26627   0.01267  Uiso   1.00
O96    O     0.85470   0.83990   0.16890   0.01267  Uiso   1.00
O97    O     0.51650   0.25860   0.07440   0.01267  Uiso   1.00
O98    O     0.64030   0.48360   0.70710   0.01267  Uiso   1.00
O99    O     0.22560   0.12560   0.73864   0.01267  Uiso   1.00
O100   O     0.42080   0.84630   0.81812   0.01267  Uiso   1.00
O101   O     0.07210   0.74210   0.76560   0.01267  Uiso   1.00
O102   O     0.30620   0.50650   0.81930   0.01267  Uiso   1.00
O103   O     0.55820   0.51260   0.77978   0.01267  Uiso   1.00
O104   O     0.24790   0.85730   0.64581   0.01267  Uiso   1.00
O105   O     0.02410   0.95670   0.63970   0.01267  Uiso   1.00
O106   O     0.32400   0.05170   0.14250   0.01267  Uiso   1.00
O107   O     0.98190   0.86260   0.73540   0.01267  Uiso   1.00
O108   O     0.93610   0.06630   0.28463   0.01267  Uiso   1.00
O109   O     0.98720   0.95570   0.22180   0.01267  Uiso   1.00
O110   O     0.50560   0.21510   0.39194   0.01267  Uiso   1.00
O111   O     0.48390   0.24410   0.30734   0.01267  Uiso   1.00
O112   O     0.62480   0.38760   0.72110   0.01267  Uiso   1.00
O113   O     0.45360   0.25640   0.22333   0.01267  Uiso   1.00
O114   O     0.57040   0.99560   0.07750   0.01267  Uiso   1.00
O115   O     0.57480   0.67780   0.85930   0.01267  Uiso   1.00
O116   O     0.06390   0.93370   0.71537   0.01267  Uiso   1.00
O117   O     0.64470   0.34900   0.34069   0.01267  Uiso   1.00
O118   O     0.43380   0.07840   0.68540   0.01267  Uiso   1.00
O119   O     0.76140   0.97160   0.14456   0.01267  Uiso   1.00
O120   O     0.43640   0.04980   0.21610   0.01267  Uiso   1.00
O121   O     0.32660   0.00630   0.90980   0.01267  Uiso   1.00
O122   O     0.47380   0.42210   0.38010   0.01267  Uiso   1.00
O123   O     0.32560   0.11970   0.67340   0.01267  Uiso   1.00
O124   O     0.57920   0.15370   0.18188   0.01267  Uiso   1.00
O125   O     0.98800   0.95080   0.79090   0.01267  Uiso   1.00
O126   O     0.47310   0.52110   0.88000   0.01267  Uiso   1.00
O127   O     0.28530   0.12430   0.80810   0.01267  Uiso   1.00
O128   O     0.99390   0.82300   0.27950   0.01267  Uiso   1.00
O129   O     0.84520   0.91820   0.30631   0.01267  Uiso   1.00
O130   O     0.60770   0.65750   0.60810   0.01267  Uiso   1.00
O131   O     0.11260   0.08060   0.91400   0.01267  Uiso   1.00
O132   O     0.51610   0.75590   0.69266   0.01267  Uiso   1.00
O133   O     0.80120   0.42080   0.17920   0.01267  Uiso   1.00
O134   O     0.77870   0.25850   0.33700   0.01267  Uiso   1.00
O135   O     0.56620   0.92160   0.31460   0.01267  Uiso   1.00
O136   O     0.52650   0.64800   0.24020   0.01267  Uiso   1.00
O137   O     0.01200   0.04920   0.20910   0.01267  Uiso   1.00
O138   O     0.41500   0.42530   0.15860   0.01267  Uiso   1.00
O139   O     0.72560   0.60350   0.69200   0.01267  Uiso   1.00
O140   O     0.15480   0.08180   0.69369   0.01267  Uiso   1.00
O141   O     0.46820   0.49360   0.33470   0.01267  Uiso   1.00
O142   O     0.64420   0.37080   0.15920   0.01267  Uiso   1.00
O143   O     0.45710   0.86530   0.68290   0.01267  Uiso   1.00
O144   O     0.22470   0.82250   0.88300   0.01267  Uiso   1.00
O145   O     0.45080   0.01370   0.27270   0.01267  Uiso   1.00
O146   O     0.17500   0.97840   0.81480   0.01267  Uiso   1.00
O147   O     0.77440   0.87440   0.26136   0.01267  Uiso   1.00
O148   O     0.13900   0.73010   0.90960   0.01267  Uiso   1.00
O149   O     0.38780   0.77530   0.65812   0.01267  Uiso   1.00
O150   O     0.45860   0.18740   0.14921   0.01267  Uiso   1.00
O151   O     0.01280   0.04430   0.77820   0.01267  Uiso   1.00
O152   O     0.54140   0.81260   0.85079   0.01267  Uiso   1.00
O153   O     0.12540   0.59400   0.75910   0.01267  Uiso   1.00
O154   O     0.36560   0.81840   0.58530   0.01267  Uiso   1.00
O155   O     0.00610   0.17700   0.72050   0.01267  Uiso   1.00
O156   O     0.75100   0.29920   0.14990   0.01267  Uiso   1.00
O157   O     0.86100   0.26990   0.09040   0.01267  Uiso   1.00
O158   O     0.02490   0.63640   0.79540   0.01267  Uiso   1.00
O159   O     0.23050   0.66110   0.92940   0.01267  Uiso   1.00
O160   O     0.44050   0.69030   0.59493   0.01267  Uiso   1.00
O161   O     0.58320   0.62140   0.68142   0.01267  Uiso   1.00
O162   O     0.16610   0.26050   0.70140   0.01267  Uiso   1.00
O163   O     0.33780   0.78060   0.87200   0.01267  Uiso   1.00
O164   O     0.69380   0.49350   0.18070   0.01267  Uiso   1.00
O165   O     0.22130   0.74150   0.66300   0.01267  Uiso   1.00
O166   O     0.98540   0.92750   0.29680   0.01267  Uiso   1.00
O167   O     0.56150   0.33680   0.12087   0.01267  Uiso   1.00
O168   O     0.06330   0.06410   0.86840   0.01267  Uiso   1.00
O169   O     0.15200   0.80450   0.71050   0.01267  Uiso   1.00
O170   O     0.23860   0.02840   0.85544   0.01267  Uiso   1.00
O171   O     0.70910   0.35460   0.20457   0.01267  Uiso   1.00
O172   O     0.37640   0.57540   0.91940   0.01267  Uiso   1.00
O173   O     0.42520   0.32220   0.14070   0.01267  Uiso   1.00
O174   O     0.33960   0.64680   0.58060   0.01267  Uiso   1.00
O175   O     0.88390   0.78020   0.33560   0.01267  Uiso   1.00
O176   O     0.88790   0.76530   0.21430   0.01267  Uiso   1.00
O177   O     0.72370   0.52050   0.32910   0.01267  Uiso   1.00
O178   O     0.52690   0.47890   0.12000   0.01267  Uiso   1.00
O179   O     0.55810   0.35770   0.30879   0.01267  Uiso   1.00
O180   O     0.35970   0.51640   0.29290   0.01267  Uiso   1.00
O181   O     0.76950   0.33890   0.07060   0.01267  Uiso   1.00
O182   O     0.67440   0.88030   0.32660   0.01267  Uiso   1.00
O183   O     0.29090   0.64540   0.79543   0.01267  Uiso   1.00
O184   O     0.67910   0.59130   0.74760   0.01267  Uiso   1.00
O185   O     0.58500   0.57470   0.84140   0.01267  Uiso   1.00
O186   O     0.46290   0.34360   0.24780   0.01267  Uiso   1.00
O187   O     0.01460   0.07250   0.70320   0.01267  Uiso   1.00
O188   O     0.05400   0.86420   0.90150   0.01267  Uiso   1.00
O189   O     0.88430   0.01560   0.36460   0.01267  Uiso   1.00
O190   O     0.36020   0.19060   0.21330   0.01267  Uiso   1.00
O191   O     0.61220   0.22470   0.34188   0.01267  Uiso   1.00
O192   O     0.55950   0.30970   0.40507   0.01267  Uiso   1.00
O193   O     0.78500   0.30540   0.28361   0.01267  Uiso   1.00
O194   O     0.53710   0.65640   0.75220   0.01267  Uiso   1.00
O195   O     0.86470   0.09800   0.16370   0.01267  Uiso   1.00
O196   O     0.35530   0.65100   0.65931   0.01267  Uiso   1.00
O197   O     0.24920   0.77920   0.57850   0.01267  Uiso   1.00
O198   O     0.97510   0.36360   0.20460   0.01267  Uiso   1.00
O199   O     0.97590   0.04330   0.36030   0.01267  Uiso   1.00
O200   O     0.75080   0.22080   0.42150   0.01267  Uiso   1.00
O201   O     0.56150   0.05460   0.23606   0.01267  Uiso   1.00
O202   O     0.89260   0.29610   0.16380   0.01267  Uiso   1.00
O203   O     0.37520   0.61240   0.27890   0.01267  Uiso   1.00
O204   O     0.87460   0.40600   0.24090   0.01267  Uiso   1.00
O205   O     0.66040   0.35320   0.41940   0.01267  Uiso   1.00
O206   O     0.71780   0.10930   0.13615   0.01267  Uiso   1.00
O207   O     0.24900   0.70080   0.85010   0.01267  Uiso   1.00
O208   O     0.07560   0.16980   0.21700   0.01267  Uiso   1.00
O209   O     0.44460   0.20500   0.07190   0.01267  Uiso   1.00
O210   O     0.53390   0.83820   0.72180   0.01267  Uiso   1.00
O211   O     0.36530   0.05920   0.84060   0.01267  Uiso   1.00
O212   O     0.82500   0.02160   0.18520   0.01267  Uiso   1.00
O213   O     0.86040   0.15720   0.40170   0.01267  Uiso   1.00
O214   O     0.62660   0.50550   0.33890   0.01267  Uiso   1.00
O215   O     0.44740   0.48700   0.80910   0.01267  Uiso   1.00
O216   O     0.47120   0.93890   0.84400   0.01267  Uiso   1.00
O217   O     0.10740   0.70390   0.83620   0.01267  Uiso   1.00
O218   O     0.32920   0.97640   0.79054   0.01267  Uiso   1.00
O219   O     0.62930   0.57020   0.25000   0.01267  Uiso   1.00
O220   O     0.92440   0.83020   0.78300   0.01267  Uiso   1.00
O221   O     0.55540   0.79500   0.92810   0.01267  Uiso   1.00
O222   O     0.88740   0.91940   0.08600   0.01267  Uiso   1.00
O223   O     0.82680   0.22440   0.20844   0.01267  Uiso   1.00
O224   O     0.43850   0.94540   0.76394   0.01267  Uiso   1.00
O225   O     0.49440   0.78490   0.60806   0.01267  Uiso   1.00
O226   O     0.54280   0.07880   0.41390   0.01267  Uiso   1.00
O227   O     0.21500   0.69460   0.71639   0.01267  Uiso   1.00
O228   O     0.61100   0.02040   0.34381   0.01267  Uiso   1.00
