data_image0
_cell_length_a       35.7316
_cell_length_b       35.7316
_cell_length_c       35.7316
_cell_angle_alpha    90
_cell_angle_beta     90
_cell_angle_gamma    90

_symmetry_space_group_name_H-M    "P 1"
_symmetry_int_tables_number       1

loop_
  _symmetry_equiv_pos_as_xyz
  'x, y, z'

loop_
  _atom_site_label
  _atom_site_occupancy
  _atom_site_fract_x
  _atom_site_fract_y
  _atom_site_fract_z
  _atom_site_thermal_displace_type
  _atom_site_B_iso_or_equiv
  _atom_site_type_symbol
  O1       1.0000 0.19802  0.28716  0.20682  Biso   1.000  O
  O2       1.0000 0.17327  0.25166  0.25216  Biso   1.000  O
  C1       1.0000 0.17181  0.26846  0.22095  Biso   1.000  C
  C2       1.0000 0.13607  0.26501  0.20005  Biso   1.000  C
  C3       1.0000 0.13341  0.28139  0.16499  Biso   1.000  C
  H1       1.0000 0.15350  0.29470  0.15510  Biso   1.000  H
  C4       1.0000 0.10616  0.24705  0.21463  Biso   1.000  C
  H2       1.0000 0.10810  0.23640  0.23830  Biso   1.000  H
  C5       1.0000 0.07266  0.24411  0.19524  Biso   1.000  C
  H3       1.0000 0.05240  0.23170  0.20590  Biso   1.000  H
  C6       1.0000 0.10056  0.27763  0.14482  Biso   1.000  C
  H4       1.0000 0.09920  0.28730  0.12070  Biso   1.000  H
  C7       1.0000 0.06939  0.25971  0.16001  Biso   1.000  C
  C8       1.0000 0.03399  0.25660  0.13894  Biso   1.000  C
  C9       1.0000 0.03380  0.25540  0.10036  Biso   1.000  C
  H5       1.0000 0.05630  0.25510  0.08730  Biso   1.000  H
  C10      1.0000 0.01910  0.21940  0.02090  Biso   1.000  C
  C11      1.0000 0.03530  0.18710  0.03810  Biso   1.000  C
  H6       1.0000 0.04120  0.19000  0.06330  Biso   1.000  H
  C12      1.0000 0.04450  0.14900  0.02180  Biso   1.000  C
  H7       1.0000 0.04950  0.12790  0.03630  Biso   1.000  H
  C13      1.0000 0.02090  0.26440  0.02140  Biso   1.000  C
  H8       1.0000 0.04030  0.27740  0.03310  Biso   1.000  H
  O3       1.0000 0.80198  0.71284  0.20682  Biso   1.000  O
  O4       1.0000 0.82673  0.74834  0.25216  Biso   1.000  O
  C14      1.0000 0.82819  0.73154  0.22095  Biso   1.000  C
  C15      1.0000 0.86393  0.73499  0.20005  Biso   1.000  C
  C16      1.0000 0.86659  0.71861  0.16499  Biso   1.000  C
  H9       1.0000 0.84650  0.70530  0.15510  Biso   1.000  H
  C17      1.0000 0.89384  0.75295  0.21463  Biso   1.000  C
  H10      1.0000 0.89190  0.76360  0.23830  Biso   1.000  H
  C18      1.0000 0.92734  0.75589  0.19524  Biso   1.000  C
  H11      1.0000 0.94760  0.76830  0.20590  Biso   1.000  H
  C19      1.0000 0.89944  0.72237  0.14482  Biso   1.000  C
  H12      1.0000 0.90080  0.71270  0.12070  Biso   1.000  H
  C20      1.0000 0.93061  0.74029  0.16001  Biso   1.000  C
  C21      1.0000 0.96601  0.74340  0.13894  Biso   1.000  C
  C22      1.0000 0.96620  0.74460  0.10036  Biso   1.000  C
  H13      1.0000 0.94370  0.74490  0.08730  Biso   1.000  H
  C23      1.0000 0.98090  0.78060  0.02090  Biso   1.000  C
  C24      1.0000 0.96470  0.81290  0.03810  Biso   1.000  C
  H14      1.0000 0.95880  0.81000  0.06330  Biso   1.000  H
  C25      1.0000 0.95550  0.85100  0.02180  Biso   1.000  C
  H15      1.0000 0.95050  0.87210  0.03630  Biso   1.000  H
  C26      1.0000 0.97910  0.73560  0.02140  Biso   1.000  C
  H16      1.0000 0.95970  0.72260  0.03310  Biso   1.000  H
  O5       1.0000 0.80198  0.28716  0.79318  Biso   1.000  O
  O6       1.0000 0.82673  0.25166  0.74784  Biso   1.000  O
  C27      1.0000 0.82819  0.26846  0.77905  Biso   1.000  C
  C28      1.0000 0.86393  0.26501  0.79995  Biso   1.000  C
  C29      1.0000 0.86659  0.28139  0.83501  Biso   1.000  C
  H17      1.0000 0.84650  0.29470  0.84490  Biso   1.000  H
  C30      1.0000 0.89384  0.24705  0.78537  Biso   1.000  C
  H18      1.0000 0.89190  0.23640  0.76170  Biso   1.000  H
  C31      1.0000 0.92734  0.24411  0.80476  Biso   1.000  C
  H19      1.0000 0.94760  0.23170  0.79410  Biso   1.000  H
  C32      1.0000 0.89944  0.27763  0.85518  Biso   1.000  C
  H20      1.0000 0.90080  0.28730  0.87930  Biso   1.000  H
  C33      1.0000 0.93061  0.25971  0.83999  Biso   1.000  C
  C34      1.0000 0.96601  0.25660  0.86106  Biso   1.000  C
  C35      1.0000 0.96620  0.25540  0.89964  Biso   1.000  C
  H21      1.0000 0.94370  0.25510  0.91270  Biso   1.000  H
  C36      1.0000 0.98090  0.21940  0.97910  Biso   1.000  C
  C37      1.0000 0.96470  0.18710  0.96190  Biso   1.000  C
  H22      1.0000 0.95880  0.19000  0.93670  Biso   1.000  H
  C38      1.0000 0.95550  0.14900  0.97820  Biso   1.000  C
  H23      1.0000 0.95050  0.12790  0.96370  Biso   1.000  H
  C39      1.0000 0.97910  0.26440  0.97860  Biso   1.000  C
  H24      1.0000 0.95970  0.27740  0.96690  Biso   1.000  H
  O7       1.0000 0.19802  0.71284  0.79318  Biso   1.000  O
  O8       1.0000 0.17327  0.74834  0.74784  Biso   1.000  O
  C40      1.0000 0.17181  0.73154  0.77905  Biso   1.000  C
  C41      1.0000 0.13607  0.73499  0.79995  Biso   1.000  C
  C42      1.0000 0.13341  0.71861  0.83501  Biso   1.000  C
  H25      1.0000 0.15350  0.70530  0.84490  Biso   1.000  H
  C43      1.0000 0.10616  0.75295  0.78537  Biso   1.000  C
  H26      1.0000 0.10810  0.76360  0.76170  Biso   1.000  H
  C44      1.0000 0.07266  0.75589  0.80476  Biso   1.000  C
  H27      1.0000 0.05240  0.76830  0.79410  Biso   1.000  H
  C45      1.0000 0.10056  0.72237  0.85518  Biso   1.000  C
  H28      1.0000 0.09920  0.71270  0.87930  Biso   1.000  H
  C46      1.0000 0.06939  0.74029  0.83999  Biso   1.000  C
  C47      1.0000 0.03399  0.74340  0.86106  Biso   1.000  C
  C48      1.0000 0.03380  0.74460  0.89964  Biso   1.000  C
  H29      1.0000 0.05630  0.74490  0.91270  Biso   1.000  H
  C49      1.0000 0.01910  0.78060  0.97910  Biso   1.000  C
  C50      1.0000 0.03530  0.81290  0.96190  Biso   1.000  C
  H30      1.0000 0.04120  0.81000  0.93670  Biso   1.000  H
  C51      1.0000 0.04450  0.85100  0.97820  Biso   1.000  C
  H31      1.0000 0.04950  0.87210  0.96370  Biso   1.000  H
  C52      1.0000 0.02090  0.73560  0.97860  Biso   1.000  C
  H32      1.0000 0.04030  0.72260  0.96690  Biso   1.000  H
  O9       1.0000 0.20682  0.19802  0.28716  Biso   1.000  O
  O10      1.0000 0.25216  0.17327  0.25166  Biso   1.000  O
  C53      1.0000 0.22095  0.17181  0.26846  Biso   1.000  C
  C54      1.0000 0.20005  0.13607  0.26501  Biso   1.000  C
  C55      1.0000 0.16499  0.13341  0.28139  Biso   1.000  C
  H33      1.0000 0.15510  0.15350  0.29470  Biso   1.000  H
  C56      1.0000 0.21463  0.10616  0.24705  Biso   1.000  C
  H34      1.0000 0.23830  0.10810  0.23640  Biso   1.000  H
  C57      1.0000 0.19524  0.07266  0.24411  Biso   1.000  C
  H35      1.0000 0.20590  0.05240  0.23170  Biso   1.000  H
  C58      1.0000 0.14482  0.10056  0.27763  Biso   1.000  C
  H36      1.0000 0.12070  0.09920  0.28730  Biso   1.000  H
  C59      1.0000 0.16001  0.06939  0.25971  Biso   1.000  C
  C60      1.0000 0.13894  0.03399  0.25660  Biso   1.000  C
  C61      1.0000 0.10036  0.03380  0.25540  Biso   1.000  C
  H37      1.0000 0.08730  0.05630  0.25510  Biso   1.000  H
  C62      1.0000 0.02090  0.01910  0.21940  Biso   1.000  C
  C63      1.0000 0.03810  0.03530  0.18710  Biso   1.000  C
  H38      1.0000 0.06330  0.04120  0.19000  Biso   1.000  H
  C64      1.0000 0.02180  0.04450  0.14900  Biso   1.000  C
  H39      1.0000 0.03630  0.04950  0.12790  Biso   1.000  H
  C65      1.0000 0.02140  0.02090  0.26440  Biso   1.000  C
  H40      1.0000 0.03310  0.04030  0.27740  Biso   1.000  H
  O11      1.0000 0.20682  0.80198  0.71284  Biso   1.000  O
  O12      1.0000 0.25216  0.82673  0.74834  Biso   1.000  O
  C66      1.0000 0.22095  0.82819  0.73154  Biso   1.000  C
  C67      1.0000 0.20005  0.86393  0.73499  Biso   1.000  C
  C68      1.0000 0.16499  0.86659  0.71861  Biso   1.000  C
  H41      1.0000 0.15510  0.84650  0.70530  Biso   1.000  H
  C69      1.0000 0.21463  0.89384  0.75295  Biso   1.000  C
  H42      1.0000 0.23830  0.89190  0.76360  Biso   1.000  H
  C70      1.0000 0.19524  0.92734  0.75589  Biso   1.000  C
  H43      1.0000 0.20590  0.94760  0.76830  Biso   1.000  H
  C71      1.0000 0.14482  0.89944  0.72237  Biso   1.000  C
  H44      1.0000 0.12070  0.90080  0.71270  Biso   1.000  H
  C72      1.0000 0.16001  0.93061  0.74029  Biso   1.000  C
  C73      1.0000 0.13894  0.96601  0.74340  Biso   1.000  C
  C74      1.0000 0.10036  0.96620  0.74460  Biso   1.000  C
  H45      1.0000 0.08730  0.94370  0.74490  Biso   1.000  H
  C75      1.0000 0.02090  0.98090  0.78060  Biso   1.000  C
  C76      1.0000 0.03810  0.96470  0.81290  Biso   1.000  C
  H46      1.0000 0.06330  0.95880  0.81000  Biso   1.000  H
  C77      1.0000 0.02180  0.95550  0.85100  Biso   1.000  C
  H47      1.0000 0.03630  0.95050  0.87210  Biso   1.000  H
  C78      1.0000 0.02140  0.97910  0.73560  Biso   1.000  C
  H48      1.0000 0.03310  0.95970  0.72260  Biso   1.000  H
  O13      1.0000 0.79318  0.80198  0.28716  Biso   1.000  O
  O14      1.0000 0.74784  0.82673  0.25166  Biso   1.000  O
  C79      1.0000 0.77905  0.82819  0.26846  Biso   1.000  C
  C80      1.0000 0.79995  0.86393  0.26501  Biso   1.000  C
  C81      1.0000 0.83501  0.86659  0.28139  Biso   1.000  C
  H49      1.0000 0.84490  0.84650  0.29470  Biso   1.000  H
  C82      1.0000 0.78537  0.89384  0.24705  Biso   1.000  C
  H50      1.0000 0.76170  0.89190  0.23640  Biso   1.000  H
  C83      1.0000 0.80476  0.92734  0.24411  Biso   1.000  C
  H51      1.0000 0.79410  0.94760  0.23170  Biso   1.000  H
  C84      1.0000 0.85518  0.89944  0.27763  Biso   1.000  C
  H52      1.0000 0.87930  0.90080  0.28730  Biso   1.000  H
  C85      1.0000 0.83999  0.93061  0.25971  Biso   1.000  C
  C86      1.0000 0.86106  0.96601  0.25660  Biso   1.000  C
  C87      1.0000 0.89964  0.96620  0.25540  Biso   1.000  C
  H53      1.0000 0.91270  0.94370  0.25510  Biso   1.000  H
  C88      1.0000 0.97910  0.98090  0.21940  Biso   1.000  C
  C89      1.0000 0.96190  0.96470  0.18710  Biso   1.000  C
  H54      1.0000 0.93670  0.95880  0.19000  Biso   1.000  H
  C90      1.0000 0.97820  0.95550  0.14900  Biso   1.000  C
  H55      1.0000 0.96370  0.95050  0.12790  Biso   1.000  H
  C91      1.0000 0.97860  0.97910  0.26440  Biso   1.000  C
  H56      1.0000 0.96690  0.95970  0.27740  Biso   1.000  H
  O15      1.0000 0.79318  0.19802  0.71284  Biso   1.000  O
  O16      1.0000 0.74784  0.17327  0.74834  Biso   1.000  O
  C92      1.0000 0.77905  0.17181  0.73154  Biso   1.000  C
  C93      1.0000 0.79995  0.13607  0.73499  Biso   1.000  C
  C94      1.0000 0.83501  0.13341  0.71861  Biso   1.000  C
  H57      1.0000 0.84490  0.15350  0.70530  Biso   1.000  H
  C95      1.0000 0.78537  0.10616  0.75295  Biso   1.000  C
  H58      1.0000 0.76170  0.10810  0.76360  Biso   1.000  H
  C96      1.0000 0.80476  0.07266  0.75589  Biso   1.000  C
  H59      1.0000 0.79410  0.05240  0.76830  Biso   1.000  H
  C97      1.0000 0.85518  0.10056  0.72237  Biso   1.000  C
  H60      1.0000 0.87930  0.09920  0.71270  Biso   1.000  H
  C98      1.0000 0.83999  0.06939  0.74029  Biso   1.000  C
  C99      1.0000 0.86106  0.03399  0.74340  Biso   1.000  C
  C100     1.0000 0.89964  0.03380  0.74460  Biso   1.000  C
  H61      1.0000 0.91270  0.05630  0.74490  Biso   1.000  H
  C101     1.0000 0.97910  0.01910  0.78060  Biso   1.000  C
  C102     1.0000 0.96190  0.03530  0.81290  Biso   1.000  C
  H62      1.0000 0.93670  0.04120  0.81000  Biso   1.000  H
  C103     1.0000 0.97820  0.04450  0.85100  Biso   1.000  C
  H63      1.0000 0.96370  0.04950  0.87210  Biso   1.000  H
  C104     1.0000 0.97860  0.02090  0.73560  Biso   1.000  C
  H64      1.0000 0.96690  0.04030  0.72260  Biso   1.000  H
  O17      1.0000 0.28716  0.20682  0.19802  Biso   1.000  O
  O18      1.0000 0.25166  0.25216  0.17327  Biso   1.000  O
  C105     1.0000 0.26846  0.22095  0.17181  Biso   1.000  C
  C106     1.0000 0.26501  0.20005  0.13607  Biso   1.000  C
  C107     1.0000 0.28139  0.16499  0.13341  Biso   1.000  C
  H65      1.0000 0.29470  0.15510  0.15350  Biso   1.000  H
  C108     1.0000 0.24705  0.21463  0.10616  Biso   1.000  C
  H66      1.0000 0.23640  0.23830  0.10810  Biso   1.000  H
  C109     1.0000 0.24411  0.19524  0.07266  Biso   1.000  C
  H67      1.0000 0.23170  0.20590  0.05240  Biso   1.000  H
  C110     1.0000 0.27763  0.14482  0.10056  Biso   1.000  C
  H68      1.0000 0.28730  0.12070  0.09920  Biso   1.000  H
  C111     1.0000 0.25971  0.16001  0.06939  Biso   1.000  C
  C112     1.0000 0.25660  0.13894  0.03399  Biso   1.000  C
  C113     1.0000 0.25540  0.10036  0.03380  Biso   1.000  C
  H69      1.0000 0.25510  0.08730  0.05630  Biso   1.000  H
  C114     1.0000 0.21940  0.02090  0.01910  Biso   1.000  C
  C115     1.0000 0.18710  0.03810  0.03530  Biso   1.000  C
  H70      1.0000 0.19000  0.06330  0.04120  Biso   1.000  H
  C116     1.0000 0.14900  0.02180  0.04450  Biso   1.000  C
  H71      1.0000 0.12790  0.03630  0.04950  Biso   1.000  H
  C117     1.0000 0.26440  0.02140  0.02090  Biso   1.000  C
  H72      1.0000 0.27740  0.03310  0.04030  Biso   1.000  H
  O19      1.0000 0.71284  0.20682  0.80198  Biso   1.000  O
  O20      1.0000 0.74834  0.25216  0.82673  Biso   1.000  O
  C118     1.0000 0.73154  0.22095  0.82819  Biso   1.000  C
  C119     1.0000 0.73499  0.20005  0.86393  Biso   1.000  C
  C120     1.0000 0.71861  0.16499  0.86659  Biso   1.000  C
  H73      1.0000 0.70530  0.15510  0.84650  Biso   1.000  H
  C121     1.0000 0.75295  0.21463  0.89384  Biso   1.000  C
  H74      1.0000 0.76360  0.23830  0.89190  Biso   1.000  H
  C122     1.0000 0.75589  0.19524  0.92734  Biso   1.000  C
  H75      1.0000 0.76830  0.20590  0.94760  Biso   1.000  H
  C123     1.0000 0.72237  0.14482  0.89944  Biso   1.000  C
  H76      1.0000 0.71270  0.12070  0.90080  Biso   1.000  H
  C124     1.0000 0.74029  0.16001  0.93061  Biso   1.000  C
  C125     1.0000 0.74340  0.13894  0.96601  Biso   1.000  C
  C126     1.0000 0.74460  0.10036  0.96620  Biso   1.000  C
  H77      1.0000 0.74490  0.08730  0.94370  Biso   1.000  H
  C127     1.0000 0.78060  0.02090  0.98090  Biso   1.000  C
  C128     1.0000 0.81290  0.03810  0.96470  Biso   1.000  C
  H78      1.0000 0.81000  0.06330  0.95880  Biso   1.000  H
  C129     1.0000 0.85100  0.02180  0.95550  Biso   1.000  C
  H79      1.0000 0.87210  0.03630  0.95050  Biso   1.000  H
  C130     1.0000 0.73560  0.02140  0.97910  Biso   1.000  C
  H80      1.0000 0.72260  0.03310  0.95970  Biso   1.000  H
  O21      1.0000 0.28716  0.79318  0.80198  Biso   1.000  O
  O22      1.0000 0.25166  0.74784  0.82673  Biso   1.000  O
  C131     1.0000 0.26846  0.77905  0.82819  Biso   1.000  C
  C132     1.0000 0.26501  0.79995  0.86393  Biso   1.000  C
  C133     1.0000 0.28139  0.83501  0.86659  Biso   1.000  C
  H81      1.0000 0.29470  0.84490  0.84650  Biso   1.000  H
  C134     1.0000 0.24705  0.78537  0.89384  Biso   1.000  C
  H82      1.0000 0.23640  0.76170  0.89190  Biso   1.000  H
  C135     1.0000 0.24411  0.80476  0.92734  Biso   1.000  C
  H83      1.0000 0.23170  0.79410  0.94760  Biso   1.000  H
  C136     1.0000 0.27763  0.85518  0.89944  Biso   1.000  C
  H84      1.0000 0.28730  0.87930  0.90080  Biso   1.000  H
  C137     1.0000 0.25971  0.83999  0.93061  Biso   1.000  C
  C138     1.0000 0.25660  0.86106  0.96601  Biso   1.000  C
  C139     1.0000 0.25540  0.89964  0.96620  Biso   1.000  C
  H85      1.0000 0.25510  0.91270  0.94370  Biso   1.000  H
  C140     1.0000 0.21940  0.97910  0.98090  Biso   1.000  C
  C141     1.0000 0.18710  0.96190  0.96470  Biso   1.000  C
  H86      1.0000 0.19000  0.93670  0.95880  Biso   1.000  H
  C142     1.0000 0.14900  0.97820  0.95550  Biso   1.000  C
  H87      1.0000 0.12790  0.96370  0.95050  Biso   1.000  H
  C143     1.0000 0.26440  0.97860  0.97910  Biso   1.000  C
  H88      1.0000 0.27740  0.96690  0.95970  Biso   1.000  H
  O23      1.0000 0.71284  0.79318  0.19802  Biso   1.000  O
  O24      1.0000 0.74834  0.74784  0.17327  Biso   1.000  O
  C144     1.0000 0.73154  0.77905  0.17181  Biso   1.000  C
  C145     1.0000 0.73499  0.79995  0.13607  Biso   1.000  C
  C146     1.0000 0.71861  0.83501  0.13341  Biso   1.000  C
  H89      1.0000 0.70530  0.84490  0.15350  Biso   1.000  H
  C147     1.0000 0.75295  0.78537  0.10616  Biso   1.000  C
  H90      1.0000 0.76360  0.76170  0.10810  Biso   1.000  H
  C148     1.0000 0.75589  0.80476  0.07266  Biso   1.000  C
  H91      1.0000 0.76830  0.79410  0.05240  Biso   1.000  H
  C149     1.0000 0.72237  0.85518  0.10056  Biso   1.000  C
  H92      1.0000 0.71270  0.87930  0.09920  Biso   1.000  H
  C150     1.0000 0.74029  0.83999  0.06939  Biso   1.000  C
  C151     1.0000 0.74340  0.86106  0.03399  Biso   1.000  C
  C152     1.0000 0.74460  0.89964  0.03380  Biso   1.000  C
  H93      1.0000 0.74490  0.91270  0.05630  Biso   1.000  H
  C153     1.0000 0.78060  0.97910  0.01910  Biso   1.000  C
  C154     1.0000 0.81290  0.96190  0.03530  Biso   1.000  C
  H94      1.0000 0.81000  0.93670  0.04120  Biso   1.000  H
  C155     1.0000 0.85100  0.97820  0.04450  Biso   1.000  C
  H95      1.0000 0.87210  0.96370  0.04950  Biso   1.000  H
  C156     1.0000 0.73560  0.97860  0.02090  Biso   1.000  C
  H96      1.0000 0.72260  0.96690  0.04030  Biso   1.000  H
  O25      1.0000 0.78716  0.69802  0.29318  Biso   1.000  O
  O26      1.0000 0.75166  0.67327  0.24784  Biso   1.000  O
  C157     1.0000 0.76846  0.67181  0.27905  Biso   1.000  C
  C158     1.0000 0.76501  0.63607  0.29995  Biso   1.000  C
  C159     1.0000 0.78139  0.63341  0.33501  Biso   1.000  C
  H97      1.0000 0.79470  0.65350  0.34490  Biso   1.000  H
  C160     1.0000 0.74705  0.60616  0.28537  Biso   1.000  C
  H98      1.0000 0.73640  0.60810  0.26170  Biso   1.000  H
  C161     1.0000 0.74411  0.57266  0.30476  Biso   1.000  C
  H99      1.0000 0.73170  0.55240  0.29410  Biso   1.000  H
  C162     1.0000 0.77763  0.60056  0.35518  Biso   1.000  C
  H100     1.0000 0.78730  0.59920  0.37930  Biso   1.000  H
  C163     1.0000 0.75971  0.56939  0.33999  Biso   1.000  C
  C164     1.0000 0.75660  0.53399  0.36106  Biso   1.000  C
  C165     1.0000 0.75540  0.53380  0.39964  Biso   1.000  C
  H101     1.0000 0.75510  0.55630  0.41270  Biso   1.000  H
  C166     1.0000 0.71940  0.51910  0.47910  Biso   1.000  C
  C167     1.0000 0.68710  0.53530  0.46190  Biso   1.000  C
  H102     1.0000 0.69000  0.54120  0.43670  Biso   1.000  H
  C168     1.0000 0.64900  0.54450  0.47820  Biso   1.000  C
  H103     1.0000 0.62790  0.54950  0.46370  Biso   1.000  H
  C169     1.0000 0.76440  0.52090  0.47860  Biso   1.000  C
  H104     1.0000 0.77740  0.54030  0.46690  Biso   1.000  H
  O27      1.0000 0.21284  0.30198  0.29318  Biso   1.000  O
  O28      1.0000 0.24834  0.32673  0.24784  Biso   1.000  O
  C170     1.0000 0.23154  0.32819  0.27905  Biso   1.000  C
  C171     1.0000 0.23499  0.36393  0.29995  Biso   1.000  C
  C172     1.0000 0.21861  0.36659  0.33501  Biso   1.000  C
  H105     1.0000 0.20530  0.34650  0.34490  Biso   1.000  H
  C173     1.0000 0.25295  0.39384  0.28537  Biso   1.000  C
  H106     1.0000 0.26360  0.39190  0.26170  Biso   1.000  H
  C174     1.0000 0.25589  0.42734  0.30476  Biso   1.000  C
  H107     1.0000 0.26830  0.44760  0.29410  Biso   1.000  H
  C175     1.0000 0.22237  0.39944  0.35518  Biso   1.000  C
  H108     1.0000 0.21270  0.40080  0.37930  Biso   1.000  H
  C176     1.0000 0.24029  0.43061  0.33999  Biso   1.000  C
  C177     1.0000 0.24340  0.46601  0.36106  Biso   1.000  C
  C178     1.0000 0.24460  0.46620  0.39964  Biso   1.000  C
  H109     1.0000 0.24490  0.44370  0.41270  Biso   1.000  H
  C179     1.0000 0.28060  0.48090  0.47910  Biso   1.000  C
  C180     1.0000 0.31290  0.46470  0.46190  Biso   1.000  C
  H110     1.0000 0.31000  0.45880  0.43670  Biso   1.000  H
  C181     1.0000 0.35100  0.45550  0.47820  Biso   1.000  C
  H111     1.0000 0.37210  0.45050  0.46370  Biso   1.000  H
  C182     1.0000 0.23560  0.47910  0.47860  Biso   1.000  C
  H112     1.0000 0.22260  0.45970  0.46690  Biso   1.000  H
  O29      1.0000 0.78716  0.30198  0.70682  Biso   1.000  O
  O30      1.0000 0.75166  0.32673  0.75216  Biso   1.000  O
  C183     1.0000 0.76846  0.32819  0.72095  Biso   1.000  C
  C184     1.0000 0.76501  0.36393  0.70005  Biso   1.000  C
  C185     1.0000 0.78139  0.36659  0.66499  Biso   1.000  C
  H113     1.0000 0.79470  0.34650  0.65510  Biso   1.000  H
  C186     1.0000 0.74705  0.39384  0.71463  Biso   1.000  C
  H114     1.0000 0.73640  0.39190  0.73830  Biso   1.000  H
  C187     1.0000 0.74411  0.42734  0.69524  Biso   1.000  C
  H115     1.0000 0.73170  0.44760  0.70590  Biso   1.000  H
  C188     1.0000 0.77763  0.39944  0.64482  Biso   1.000  C
  H116     1.0000 0.78730  0.40080  0.62070  Biso   1.000  H
  C189     1.0000 0.75971  0.43061  0.66001  Biso   1.000  C
  C190     1.0000 0.75660  0.46601  0.63894  Biso   1.000  C
  C191     1.0000 0.75540  0.46620  0.60036  Biso   1.000  C
  H117     1.0000 0.75510  0.44370  0.58730  Biso   1.000  H
  C192     1.0000 0.71940  0.48090  0.52090  Biso   1.000  C
  C193     1.0000 0.68710  0.46470  0.53810  Biso   1.000  C
  H118     1.0000 0.69000  0.45880  0.56330  Biso   1.000  H
  C194     1.0000 0.64900  0.45550  0.52180  Biso   1.000  C
  H119     1.0000 0.62790  0.45050  0.53630  Biso   1.000  H
  C195     1.0000 0.76440  0.47910  0.52140  Biso   1.000  C
  H120     1.0000 0.77740  0.45970  0.53310  Biso   1.000  H
  O31      1.0000 0.21284  0.69802  0.70682  Biso   1.000  O
  O32      1.0000 0.24834  0.67327  0.75216  Biso   1.000  O
  C196     1.0000 0.23154  0.67181  0.72095  Biso   1.000  C
  C197     1.0000 0.23499  0.63607  0.70005  Biso   1.000  C
  C198     1.0000 0.21861  0.63341  0.66499  Biso   1.000  C
  H121     1.0000 0.20530  0.65350  0.65510  Biso   1.000  H
  C199     1.0000 0.25295  0.60616  0.71463  Biso   1.000  C
  H122     1.0000 0.26360  0.60810  0.73830  Biso   1.000  H
  C200     1.0000 0.25589  0.57266  0.69524  Biso   1.000  C
  H123     1.0000 0.26830  0.55240  0.70590  Biso   1.000  H
  C201     1.0000 0.22237  0.60056  0.64482  Biso   1.000  C
  H124     1.0000 0.21270  0.59920  0.62070  Biso   1.000  H
  C202     1.0000 0.24029  0.56939  0.66001  Biso   1.000  C
  C203     1.0000 0.24340  0.53399  0.63894  Biso   1.000  C
  C204     1.0000 0.24460  0.53380  0.60036  Biso   1.000  C
  H125     1.0000 0.24490  0.55630  0.58730  Biso   1.000  H
  C205     1.0000 0.28060  0.51910  0.52090  Biso   1.000  C
  C206     1.0000 0.31290  0.53530  0.53810  Biso   1.000  C
  H126     1.0000 0.31000  0.54120  0.56330  Biso   1.000  H
  C207     1.0000 0.35100  0.54450  0.52180  Biso   1.000  C
  H127     1.0000 0.37210  0.54950  0.53630  Biso   1.000  H
  C208     1.0000 0.23560  0.52090  0.52140  Biso   1.000  C
  H128     1.0000 0.22260  0.54030  0.53310  Biso   1.000  H
  O33      1.0000 0.69802  0.70682  0.21284  Biso   1.000  O
  O34      1.0000 0.67327  0.75216  0.24834  Biso   1.000  O
  C209     1.0000 0.67181  0.72095  0.23154  Biso   1.000  C
  C210     1.0000 0.63607  0.70005  0.23499  Biso   1.000  C
  C211     1.0000 0.63341  0.66499  0.21861  Biso   1.000  C
  H129     1.0000 0.65350  0.65510  0.20530  Biso   1.000  H
  C212     1.0000 0.60616  0.71463  0.25295  Biso   1.000  C
  H130     1.0000 0.60810  0.73830  0.26360  Biso   1.000  H
  C213     1.0000 0.57266  0.69524  0.25589  Biso   1.000  C
  H131     1.0000 0.55240  0.70590  0.26830  Biso   1.000  H
  C214     1.0000 0.60056  0.64482  0.22237  Biso   1.000  C
  H132     1.0000 0.59920  0.62070  0.21270  Biso   1.000  H
  C215     1.0000 0.56939  0.66001  0.24029  Biso   1.000  C
  C216     1.0000 0.53399  0.63894  0.24340  Biso   1.000  C
  C217     1.0000 0.53380  0.60036  0.24460  Biso   1.000  C
  H133     1.0000 0.55630  0.58730  0.24490  Biso   1.000  H
  C218     1.0000 0.51910  0.52090  0.28060  Biso   1.000  C
  C219     1.0000 0.53530  0.53810  0.31290  Biso   1.000  C
  H134     1.0000 0.54120  0.56330  0.31000  Biso   1.000  H
  C220     1.0000 0.54450  0.52180  0.35100  Biso   1.000  C
  H135     1.0000 0.54950  0.53630  0.37210  Biso   1.000  H
  C221     1.0000 0.52090  0.52140  0.23560  Biso   1.000  C
  H136     1.0000 0.54030  0.53310  0.22260  Biso   1.000  H
  O35      1.0000 0.30198  0.70682  0.78716  Biso   1.000  O
  O36      1.0000 0.32673  0.75216  0.75166  Biso   1.000  O
  C222     1.0000 0.32819  0.72095  0.76846  Biso   1.000  C
  C223     1.0000 0.36393  0.70005  0.76501  Biso   1.000  C
  C224     1.0000 0.36659  0.66499  0.78139  Biso   1.000  C
  H137     1.0000 0.34650  0.65510  0.79470  Biso   1.000  H
  C225     1.0000 0.39384  0.71463  0.74705  Biso   1.000  C
  H138     1.0000 0.39190  0.73830  0.73640  Biso   1.000  H
  C226     1.0000 0.42734  0.69524  0.74411  Biso   1.000  C
  H139     1.0000 0.44760  0.70590  0.73170  Biso   1.000  H
  C227     1.0000 0.39944  0.64482  0.77763  Biso   1.000  C
  H140     1.0000 0.40080  0.62070  0.78730  Biso   1.000  H
  C228     1.0000 0.43061  0.66001  0.75971  Biso   1.000  C
  C229     1.0000 0.46601  0.63894  0.75660  Biso   1.000  C
  C230     1.0000 0.46620  0.60036  0.75540  Biso   1.000  C
  H141     1.0000 0.44370  0.58730  0.75510  Biso   1.000  H
  C231     1.0000 0.48090  0.52090  0.71940  Biso   1.000  C
  C232     1.0000 0.46470  0.53810  0.68710  Biso   1.000  C
  H142     1.0000 0.45880  0.56330  0.69000  Biso   1.000  H
  C233     1.0000 0.45550  0.52180  0.64900  Biso   1.000  C
  H143     1.0000 0.45050  0.53630  0.62790  Biso   1.000  H
  C234     1.0000 0.47910  0.52140  0.76440  Biso   1.000  C
  H144     1.0000 0.45970  0.53310  0.77740  Biso   1.000  H
  O37      1.0000 0.30198  0.29318  0.21284  Biso   1.000  O
  O38      1.0000 0.32673  0.24784  0.24834  Biso   1.000  O
  C235     1.0000 0.32819  0.27905  0.23154  Biso   1.000  C
  C236     1.0000 0.36393  0.29995  0.23499  Biso   1.000  C
  C237     1.0000 0.36659  0.33501  0.21861  Biso   1.000  C
  H145     1.0000 0.34650  0.34490  0.20530  Biso   1.000  H
  C238     1.0000 0.39384  0.28537  0.25295  Biso   1.000  C
  H146     1.0000 0.39190  0.26170  0.26360  Biso   1.000  H
  C239     1.0000 0.42734  0.30476  0.25589  Biso   1.000  C
  H147     1.0000 0.44760  0.29410  0.26830  Biso   1.000  H
  C240     1.0000 0.39944  0.35518  0.22237  Biso   1.000  C
  H148     1.0000 0.40080  0.37930  0.21270  Biso   1.000  H
  C241     1.0000 0.43061  0.33999  0.24029  Biso   1.000  C
  C242     1.0000 0.46601  0.36106  0.24340  Biso   1.000  C
  C243     1.0000 0.46620  0.39964  0.24460  Biso   1.000  C
  H149     1.0000 0.44370  0.41270  0.24490  Biso   1.000  H
  C244     1.0000 0.48090  0.47910  0.28060  Biso   1.000  C
  C245     1.0000 0.46470  0.46190  0.31290  Biso   1.000  C
  H150     1.0000 0.45880  0.43670  0.31000  Biso   1.000  H
  C246     1.0000 0.45550  0.47820  0.35100  Biso   1.000  C
  H151     1.0000 0.45050  0.46370  0.37210  Biso   1.000  H
  C247     1.0000 0.47910  0.47860  0.23560  Biso   1.000  C
  H152     1.0000 0.45970  0.46690  0.22260  Biso   1.000  H
  O39      1.0000 0.69802  0.29318  0.78716  Biso   1.000  O
  O40      1.0000 0.67327  0.24784  0.75166  Biso   1.000  O
  C248     1.0000 0.67181  0.27905  0.76846  Biso   1.000  C
  C249     1.0000 0.63607  0.29995  0.76501  Biso   1.000  C
  C250     1.0000 0.63341  0.33501  0.78139  Biso   1.000  C
  H153     1.0000 0.65350  0.34490  0.79470  Biso   1.000  H
  C251     1.0000 0.60616  0.28537  0.74705  Biso   1.000  C
  H154     1.0000 0.60810  0.26170  0.73640  Biso   1.000  H
  C252     1.0000 0.57266  0.30476  0.74411  Biso   1.000  C
  H155     1.0000 0.55240  0.29410  0.73170  Biso   1.000  H
  C253     1.0000 0.60056  0.35518  0.77763  Biso   1.000  C
  H156     1.0000 0.59920  0.37930  0.78730  Biso   1.000  H
  C254     1.0000 0.56939  0.33999  0.75971  Biso   1.000  C
  C255     1.0000 0.53399  0.36106  0.75660  Biso   1.000  C
  C256     1.0000 0.53380  0.39964  0.75540  Biso   1.000  C
  H157     1.0000 0.55630  0.41270  0.75510  Biso   1.000  H
  C257     1.0000 0.51910  0.47910  0.71940  Biso   1.000  C
  C258     1.0000 0.53530  0.46190  0.68710  Biso   1.000  C
  H158     1.0000 0.54120  0.43670  0.69000  Biso   1.000  H
  C259     1.0000 0.54450  0.47820  0.64900  Biso   1.000  C
  H159     1.0000 0.54950  0.46370  0.62790  Biso   1.000  H
  C260     1.0000 0.52090  0.47860  0.76440  Biso   1.000  C
  H160     1.0000 0.54030  0.46690  0.77740  Biso   1.000  H
  O41      1.0000 0.70682  0.78716  0.30198  Biso   1.000  O
  O42      1.0000 0.75216  0.75166  0.32673  Biso   1.000  O
  C261     1.0000 0.72095  0.76846  0.32819  Biso   1.000  C
  C262     1.0000 0.70005  0.76501  0.36393  Biso   1.000  C
  C263     1.0000 0.66499  0.78139  0.36659  Biso   1.000  C
  H161     1.0000 0.65510  0.79470  0.34650  Biso   1.000  H
  C264     1.0000 0.71463  0.74705  0.39384  Biso   1.000  C
  H162     1.0000 0.73830  0.73640  0.39190  Biso   1.000  H
  C265     1.0000 0.69524  0.74411  0.42734  Biso   1.000  C
  H163     1.0000 0.70590  0.73170  0.44760  Biso   1.000  H
  C266     1.0000 0.64482  0.77763  0.39944  Biso   1.000  C
  H164     1.0000 0.62070  0.78730  0.40080  Biso   1.000  H
  C267     1.0000 0.66001  0.75971  0.43061  Biso   1.000  C
  C268     1.0000 0.63894  0.75660  0.46601  Biso   1.000  C
  C269     1.0000 0.60036  0.75540  0.46620  Biso   1.000  C
  H165     1.0000 0.58730  0.75510  0.44370  Biso   1.000  H
  C270     1.0000 0.52090  0.71940  0.48090  Biso   1.000  C
  C271     1.0000 0.53810  0.68710  0.46470  Biso   1.000  C
  H166     1.0000 0.56330  0.69000  0.45880  Biso   1.000  H
  C272     1.0000 0.52180  0.64900  0.45550  Biso   1.000  C
  H167     1.0000 0.53630  0.62790  0.45050  Biso   1.000  H
  C273     1.0000 0.52140  0.76440  0.47910  Biso   1.000  C
  H168     1.0000 0.53310  0.77740  0.45970  Biso   1.000  H
  O43      1.0000 0.70682  0.21284  0.69802  Biso   1.000  O
  O44      1.0000 0.75216  0.24834  0.67327  Biso   1.000  O
  C274     1.0000 0.72095  0.23154  0.67181  Biso   1.000  C
  C275     1.0000 0.70005  0.23499  0.63607  Biso   1.000  C
  C276     1.0000 0.66499  0.21861  0.63341  Biso   1.000  C
  H169     1.0000 0.65510  0.20530  0.65350  Biso   1.000  H
  C277     1.0000 0.71463  0.25295  0.60616  Biso   1.000  C
  H170     1.0000 0.73830  0.26360  0.60810  Biso   1.000  H
  C278     1.0000 0.69524  0.25589  0.57266  Biso   1.000  C
  H171     1.0000 0.70590  0.26830  0.55240  Biso   1.000  H
  C279     1.0000 0.64482  0.22237  0.60056  Biso   1.000  C
  H172     1.0000 0.62070  0.21270  0.59920  Biso   1.000  H
  C280     1.0000 0.66001  0.24029  0.56939  Biso   1.000  C
  C281     1.0000 0.63894  0.24340  0.53399  Biso   1.000  C
  C282     1.0000 0.60036  0.24460  0.53380  Biso   1.000  C
  H173     1.0000 0.58730  0.24490  0.55630  Biso   1.000  H
  C283     1.0000 0.52090  0.28060  0.51910  Biso   1.000  C
  C284     1.0000 0.53810  0.31290  0.53530  Biso   1.000  C
  H174     1.0000 0.56330  0.31000  0.54120  Biso   1.000  H
  C285     1.0000 0.52180  0.35100  0.54450  Biso   1.000  C
  H175     1.0000 0.53630  0.37210  0.54950  Biso   1.000  H
  C286     1.0000 0.52140  0.23560  0.52090  Biso   1.000  C
  H176     1.0000 0.53310  0.22260  0.54030  Biso   1.000  H
  O45      1.0000 0.29318  0.78716  0.69802  Biso   1.000  O
  O46      1.0000 0.24784  0.75166  0.67327  Biso   1.000  O
  C287     1.0000 0.27905  0.76846  0.67181  Biso   1.000  C
  C288     1.0000 0.29995  0.76501  0.63607  Biso   1.000  C
  C289     1.0000 0.33501  0.78139  0.63341  Biso   1.000  C
  H177     1.0000 0.34490  0.79470  0.65350  Biso   1.000  H
  C290     1.0000 0.28537  0.74705  0.60616  Biso   1.000  C
  H178     1.0000 0.26170  0.73640  0.60810  Biso   1.000  H
  C291     1.0000 0.30476  0.74411  0.57266  Biso   1.000  C
  H179     1.0000 0.29410  0.73170  0.55240  Biso   1.000  H
  C292     1.0000 0.35518  0.77763  0.60056  Biso   1.000  C
  H180     1.0000 0.37930  0.78730  0.59920  Biso   1.000  H
  C293     1.0000 0.33999  0.75971  0.56939  Biso   1.000  C
  C294     1.0000 0.36106  0.75660  0.53399  Biso   1.000  C
  C295     1.0000 0.39964  0.75540  0.53380  Biso   1.000  C
  H181     1.0000 0.41270  0.75510  0.55630  Biso   1.000  H
  C296     1.0000 0.47910  0.71940  0.51910  Biso   1.000  C
  C297     1.0000 0.46190  0.68710  0.53530  Biso   1.000  C
  H182     1.0000 0.43670  0.69000  0.54120  Biso   1.000  H
  C298     1.0000 0.47820  0.64900  0.54450  Biso   1.000  C
  H183     1.0000 0.46370  0.62790  0.54950  Biso   1.000  H
  C299     1.0000 0.47860  0.76440  0.52090  Biso   1.000  C
  H184     1.0000 0.46690  0.77740  0.54030  Biso   1.000  H
  O47      1.0000 0.29318  0.21284  0.30198  Biso   1.000  O
  O48      1.0000 0.24784  0.24834  0.32673  Biso   1.000  O
  C300     1.0000 0.27905  0.23154  0.32819  Biso   1.000  C
  C301     1.0000 0.29995  0.23499  0.36393  Biso   1.000  C
  C302     1.0000 0.33501  0.21861  0.36659  Biso   1.000  C
  H185     1.0000 0.34490  0.20530  0.34650  Biso   1.000  H
  C303     1.0000 0.28537  0.25295  0.39384  Biso   1.000  C
  H186     1.0000 0.26170  0.26360  0.39190  Biso   1.000  H
  C304     1.0000 0.30476  0.25589  0.42734  Biso   1.000  C
  H187     1.0000 0.29410  0.26830  0.44760  Biso   1.000  H
  C305     1.0000 0.35518  0.22237  0.39944  Biso   1.000  C
  H188     1.0000 0.37930  0.21270  0.40080  Biso   1.000  H
  C306     1.0000 0.33999  0.24029  0.43061  Biso   1.000  C
  C307     1.0000 0.36106  0.24340  0.46601  Biso   1.000  C
  C308     1.0000 0.39964  0.24460  0.46620  Biso   1.000  C
  H189     1.0000 0.41270  0.24490  0.44370  Biso   1.000  H
  C309     1.0000 0.47910  0.28060  0.48090  Biso   1.000  C
  C310     1.0000 0.46190  0.31290  0.46470  Biso   1.000  C
  H190     1.0000 0.43670  0.31000  0.45880  Biso   1.000  H
  C311     1.0000 0.47820  0.35100  0.45550  Biso   1.000  C
  H191     1.0000 0.46370  0.37210  0.45050  Biso   1.000  H
  C312     1.0000 0.47860  0.23560  0.47910  Biso   1.000  C
  H192     1.0000 0.46690  0.22260  0.45970  Biso   1.000  H
  O49      1.0000 0.80198  0.71284  0.79318  Biso   1.000  O
  O50      1.0000 0.82673  0.74834  0.74784  Biso   1.000  O
  C313     1.0000 0.82819  0.73154  0.77905  Biso   1.000  C
  C314     1.0000 0.86393  0.73499  0.79995  Biso   1.000  C
  C315     1.0000 0.86659  0.71861  0.83501  Biso   1.000  C
  H193     1.0000 0.84650  0.70530  0.84490  Biso   1.000  H
  C316     1.0000 0.89384  0.75295  0.78537  Biso   1.000  C
  H194     1.0000 0.89190  0.76360  0.76170  Biso   1.000  H
  C317     1.0000 0.92734  0.75589  0.80476  Biso   1.000  C
  H195     1.0000 0.94760  0.76830  0.79410  Biso   1.000  H
  C318     1.0000 0.89944  0.72237  0.85518  Biso   1.000  C
  H196     1.0000 0.90080  0.71270  0.87930  Biso   1.000  H
  C319     1.0000 0.93061  0.74029  0.83999  Biso   1.000  C
  C320     1.0000 0.96601  0.74340  0.86106  Biso   1.000  C
  C321     1.0000 0.96620  0.74460  0.89964  Biso   1.000  C
  H197     1.0000 0.94370  0.74490  0.91270  Biso   1.000  H
  C322     1.0000 0.98090  0.78060  0.97910  Biso   1.000  C
  C323     1.0000 0.96470  0.81290  0.96190  Biso   1.000  C
  H198     1.0000 0.95880  0.81000  0.93670  Biso   1.000  H
  C324     1.0000 0.95550  0.85100  0.97820  Biso   1.000  C
  H199     1.0000 0.95050  0.87210  0.96370  Biso   1.000  H
  C325     1.0000 0.97910  0.73560  0.97860  Biso   1.000  C
  H200     1.0000 0.95970  0.72260  0.96690  Biso   1.000  H
  O51      1.0000 0.19802  0.28716  0.79318  Biso   1.000  O
  O52      1.0000 0.17327  0.25166  0.74784  Biso   1.000  O
  C326     1.0000 0.17181  0.26846  0.77905  Biso   1.000  C
  C327     1.0000 0.13607  0.26501  0.79995  Biso   1.000  C
  C328     1.0000 0.13341  0.28139  0.83501  Biso   1.000  C
  H201     1.0000 0.15350  0.29470  0.84490  Biso   1.000  H
  C329     1.0000 0.10616  0.24705  0.78537  Biso   1.000  C
  H202     1.0000 0.10810  0.23640  0.76170  Biso   1.000  H
  C330     1.0000 0.07266  0.24411  0.80476  Biso   1.000  C
  H203     1.0000 0.05240  0.23170  0.79410  Biso   1.000  H
  C331     1.0000 0.10056  0.27763  0.85518  Biso   1.000  C
  H204     1.0000 0.09920  0.28730  0.87930  Biso   1.000  H
  C332     1.0000 0.06939  0.25971  0.83999  Biso   1.000  C
  C333     1.0000 0.03399  0.25660  0.86106  Biso   1.000  C
  C334     1.0000 0.03380  0.25540  0.89964  Biso   1.000  C
  H205     1.0000 0.05630  0.25510  0.91270  Biso   1.000  H
  C335     1.0000 0.01910  0.21940  0.97910  Biso   1.000  C
  C336     1.0000 0.03530  0.18710  0.96190  Biso   1.000  C
  H206     1.0000 0.04120  0.19000  0.93670  Biso   1.000  H
  C337     1.0000 0.04450  0.14900  0.97820  Biso   1.000  C
  H207     1.0000 0.04950  0.12790  0.96370  Biso   1.000  H
  C338     1.0000 0.02090  0.26440  0.97860  Biso   1.000  C
  H208     1.0000 0.04030  0.27740  0.96690  Biso   1.000  H
  O53      1.0000 0.19802  0.71284  0.20682  Biso   1.000  O
  O54      1.0000 0.17327  0.74834  0.25216  Biso   1.000  O
  C339     1.0000 0.17181  0.73154  0.22095  Biso   1.000  C
  C340     1.0000 0.13607  0.73499  0.20005  Biso   1.000  C
  C341     1.0000 0.13341  0.71861  0.16499  Biso   1.000  C
  H209     1.0000 0.15350  0.70530  0.15510  Biso   1.000  H
  C342     1.0000 0.10616  0.75295  0.21463  Biso   1.000  C
  H210     1.0000 0.10810  0.76360  0.23830  Biso   1.000  H
  C343     1.0000 0.07266  0.75589  0.19524  Biso   1.000  C
  H211     1.0000 0.05240  0.76830  0.20590  Biso   1.000  H
  C344     1.0000 0.10056  0.72237  0.14482  Biso   1.000  C
  H212     1.0000 0.09920  0.71270  0.12070  Biso   1.000  H
  C345     1.0000 0.06939  0.74029  0.16001  Biso   1.000  C
  C346     1.0000 0.03399  0.74340  0.13894  Biso   1.000  C
  C347     1.0000 0.03380  0.74460  0.10036  Biso   1.000  C
  H213     1.0000 0.05630  0.74490  0.08730  Biso   1.000  H
  C348     1.0000 0.01910  0.78060  0.02090  Biso   1.000  C
  C349     1.0000 0.03530  0.81290  0.03810  Biso   1.000  C
  H214     1.0000 0.04120  0.81000  0.06330  Biso   1.000  H
  C350     1.0000 0.04450  0.85100  0.02180  Biso   1.000  C
  H215     1.0000 0.04950  0.87210  0.03630  Biso   1.000  H
  C351     1.0000 0.02090  0.73560  0.02140  Biso   1.000  C
  H216     1.0000 0.04030  0.72260  0.03310  Biso   1.000  H
  O55      1.0000 0.80198  0.28716  0.20682  Biso   1.000  O
  O56      1.0000 0.82673  0.25166  0.25216  Biso   1.000  O
  C352     1.0000 0.82819  0.26846  0.22095  Biso   1.000  C
  C353     1.0000 0.86393  0.26501  0.20005  Biso   1.000  C
  C354     1.0000 0.86659  0.28139  0.16499  Biso   1.000  C
  H217     1.0000 0.84650  0.29470  0.15510  Biso   1.000  H
  C355     1.0000 0.89384  0.24705  0.21463  Biso   1.000  C
  H218     1.0000 0.89190  0.23640  0.23830  Biso   1.000  H
  C356     1.0000 0.92734  0.24411  0.19524  Biso   1.000  C
  H219     1.0000 0.94760  0.23170  0.20590  Biso   1.000  H
  C357     1.0000 0.89944  0.27763  0.14482  Biso   1.000  C
  H220     1.0000 0.90080  0.28730  0.12070  Biso   1.000  H
  C358     1.0000 0.93061  0.25971  0.16001  Biso   1.000  C
  C359     1.0000 0.96601  0.25660  0.13894  Biso   1.000  C
  C360     1.0000 0.96620  0.25540  0.10036  Biso   1.000  C
  H221     1.0000 0.94370  0.25510  0.08730  Biso   1.000  H
  C361     1.0000 0.98090  0.21940  0.02090  Biso   1.000  C
  C362     1.0000 0.96470  0.18710  0.03810  Biso   1.000  C
  H222     1.0000 0.95880  0.19000  0.06330  Biso   1.000  H
  C363     1.0000 0.95550  0.14900  0.02180  Biso   1.000  C
  H223     1.0000 0.95050  0.12790  0.03630  Biso   1.000  H
  C364     1.0000 0.97910  0.26440  0.02140  Biso   1.000  C
  H224     1.0000 0.95970  0.27740  0.03310  Biso   1.000  H
  O57      1.0000 0.79318  0.80198  0.71284  Biso   1.000  O
  O58      1.0000 0.74784  0.82673  0.74834  Biso   1.000  O
  C365     1.0000 0.77905  0.82819  0.73154  Biso   1.000  C
  C366     1.0000 0.79995  0.86393  0.73499  Biso   1.000  C
  C367     1.0000 0.83501  0.86659  0.71861  Biso   1.000  C
  H225     1.0000 0.84490  0.84650  0.70530  Biso   1.000  H
  C368     1.0000 0.78537  0.89384  0.75295  Biso   1.000  C
  H226     1.0000 0.76170  0.89190  0.76360  Biso   1.000  H
  C369     1.0000 0.80476  0.92734  0.75589  Biso   1.000  C
  H227     1.0000 0.79410  0.94760  0.76830  Biso   1.000  H
  C370     1.0000 0.85518  0.89944  0.72237  Biso   1.000  C
  H228     1.0000 0.87930  0.90080  0.71270  Biso   1.000  H
  C371     1.0000 0.83999  0.93061  0.74029  Biso   1.000  C
  C372     1.0000 0.86106  0.96601  0.74340  Biso   1.000  C
  C373     1.0000 0.89964  0.96620  0.74460  Biso   1.000  C
  H229     1.0000 0.91270  0.94370  0.74490  Biso   1.000  H
  C374     1.0000 0.97910  0.98090  0.78060  Biso   1.000  C
  C375     1.0000 0.96190  0.96470  0.81290  Biso   1.000  C
  H230     1.0000 0.93670  0.95880  0.81000  Biso   1.000  H
  C376     1.0000 0.97820  0.95550  0.85100  Biso   1.000  C
  H231     1.0000 0.96370  0.95050  0.87210  Biso   1.000  H
  C377     1.0000 0.97860  0.97910  0.73560  Biso   1.000  C
  H232     1.0000 0.96690  0.95970  0.72260  Biso   1.000  H
  O59      1.0000 0.79318  0.19802  0.28716  Biso   1.000  O
  O60      1.0000 0.74784  0.17327  0.25166  Biso   1.000  O
  C378     1.0000 0.77905  0.17181  0.26846  Biso   1.000  C
  C379     1.0000 0.79995  0.13607  0.26501  Biso   1.000  C
  C380     1.0000 0.83501  0.13341  0.28139  Biso   1.000  C
  H233     1.0000 0.84490  0.15350  0.29470  Biso   1.000  H
  C381     1.0000 0.78537  0.10616  0.24705  Biso   1.000  C
  H234     1.0000 0.76170  0.10810  0.23640  Biso   1.000  H
  C382     1.0000 0.80476  0.07266  0.24411  Biso   1.000  C
  H235     1.0000 0.79410  0.05240  0.23170  Biso   1.000  H
  C383     1.0000 0.85518  0.10056  0.27763  Biso   1.000  C
  H236     1.0000 0.87930  0.09920  0.28730  Biso   1.000  H
  C384     1.0000 0.83999  0.06939  0.25971  Biso   1.000  C
  C385     1.0000 0.86106  0.03399  0.25660  Biso   1.000  C
  C386     1.0000 0.89964  0.03380  0.25540  Biso   1.000  C
  H237     1.0000 0.91270  0.05630  0.25510  Biso   1.000  H
  C387     1.0000 0.97910  0.01910  0.21940  Biso   1.000  C
  C388     1.0000 0.96190  0.03530  0.18710  Biso   1.000  C
  H238     1.0000 0.93670  0.04120  0.19000  Biso   1.000  H
  C389     1.0000 0.97820  0.04450  0.14900  Biso   1.000  C
  H239     1.0000 0.96370  0.04950  0.12790  Biso   1.000  H
  C390     1.0000 0.97860  0.02090  0.26440  Biso   1.000  C
  H240     1.0000 0.96690  0.04030  0.27740  Biso   1.000  H
  O61      1.0000 0.20682  0.19802  0.71284  Biso   1.000  O
  O62      1.0000 0.25216  0.17327  0.74834  Biso   1.000  O
  C391     1.0000 0.22095  0.17181  0.73154  Biso   1.000  C
  C392     1.0000 0.20005  0.13607  0.73499  Biso   1.000  C
  C393     1.0000 0.16499  0.13341  0.71861  Biso   1.000  C
  H241     1.0000 0.15510  0.15350  0.70530  Biso   1.000  H
  C394     1.0000 0.21463  0.10616  0.75295  Biso   1.000  C
  H242     1.0000 0.23830  0.10810  0.76360  Biso   1.000  H
  C395     1.0000 0.19524  0.07266  0.75589  Biso   1.000  C
  H243     1.0000 0.20590  0.05240  0.76830  Biso   1.000  H
  C396     1.0000 0.14482  0.10056  0.72237  Biso   1.000  C
  H244     1.0000 0.12070  0.09920  0.71270  Biso   1.000  H
  C397     1.0000 0.16001  0.06939  0.74029  Biso   1.000  C
  C398     1.0000 0.13894  0.03399  0.74340  Biso   1.000  C
  C399     1.0000 0.10036  0.03380  0.74460  Biso   1.000  C
  H245     1.0000 0.08730  0.05630  0.74490  Biso   1.000  H
  C400     1.0000 0.02090  0.01910  0.78060  Biso   1.000  C
  C401     1.0000 0.03810  0.03530  0.81290  Biso   1.000  C
  H246     1.0000 0.06330  0.04120  0.81000  Biso   1.000  H
  C402     1.0000 0.02180  0.04450  0.85100  Biso   1.000  C
  H247     1.0000 0.03630  0.04950  0.87210  Biso   1.000  H
  C403     1.0000 0.02140  0.02090  0.73560  Biso   1.000  C
  H248     1.0000 0.03310  0.04030  0.72260  Biso   1.000  H
  O63      1.0000 0.20682  0.80198  0.28716  Biso   1.000  O
  O64      1.0000 0.25216  0.82673  0.25166  Biso   1.000  O
  C404     1.0000 0.22095  0.82819  0.26846  Biso   1.000  C
  C405     1.0000 0.20005  0.86393  0.26501  Biso   1.000  C
  C406     1.0000 0.16499  0.86659  0.28139  Biso   1.000  C
  H249     1.0000 0.15510  0.84650  0.29470  Biso   1.000  H
  C407     1.0000 0.21463  0.89384  0.24705  Biso   1.000  C
  H250     1.0000 0.23830  0.89190  0.23640  Biso   1.000  H
  C408     1.0000 0.19524  0.92734  0.24411  Biso   1.000  C
  H251     1.0000 0.20590  0.94760  0.23170  Biso   1.000  H
  C409     1.0000 0.14482  0.89944  0.27763  Biso   1.000  C
  H252     1.0000 0.12070  0.90080  0.28730  Biso   1.000  H
  C410     1.0000 0.16001  0.93061  0.25971  Biso   1.000  C
  C411     1.0000 0.13894  0.96601  0.25660  Biso   1.000  C
  C412     1.0000 0.10036  0.96620  0.25540  Biso   1.000  C
  H253     1.0000 0.08730  0.94370  0.25510  Biso   1.000  H
  C413     1.0000 0.02090  0.98090  0.21940  Biso   1.000  C
  C414     1.0000 0.03810  0.96470  0.18710  Biso   1.000  C
  H254     1.0000 0.06330  0.95880  0.19000  Biso   1.000  H
  C415     1.0000 0.02180  0.95550  0.14900  Biso   1.000  C
  H255     1.0000 0.03630  0.95050  0.12790  Biso   1.000  H
  C416     1.0000 0.02140  0.97910  0.26440  Biso   1.000  C
  H256     1.0000 0.03310  0.95970  0.27740  Biso   1.000  H
  O65      1.0000 0.71284  0.79318  0.80198  Biso   1.000  O
  O66      1.0000 0.74834  0.74784  0.82673  Biso   1.000  O
  C417     1.0000 0.73154  0.77905  0.82819  Biso   1.000  C
  C418     1.0000 0.73499  0.79995  0.86393  Biso   1.000  C
  C419     1.0000 0.71861  0.83501  0.86659  Biso   1.000  C
  H257     1.0000 0.70530  0.84490  0.84650  Biso   1.000  H
  C420     1.0000 0.75295  0.78537  0.89384  Biso   1.000  C
  H258     1.0000 0.76360  0.76170  0.89190  Biso   1.000  H
  C421     1.0000 0.75589  0.80476  0.92734  Biso   1.000  C
  H259     1.0000 0.76830  0.79410  0.94760  Biso   1.000  H
  C422     1.0000 0.72237  0.85518  0.89944  Biso   1.000  C
  H260     1.0000 0.71270  0.87930  0.90080  Biso   1.000  H
  C423     1.0000 0.74029  0.83999  0.93061  Biso   1.000  C
  C424     1.0000 0.74340  0.86106  0.96601  Biso   1.000  C
  C425     1.0000 0.74460  0.89964  0.96620  Biso   1.000  C
  H261     1.0000 0.74490  0.91270  0.94370  Biso   1.000  H
  C426     1.0000 0.78060  0.97910  0.98090  Biso   1.000  C
  C427     1.0000 0.81290  0.96190  0.96470  Biso   1.000  C
  H262     1.0000 0.81000  0.93670  0.95880  Biso   1.000  H
  C428     1.0000 0.85100  0.97820  0.95550  Biso   1.000  C
  H263     1.0000 0.87210  0.96370  0.95050  Biso   1.000  H
  C429     1.0000 0.73560  0.97860  0.97910  Biso   1.000  C
  H264     1.0000 0.72260  0.96690  0.95970  Biso   1.000  H
  O67      1.0000 0.28716  0.79318  0.19802  Biso   1.000  O
  O68      1.0000 0.25166  0.74784  0.17327  Biso   1.000  O
  C430     1.0000 0.26846  0.77905  0.17181  Biso   1.000  C
  C431     1.0000 0.26501  0.79995  0.13607  Biso   1.000  C
  C432     1.0000 0.28139  0.83501  0.13341  Biso   1.000  C
  H265     1.0000 0.29470  0.84490  0.15350  Biso   1.000  H
  C433     1.0000 0.24705  0.78537  0.10616  Biso   1.000  C
  H266     1.0000 0.23640  0.76170  0.10810  Biso   1.000  H
  C434     1.0000 0.24411  0.80476  0.07266  Biso   1.000  C
  H267     1.0000 0.23170  0.79410  0.05240  Biso   1.000  H
  C435     1.0000 0.27763  0.85518  0.10056  Biso   1.000  C
  H268     1.0000 0.28730  0.87930  0.09920  Biso   1.000  H
  C436     1.0000 0.25971  0.83999  0.06939  Biso   1.000  C
  C437     1.0000 0.25660  0.86106  0.03399  Biso   1.000  C
  C438     1.0000 0.25540  0.89964  0.03380  Biso   1.000  C
  H269     1.0000 0.25510  0.91270  0.05630  Biso   1.000  H
  C439     1.0000 0.21940  0.97910  0.01910  Biso   1.000  C
  C440     1.0000 0.18710  0.96190  0.03530  Biso   1.000  C
  H270     1.0000 0.19000  0.93670  0.04120  Biso   1.000  H
  C441     1.0000 0.14900  0.97820  0.04450  Biso   1.000  C
  H271     1.0000 0.12790  0.96370  0.04950  Biso   1.000  H
  C442     1.0000 0.26440  0.97860  0.02090  Biso   1.000  C
  H272     1.0000 0.27740  0.96690  0.04030  Biso   1.000  H
  O69      1.0000 0.71284  0.20682  0.19802  Biso   1.000  O
  O70      1.0000 0.74834  0.25216  0.17327  Biso   1.000  O
  C443     1.0000 0.73154  0.22095  0.17181  Biso   1.000  C
  C444     1.0000 0.73499  0.20005  0.13607  Biso   1.000  C
  C445     1.0000 0.71861  0.16499  0.13341  Biso   1.000  C
  H273     1.0000 0.70530  0.15510  0.15350  Biso   1.000  H
  C446     1.0000 0.75295  0.21463  0.10616  Biso   1.000  C
  H274     1.0000 0.76360  0.23830  0.10810  Biso   1.000  H
  C447     1.0000 0.75589  0.19524  0.07266  Biso   1.000  C
  H275     1.0000 0.76830  0.20590  0.05240  Biso   1.000  H
  C448     1.0000 0.72237  0.14482  0.10056  Biso   1.000  C
  H276     1.0000 0.71270  0.12070  0.09920  Biso   1.000  H
  C449     1.0000 0.74029  0.16001  0.06939  Biso   1.000  C
  C450     1.0000 0.74340  0.13894  0.03399  Biso   1.000  C
  C451     1.0000 0.74460  0.10036  0.03380  Biso   1.000  C
  H277     1.0000 0.74490  0.08730  0.05630  Biso   1.000  H
  C452     1.0000 0.78060  0.02090  0.01910  Biso   1.000  C
  C453     1.0000 0.81290  0.03810  0.03530  Biso   1.000  C
  H278     1.0000 0.81000  0.06330  0.04120  Biso   1.000  H
  C454     1.0000 0.85100  0.02180  0.04450  Biso   1.000  C
  H279     1.0000 0.87210  0.03630  0.04950  Biso   1.000  H
  C455     1.0000 0.73560  0.02140  0.02090  Biso   1.000  C
  H280     1.0000 0.72260  0.03310  0.04030  Biso   1.000  H
  O71      1.0000 0.28716  0.20682  0.80198  Biso   1.000  O
  O72      1.0000 0.25166  0.25216  0.82673  Biso   1.000  O
  C456     1.0000 0.26846  0.22095  0.82819  Biso   1.000  C
  C457     1.0000 0.26501  0.20005  0.86393  Biso   1.000  C
  C458     1.0000 0.28139  0.16499  0.86659  Biso   1.000  C
  H281     1.0000 0.29470  0.15510  0.84650  Biso   1.000  H
  C459     1.0000 0.24705  0.21463  0.89384  Biso   1.000  C
  H282     1.0000 0.23640  0.23830  0.89190  Biso   1.000  H
  C460     1.0000 0.24411  0.19524  0.92734  Biso   1.000  C
  H283     1.0000 0.23170  0.20590  0.94760  Biso   1.000  H
  C461     1.0000 0.27763  0.14482  0.89944  Biso   1.000  C
  H284     1.0000 0.28730  0.12070  0.90080  Biso   1.000  H
  C462     1.0000 0.25971  0.16001  0.93061  Biso   1.000  C
  C463     1.0000 0.25660  0.13894  0.96601  Biso   1.000  C
  C464     1.0000 0.25540  0.10036  0.96620  Biso   1.000  C
  H285     1.0000 0.25510  0.08730  0.94370  Biso   1.000  H
  C465     1.0000 0.21940  0.02090  0.98090  Biso   1.000  C
  C466     1.0000 0.18710  0.03810  0.96470  Biso   1.000  C
  H286     1.0000 0.19000  0.06330  0.95880  Biso   1.000  H
  C467     1.0000 0.14900  0.02180  0.95550  Biso   1.000  C
  H287     1.0000 0.12790  0.03630  0.95050  Biso   1.000  H
  C468     1.0000 0.26440  0.02140  0.97910  Biso   1.000  C
  H288     1.0000 0.27740  0.03310  0.95970  Biso   1.000  H
  O73      1.0000 0.21284  0.30198  0.70682  Biso   1.000  O
  O74      1.0000 0.24834  0.32673  0.75216  Biso   1.000  O
  C469     1.0000 0.23154  0.32819  0.72095  Biso   1.000  C
  C470     1.0000 0.23499  0.36393  0.70005  Biso   1.000  C
  C471     1.0000 0.21861  0.36659  0.66499  Biso   1.000  C
  H289     1.0000 0.20530  0.34650  0.65510  Biso   1.000  H
  C472     1.0000 0.25295  0.39384  0.71463  Biso   1.000  C
  H290     1.0000 0.26360  0.39190  0.73830  Biso   1.000  H
  C473     1.0000 0.25589  0.42734  0.69524  Biso   1.000  C
  H291     1.0000 0.26830  0.44760  0.70590  Biso   1.000  H
  C474     1.0000 0.22237  0.39944  0.64482  Biso   1.000  C
  H292     1.0000 0.21270  0.40080  0.62070  Biso   1.000  H
  C475     1.0000 0.24029  0.43061  0.66001  Biso   1.000  C
  C476     1.0000 0.24340  0.46601  0.63894  Biso   1.000  C
  C477     1.0000 0.24460  0.46620  0.60036  Biso   1.000  C
  H293     1.0000 0.24490  0.44370  0.58730  Biso   1.000  H
  C478     1.0000 0.28060  0.48090  0.52090  Biso   1.000  C
  C479     1.0000 0.31290  0.46470  0.53810  Biso   1.000  C
  H294     1.0000 0.31000  0.45880  0.56330  Biso   1.000  H
  C480     1.0000 0.35100  0.45550  0.52180  Biso   1.000  C
  H295     1.0000 0.37210  0.45050  0.53630  Biso   1.000  H
  C481     1.0000 0.23560  0.47910  0.52140  Biso   1.000  C
  H296     1.0000 0.22260  0.45970  0.53310  Biso   1.000  H
  O75      1.0000 0.78716  0.69802  0.70682  Biso   1.000  O
  O76      1.0000 0.75166  0.67327  0.75216  Biso   1.000  O
  C482     1.0000 0.76846  0.67181  0.72095  Biso   1.000  C
  C483     1.0000 0.76501  0.63607  0.70005  Biso   1.000  C
  C484     1.0000 0.78139  0.63341  0.66499  Biso   1.000  C
  H297     1.0000 0.79470  0.65350  0.65510  Biso   1.000  H
  C485     1.0000 0.74705  0.60616  0.71463  Biso   1.000  C
  H298     1.0000 0.73640  0.60810  0.73830  Biso   1.000  H
  C486     1.0000 0.74411  0.57266  0.69524  Biso   1.000  C
  H299     1.0000 0.73170  0.55240  0.70590  Biso   1.000  H
  C487     1.0000 0.77763  0.60056  0.64482  Biso   1.000  C
  H300     1.0000 0.78730  0.59920  0.62070  Biso   1.000  H
  C488     1.0000 0.75971  0.56939  0.66001  Biso   1.000  C
  C489     1.0000 0.75660  0.53399  0.63894  Biso   1.000  C
  C490     1.0000 0.75540  0.53380  0.60036  Biso   1.000  C
  H301     1.0000 0.75510  0.55630  0.58730  Biso   1.000  H
  C491     1.0000 0.71940  0.51910  0.52090  Biso   1.000  C
  C492     1.0000 0.68710  0.53530  0.53810  Biso   1.000  C
  H302     1.0000 0.69000  0.54120  0.56330  Biso   1.000  H
  C493     1.0000 0.64900  0.54450  0.52180  Biso   1.000  C
  H303     1.0000 0.62790  0.54950  0.53630  Biso   1.000  H
  C494     1.0000 0.76440  0.52090  0.52140  Biso   1.000  C
  H304     1.0000 0.77740  0.54030  0.53310  Biso   1.000  H
  O77      1.0000 0.21284  0.69802  0.29318  Biso   1.000  O
  O78      1.0000 0.24834  0.67327  0.24784  Biso   1.000  O
  C495     1.0000 0.23154  0.67181  0.27905  Biso   1.000  C
  C496     1.0000 0.23499  0.63607  0.29995  Biso   1.000  C
  C497     1.0000 0.21861  0.63341  0.33501  Biso   1.000  C
  H305     1.0000 0.20530  0.65350  0.34490  Biso   1.000  H
  C498     1.0000 0.25295  0.60616  0.28537  Biso   1.000  C
  H306     1.0000 0.26360  0.60810  0.26170  Biso   1.000  H
  C499     1.0000 0.25589  0.57266  0.30476  Biso   1.000  C
  H307     1.0000 0.26830  0.55240  0.29410  Biso   1.000  H
  C500     1.0000 0.22237  0.60056  0.35518  Biso   1.000  C
  H308     1.0000 0.21270  0.59920  0.37930  Biso   1.000  H
  C501     1.0000 0.24029  0.56939  0.33999  Biso   1.000  C
  C502     1.0000 0.24340  0.53399  0.36106  Biso   1.000  C
  C503     1.0000 0.24460  0.53380  0.39964  Biso   1.000  C
  H309     1.0000 0.24490  0.55630  0.41270  Biso   1.000  H
  C504     1.0000 0.28060  0.51910  0.47910  Biso   1.000  C
  C505     1.0000 0.31290  0.53530  0.46190  Biso   1.000  C
  H310     1.0000 0.31000  0.54120  0.43670  Biso   1.000  H
  C506     1.0000 0.35100  0.54450  0.47820  Biso   1.000  C
  H311     1.0000 0.37210  0.54950  0.46370  Biso   1.000  H
  C507     1.0000 0.23560  0.52090  0.47860  Biso   1.000  C
  H312     1.0000 0.22260  0.54030  0.46690  Biso   1.000  H
  O79      1.0000 0.78716  0.30198  0.29318  Biso   1.000  O
  O80      1.0000 0.75166  0.32673  0.24784  Biso   1.000  O
  C508     1.0000 0.76846  0.32819  0.27905  Biso   1.000  C
  C509     1.0000 0.76501  0.36393  0.29995  Biso   1.000  C
  C510     1.0000 0.78139  0.36659  0.33501  Biso   1.000  C
  H313     1.0000 0.79470  0.34650  0.34490  Biso   1.000  H
  C511     1.0000 0.74705  0.39384  0.28537  Biso   1.000  C
  H314     1.0000 0.73640  0.39190  0.26170  Biso   1.000  H
  C512     1.0000 0.74411  0.42734  0.30476  Biso   1.000  C
  H315     1.0000 0.73170  0.44760  0.29410  Biso   1.000  H
  C513     1.0000 0.77763  0.39944  0.35518  Biso   1.000  C
  H316     1.0000 0.78730  0.40080  0.37930  Biso   1.000  H
  C514     1.0000 0.75971  0.43061  0.33999  Biso   1.000  C
  C515     1.0000 0.75660  0.46601  0.36106  Biso   1.000  C
  C516     1.0000 0.75540  0.46620  0.39964  Biso   1.000  C
  H317     1.0000 0.75510  0.44370  0.41270  Biso   1.000  H
  C517     1.0000 0.71940  0.48090  0.47910  Biso   1.000  C
  C518     1.0000 0.68710  0.46470  0.46190  Biso   1.000  C
  H318     1.0000 0.69000  0.45880  0.43670  Biso   1.000  H
  C519     1.0000 0.64900  0.45550  0.47820  Biso   1.000  C
  H319     1.0000 0.62790  0.45050  0.46370  Biso   1.000  H
  C520     1.0000 0.76440  0.47910  0.47860  Biso   1.000  C
  H320     1.0000 0.77740  0.45970  0.46690  Biso   1.000  H
  O81      1.0000 0.30198  0.29318  0.78716  Biso   1.000  O
  O82      1.0000 0.32673  0.24784  0.75166  Biso   1.000  O
  C521     1.0000 0.32819  0.27905  0.76846  Biso   1.000  C
  C522     1.0000 0.36393  0.29995  0.76501  Biso   1.000  C
  C523     1.0000 0.36659  0.33501  0.78139  Biso   1.000  C
  H321     1.0000 0.34650  0.34490  0.79470  Biso   1.000  H
  C524     1.0000 0.39384  0.28537  0.74705  Biso   1.000  C
  H322     1.0000 0.39190  0.26170  0.73640  Biso   1.000  H
  C525     1.0000 0.42734  0.30476  0.74411  Biso   1.000  C
  H323     1.0000 0.44760  0.29410  0.73170  Biso   1.000  H
  C526     1.0000 0.39944  0.35518  0.77763  Biso   1.000  C
  H324     1.0000 0.40080  0.37930  0.78730  Biso   1.000  H
  C527     1.0000 0.43061  0.33999  0.75971  Biso   1.000  C
  C528     1.0000 0.46601  0.36106  0.75660  Biso   1.000  C
  C529     1.0000 0.46620  0.39964  0.75540  Biso   1.000  C
  H325     1.0000 0.44370  0.41270  0.75510  Biso   1.000  H
  C530     1.0000 0.48090  0.47910  0.71940  Biso   1.000  C
  C531     1.0000 0.46470  0.46190  0.68710  Biso   1.000  C
  H326     1.0000 0.45880  0.43670  0.69000  Biso   1.000  H
  C532     1.0000 0.45550  0.47820  0.64900  Biso   1.000  C
  H327     1.0000 0.45050  0.46370  0.62790  Biso   1.000  H
  C533     1.0000 0.47910  0.47860  0.76440  Biso   1.000  C
  H328     1.0000 0.45970  0.46690  0.77740  Biso   1.000  H
  O83      1.0000 0.69802  0.29318  0.21284  Biso   1.000  O
  O84      1.0000 0.67327  0.24784  0.24834  Biso   1.000  O
  C534     1.0000 0.67181  0.27905  0.23154  Biso   1.000  C
  C535     1.0000 0.63607  0.29995  0.23499  Biso   1.000  C
  C536     1.0000 0.63341  0.33501  0.21861  Biso   1.000  C
  H329     1.0000 0.65350  0.34490  0.20530  Biso   1.000  H
  C537     1.0000 0.60616  0.28537  0.25295  Biso   1.000  C
  H330     1.0000 0.60810  0.26170  0.26360  Biso   1.000  H
  C538     1.0000 0.57266  0.30476  0.25589  Biso   1.000  C
  H331     1.0000 0.55240  0.29410  0.26830  Biso   1.000  H
  C539     1.0000 0.60056  0.35518  0.22237  Biso   1.000  C
  H332     1.0000 0.59920  0.37930  0.21270  Biso   1.000  H
  C540     1.0000 0.56939  0.33999  0.24029  Biso   1.000  C
  C541     1.0000 0.53399  0.36106  0.24340  Biso   1.000  C
  C542     1.0000 0.53380  0.39964  0.24460  Biso   1.000  C
  H333     1.0000 0.55630  0.41270  0.24490  Biso   1.000  H
  C543     1.0000 0.51910  0.47910  0.28060  Biso   1.000  C
  C544     1.0000 0.53530  0.46190  0.31290  Biso   1.000  C
  H334     1.0000 0.54120  0.43670  0.31000  Biso   1.000  H
  C545     1.0000 0.54450  0.47820  0.35100  Biso   1.000  C
  H335     1.0000 0.54950  0.46370  0.37210  Biso   1.000  H
  C546     1.0000 0.52090  0.47860  0.23560  Biso   1.000  C
  H336     1.0000 0.54030  0.46690  0.22260  Biso   1.000  H
  O85      1.0000 0.69802  0.70682  0.78716  Biso   1.000  O
  O86      1.0000 0.67327  0.75216  0.75166  Biso   1.000  O
  C547     1.0000 0.67181  0.72095  0.76846  Biso   1.000  C
  C548     1.0000 0.63607  0.70005  0.76501  Biso   1.000  C
  C549     1.0000 0.63341  0.66499  0.78139  Biso   1.000  C
  H337     1.0000 0.65350  0.65510  0.79470  Biso   1.000  H
  C550     1.0000 0.60616  0.71463  0.74705  Biso   1.000  C
  H338     1.0000 0.60810  0.73830  0.73640  Biso   1.000  H
  C551     1.0000 0.57266  0.69524  0.74411  Biso   1.000  C
  H339     1.0000 0.55240  0.70590  0.73170  Biso   1.000  H
  C552     1.0000 0.60056  0.64482  0.77763  Biso   1.000  C
  H340     1.0000 0.59920  0.62070  0.78730  Biso   1.000  H
  C553     1.0000 0.56939  0.66001  0.75971  Biso   1.000  C
  C554     1.0000 0.53399  0.63894  0.75660  Biso   1.000  C
  C555     1.0000 0.53380  0.60036  0.75540  Biso   1.000  C
  H341     1.0000 0.55630  0.58730  0.75510  Biso   1.000  H
  C556     1.0000 0.51910  0.52090  0.71940  Biso   1.000  C
  C557     1.0000 0.53530  0.53810  0.68710  Biso   1.000  C
  H342     1.0000 0.54120  0.56330  0.69000  Biso   1.000  H
  C558     1.0000 0.54450  0.52180  0.64900  Biso   1.000  C
  H343     1.0000 0.54950  0.53630  0.62790  Biso   1.000  H
  C559     1.0000 0.52090  0.52140  0.76440  Biso   1.000  C
  H344     1.0000 0.54030  0.53310  0.77740  Biso   1.000  H
  O87      1.0000 0.30198  0.70682  0.21284  Biso   1.000  O
  O88      1.0000 0.32673  0.75216  0.24834  Biso   1.000  O
  C560     1.0000 0.32819  0.72095  0.23154  Biso   1.000  C
  C561     1.0000 0.36393  0.70005  0.23499  Biso   1.000  C
  C562     1.0000 0.36659  0.66499  0.21861  Biso   1.000  C
  H345     1.0000 0.34650  0.65510  0.20530  Biso   1.000  H
  C563     1.0000 0.39384  0.71463  0.25295  Biso   1.000  C
  H346     1.0000 0.39190  0.73830  0.26360  Biso   1.000  H
  C564     1.0000 0.42734  0.69524  0.25589  Biso   1.000  C
  H347     1.0000 0.44760  0.70590  0.26830  Biso   1.000  H
  C565     1.0000 0.39944  0.64482  0.22237  Biso   1.000  C
  H348     1.0000 0.40080  0.62070  0.21270  Biso   1.000  H
  C566     1.0000 0.43061  0.66001  0.24029  Biso   1.000  C
  C567     1.0000 0.46601  0.63894  0.24340  Biso   1.000  C
  C568     1.0000 0.46620  0.60036  0.24460  Biso   1.000  C
  H349     1.0000 0.44370  0.58730  0.24490  Biso   1.000  H
  C569     1.0000 0.48090  0.52090  0.28060  Biso   1.000  C
  C570     1.0000 0.46470  0.53810  0.31290  Biso   1.000  C
  H350     1.0000 0.45880  0.56330  0.31000  Biso   1.000  H
  C571     1.0000 0.45550  0.52180  0.35100  Biso   1.000  C
  H351     1.0000 0.45050  0.53630  0.37210  Biso   1.000  H
  C572     1.0000 0.47910  0.52140  0.23560  Biso   1.000  C
  H352     1.0000 0.45970  0.53310  0.22260  Biso   1.000  H
  O89      1.0000 0.29318  0.21284  0.69802  Biso   1.000  O
  O90      1.0000 0.24784  0.24834  0.67327  Biso   1.000  O
  C573     1.0000 0.27905  0.23154  0.67181  Biso   1.000  C
  C574     1.0000 0.29995  0.23499  0.63607  Biso   1.000  C
  C575     1.0000 0.33501  0.21861  0.63341  Biso   1.000  C
  H353     1.0000 0.34490  0.20530  0.65350  Biso   1.000  H
  C576     1.0000 0.28537  0.25295  0.60616  Biso   1.000  C
  H354     1.0000 0.26170  0.26360  0.60810  Biso   1.000  H
  C577     1.0000 0.30476  0.25589  0.57266  Biso   1.000  C
  H355     1.0000 0.29410  0.26830  0.55240  Biso   1.000  H
  C578     1.0000 0.35518  0.22237  0.60056  Biso   1.000  C
  H356     1.0000 0.37930  0.21270  0.59920  Biso   1.000  H
  C579     1.0000 0.33999  0.24029  0.56939  Biso   1.000  C
  C580     1.0000 0.36106  0.24340  0.53399  Biso   1.000  C
  C581     1.0000 0.39964  0.24460  0.53380  Biso   1.000  C
  H357     1.0000 0.41270  0.24490  0.55630  Biso   1.000  H
  C582     1.0000 0.47910  0.28060  0.51910  Biso   1.000  C
  C583     1.0000 0.46190  0.31290  0.53530  Biso   1.000  C
  H358     1.0000 0.43670  0.31000  0.54120  Biso   1.000  H
  C584     1.0000 0.47820  0.35100  0.54450  Biso   1.000  C
  H359     1.0000 0.46370  0.37210  0.54950  Biso   1.000  H
  C585     1.0000 0.47860  0.23560  0.52090  Biso   1.000  C
  H360     1.0000 0.46690  0.22260  0.54030  Biso   1.000  H
  O91      1.0000 0.29318  0.78716  0.30198  Biso   1.000  O
  O92      1.0000 0.24784  0.75166  0.32673  Biso   1.000  O
  C586     1.0000 0.27905  0.76846  0.32819  Biso   1.000  C
  C587     1.0000 0.29995  0.76501  0.36393  Biso   1.000  C
  C588     1.0000 0.33501  0.78139  0.36659  Biso   1.000  C
  H361     1.0000 0.34490  0.79470  0.34650  Biso   1.000  H
  C589     1.0000 0.28537  0.74705  0.39384  Biso   1.000  C
  H362     1.0000 0.26170  0.73640  0.39190  Biso   1.000  H
  C590     1.0000 0.30476  0.74411  0.42734  Biso   1.000  C
  H363     1.0000 0.29410  0.73170  0.44760  Biso   1.000  H
  C591     1.0000 0.35518  0.77763  0.39944  Biso   1.000  C
  H364     1.0000 0.37930  0.78730  0.40080  Biso   1.000  H
  C592     1.0000 0.33999  0.75971  0.43061  Biso   1.000  C
  C593     1.0000 0.36106  0.75660  0.46601  Biso   1.000  C
  C594     1.0000 0.39964  0.75540  0.46620  Biso   1.000  C
  H365     1.0000 0.41270  0.75510  0.44370  Biso   1.000  H
  C595     1.0000 0.47910  0.71940  0.48090  Biso   1.000  C
  C596     1.0000 0.46190  0.68710  0.46470  Biso   1.000  C
  H366     1.0000 0.43670  0.69000  0.45880  Biso   1.000  H
  C597     1.0000 0.47820  0.64900  0.45550  Biso   1.000  C
  H367     1.0000 0.46370  0.62790  0.45050  Biso   1.000  H
  C598     1.0000 0.47860  0.76440  0.47910  Biso   1.000  C
  H368     1.0000 0.46690  0.77740  0.45970  Biso   1.000  H
  O93      1.0000 0.70682  0.21284  0.30198  Biso   1.000  O
  O94      1.0000 0.75216  0.24834  0.32673  Biso   1.000  O
  C599     1.0000 0.72095  0.23154  0.32819  Biso   1.000  C
  C600     1.0000 0.70005  0.23499  0.36393  Biso   1.000  C
  C601     1.0000 0.66499  0.21861  0.36659  Biso   1.000  C
  H369     1.0000 0.65510  0.20530  0.34650  Biso   1.000  H
  C602     1.0000 0.71463  0.25295  0.39384  Biso   1.000  C
  H370     1.0000 0.73830  0.26360  0.39190  Biso   1.000  H
  C603     1.0000 0.69524  0.25589  0.42734  Biso   1.000  C
  H371     1.0000 0.70590  0.26830  0.44760  Biso   1.000  H
  C604     1.0000 0.64482  0.22237  0.39944  Biso   1.000  C
  H372     1.0000 0.62070  0.21270  0.40080  Biso   1.000  H
  C605     1.0000 0.66001  0.24029  0.43061  Biso   1.000  C
  C606     1.0000 0.63894  0.24340  0.46601  Biso   1.000  C
  C607     1.0000 0.60036  0.24460  0.46620  Biso   1.000  C
  H373     1.0000 0.58730  0.24490  0.44370  Biso   1.000  H
  C608     1.0000 0.52090  0.28060  0.48090  Biso   1.000  C
  C609     1.0000 0.53810  0.31290  0.46470  Biso   1.000  C
  H374     1.0000 0.56330  0.31000  0.45880  Biso   1.000  H
  C610     1.0000 0.52180  0.35100  0.45550  Biso   1.000  C
  H375     1.0000 0.53630  0.37210  0.45050  Biso   1.000  H
  C611     1.0000 0.52140  0.23560  0.47910  Biso   1.000  C
  H376     1.0000 0.53310  0.22260  0.45970  Biso   1.000  H
  O95      1.0000 0.70682  0.78716  0.69802  Biso   1.000  O
  O96      1.0000 0.75216  0.75166  0.67327  Biso   1.000  O
  C612     1.0000 0.72095  0.76846  0.67181  Biso   1.000  C
  C613     1.0000 0.70005  0.76501  0.63607  Biso   1.000  C
  C614     1.0000 0.66499  0.78139  0.63341  Biso   1.000  C
  H377     1.0000 0.65510  0.79470  0.65350  Biso   1.000  H
  C615     1.0000 0.71463  0.74705  0.60616  Biso   1.000  C
  H378     1.0000 0.73830  0.73640  0.60810  Biso   1.000  H
  C616     1.0000 0.69524  0.74411  0.57266  Biso   1.000  C
  H379     1.0000 0.70590  0.73170  0.55240  Biso   1.000  H
  C617     1.0000 0.64482  0.77763  0.60056  Biso   1.000  C
  H380     1.0000 0.62070  0.78730  0.59920  Biso   1.000  H
  C618     1.0000 0.66001  0.75971  0.56939  Biso   1.000  C
  C619     1.0000 0.63894  0.75660  0.53399  Biso   1.000  C
  C620     1.0000 0.60036  0.75540  0.53380  Biso   1.000  C
  H381     1.0000 0.58730  0.75510  0.55630  Biso   1.000  H
  C621     1.0000 0.52090  0.71940  0.51910  Biso   1.000  C
  C622     1.0000 0.53810  0.68710  0.53530  Biso   1.000  C
  H382     1.0000 0.56330  0.69000  0.54120  Biso   1.000  H
  C623     1.0000 0.52180  0.64900  0.54450  Biso   1.000  C
  H383     1.0000 0.53630  0.62790  0.54950  Biso   1.000  H
  C624     1.0000 0.52140  0.76440  0.52090  Biso   1.000  C
  H384     1.0000 0.53310  0.77740  0.54030  Biso   1.000  H
  Al1      1.0000 0.25000  0.28620  0.21380  Biso   1.000  Al
  Al2      1.0000 0.75000  0.71380  0.21380  Biso   1.000  Al
  Al3      1.0000 0.75000  0.28620  0.78620  Biso   1.000  Al
  Al4      1.0000 0.25000  0.71380  0.78620  Biso   1.000  Al
  Al5      1.0000 0.21380  0.25000  0.28620  Biso   1.000  Al
  Al6      1.0000 0.21380  0.75000  0.71380  Biso   1.000  Al
  Al7      1.0000 0.78620  0.75000  0.28620  Biso   1.000  Al
  Al8      1.0000 0.78620  0.25000  0.71380  Biso   1.000  Al
  Al9      1.0000 0.28620  0.21380  0.25000  Biso   1.000  Al
  Al10     1.0000 0.71380  0.21380  0.75000  Biso   1.000  Al
  Al11     1.0000 0.28620  0.78620  0.75000  Biso   1.000  Al
  Al12     1.0000 0.71380  0.78620  0.25000  Biso   1.000  Al
  Al13     1.0000 0.75000  0.71380  0.78620  Biso   1.000  Al
  Al14     1.0000 0.25000  0.28620  0.78620  Biso   1.000  Al
  Al15     1.0000 0.25000  0.71380  0.21380  Biso   1.000  Al
  Al16     1.0000 0.75000  0.28620  0.21380  Biso   1.000  Al
  Al17     1.0000 0.78620  0.75000  0.71380  Biso   1.000  Al
  Al18     1.0000 0.78620  0.25000  0.28620  Biso   1.000  Al
  Al19     1.0000 0.21380  0.25000  0.71380  Biso   1.000  Al
  Al20     1.0000 0.21380  0.75000  0.28620  Biso   1.000  Al
  Al21     1.0000 0.71380  0.78620  0.75000  Biso   1.000  Al
  Al22     1.0000 0.28620  0.78620  0.25000  Biso   1.000  Al
  Al23     1.0000 0.71380  0.21380  0.25000  Biso   1.000  Al
  Al24     1.0000 0.28620  0.21380  0.75000  Biso   1.000  Al
  O97      1.0000 0.25000  0.25000  0.25000  Biso   1.000  O
  O98      1.0000 0.75000  0.75000  0.25000  Biso   1.000  O
  O99      1.0000 0.75000  0.25000  0.75000  Biso   1.000  O
  O100     1.0000 0.25000  0.75000  0.75000  Biso   1.000  O
  O101     1.0000 0.75000  0.75000  0.75000  Biso   1.000  O
  O102     1.0000 0.25000  0.25000  0.75000  Biso   1.000  O
  O103     1.0000 0.25000  0.75000  0.25000  Biso   1.000  O
  O104     1.0000 0.75000  0.25000  0.25000  Biso   1.000  O
  C625     1.0000 0.00000  0.25720  0.15817  Biso   1.000  C
  H385     1.0000 0.00000  0.25800  0.18420  Biso   1.000  H
  C626     1.0000 0.00000  0.25460  0.08079  Biso   1.000  C
  C627     1.0000 0.00000  0.25040  0.04012  Biso   1.000  C
  C628     1.0000 0.00000  0.74280  0.15817  Biso   1.000  C
  H386     1.0000 0.00000  0.74200  0.18420  Biso   1.000  H
  C629     1.0000 0.00000  0.74540  0.08079  Biso   1.000  C
  C630     1.0000 0.00000  0.74960  0.04012  Biso   1.000  C
  C631     1.0000 0.00000  0.25720  0.84183  Biso   1.000  C
  H387     1.0000 0.00000  0.25800  0.81580  Biso   1.000  H
  C632     1.0000 0.00000  0.25460  0.91921  Biso   1.000  C
  C633     1.0000 0.00000  0.25040  0.95988  Biso   1.000  C
  C634     1.0000 0.00000  0.74280  0.84183  Biso   1.000  C
  H388     1.0000 0.00000  0.74200  0.81580  Biso   1.000  H
  C635     1.0000 0.00000  0.74540  0.91921  Biso   1.000  C
  C636     1.0000 0.00000  0.74960  0.95988  Biso   1.000  C
  C637     1.0000 0.15817  0.00000  0.25720  Biso   1.000  C
  H389     1.0000 0.18420  0.00000  0.25800  Biso   1.000  H
  C638     1.0000 0.08079  0.00000  0.25460  Biso   1.000  C
  C639     1.0000 0.04012  0.00000  0.25040  Biso   1.000  C
  C640     1.0000 0.15817  0.00000  0.74280  Biso   1.000  C
  H390     1.0000 0.18420  0.00000  0.74200  Biso   1.000  H
  C641     1.0000 0.08079  0.00000  0.74540  Biso   1.000  C
  C642     1.0000 0.04012  0.00000  0.74960  Biso   1.000  C
  C643     1.0000 0.84183  0.00000  0.25720  Biso   1.000  C
  H391     1.0000 0.81580  0.00000  0.25800  Biso   1.000  H
  C644     1.0000 0.91921  0.00000  0.25460  Biso   1.000  C
  C645     1.0000 0.95988  0.00000  0.25040  Biso   1.000  C
  C646     1.0000 0.84183  0.00000  0.74280  Biso   1.000  C
  H392     1.0000 0.81580  0.00000  0.74200  Biso   1.000  H
  C647     1.0000 0.91921  0.00000  0.74540  Biso   1.000  C
  C648     1.0000 0.95988  0.00000  0.74960  Biso   1.000  C
  C649     1.0000 0.25720  0.15817  0.00000  Biso   1.000  C
  H393     1.0000 0.25800  0.18420  0.00000  Biso   1.000  H
  C650     1.0000 0.25460  0.08079  0.00000  Biso   1.000  C
  C651     1.0000 0.25040  0.04012  0.00000  Biso   1.000  C
  C652     1.0000 0.74280  0.15817  0.00000  Biso   1.000  C
  H394     1.0000 0.74200  0.18420  0.00000  Biso   1.000  H
  C653     1.0000 0.74540  0.08079  0.00000  Biso   1.000  C
  C654     1.0000 0.74960  0.04012  0.00000  Biso   1.000  C
  C655     1.0000 0.25720  0.84183  0.00000  Biso   1.000  C
  H395     1.0000 0.25800  0.81580  0.00000  Biso   1.000  H
  C656     1.0000 0.25460  0.91921  0.00000  Biso   1.000  C
  C657     1.0000 0.25040  0.95988  0.00000  Biso   1.000  C
  C658     1.0000 0.74280  0.84183  0.00000  Biso   1.000  C
  H396     1.0000 0.74200  0.81580  0.00000  Biso   1.000  H
  C659     1.0000 0.74540  0.91921  0.00000  Biso   1.000  C
  C660     1.0000 0.74960  0.95988  0.00000  Biso   1.000  C
  C661     1.0000 0.75720  0.50000  0.34183  Biso   1.000  C
  H397     1.0000 0.75800  0.50000  0.31580  Biso   1.000  H
  C662     1.0000 0.75460  0.50000  0.41921  Biso   1.000  C
  C663     1.0000 0.75040  0.50000  0.45988  Biso   1.000  C
  C664     1.0000 0.24280  0.50000  0.34183  Biso   1.000  C
  H398     1.0000 0.24200  0.50000  0.31580  Biso   1.000  H
  C665     1.0000 0.24540  0.50000  0.41921  Biso   1.000  C
  C666     1.0000 0.24960  0.50000  0.45988  Biso   1.000  C
  C667     1.0000 0.75720  0.50000  0.65817  Biso   1.000  C
  H399     1.0000 0.75800  0.50000  0.68420  Biso   1.000  H
  C668     1.0000 0.75460  0.50000  0.58079  Biso   1.000  C
  C669     1.0000 0.75040  0.50000  0.54012  Biso   1.000  C
  C670     1.0000 0.24280  0.50000  0.65817  Biso   1.000  C
  H400     1.0000 0.24200  0.50000  0.68420  Biso   1.000  H
  C671     1.0000 0.24540  0.50000  0.58079  Biso   1.000  C
  C672     1.0000 0.24960  0.50000  0.54012  Biso   1.000  C
  C673     1.0000 0.50000  0.65817  0.24280  Biso   1.000  C
  H401     1.0000 0.50000  0.68420  0.24200  Biso   1.000  H
  C674     1.0000 0.50000  0.58079  0.24540  Biso   1.000  C
  C675     1.0000 0.50000  0.54012  0.24960  Biso   1.000  C
  C676     1.0000 0.50000  0.65817  0.75720  Biso   1.000  C
  H402     1.0000 0.50000  0.68420  0.75800  Biso   1.000  H
  C677     1.0000 0.50000  0.58079  0.75460  Biso   1.000  C
  C678     1.0000 0.50000  0.54012  0.75040  Biso   1.000  C
  C679     1.0000 0.50000  0.34183  0.24280  Biso   1.000  C
  H403     1.0000 0.50000  0.31580  0.24200  Biso   1.000  H
  C680     1.0000 0.50000  0.41921  0.24540  Biso   1.000  C
  C681     1.0000 0.50000  0.45988  0.24960  Biso   1.000  C
  C682     1.0000 0.50000  0.34183  0.75720  Biso   1.000  C
  H404     1.0000 0.50000  0.31580  0.75800  Biso   1.000  H
  C683     1.0000 0.50000  0.41921  0.75460  Biso   1.000  C
  C684     1.0000 0.50000  0.45988  0.75040  Biso   1.000  C
  C685     1.0000 0.65817  0.75720  0.50000  Biso   1.000  C
  H405     1.0000 0.68420  0.75800  0.50000  Biso   1.000  H
  C686     1.0000 0.58079  0.75460  0.50000  Biso   1.000  C
  C687     1.0000 0.54012  0.75040  0.50000  Biso   1.000  C
  C688     1.0000 0.65817  0.24280  0.50000  Biso   1.000  C
  H406     1.0000 0.68420  0.24200  0.50000  Biso   1.000  H
  C689     1.0000 0.58079  0.24540  0.50000  Biso   1.000  C
  C690     1.0000 0.54012  0.24960  0.50000  Biso   1.000  C
  C691     1.0000 0.34183  0.75720  0.50000  Biso   1.000  C
  H407     1.0000 0.31580  0.75800  0.50000  Biso   1.000  H
  C692     1.0000 0.41921  0.75460  0.50000  Biso   1.000  C
  C693     1.0000 0.45988  0.75040  0.50000  Biso   1.000  C
  C694     1.0000 0.34183  0.24280  0.50000  Biso   1.000  C
  H408     1.0000 0.31580  0.24200  0.50000  Biso   1.000  H
  C695     1.0000 0.41921  0.24540  0.50000  Biso   1.000  C
  C696     1.0000 0.45988  0.24960  0.50000  Biso   1.000  C
