data_image0
_cell_length_a       31.8033
_cell_length_b       31.8033
_cell_length_c       34.5593
_cell_angle_alpha    90
_cell_angle_beta     90
_cell_angle_gamma    90

_symmetry_space_group_name_H-M    "P 1"
_symmetry_int_tables_number       1

loop_
  _symmetry_equiv_pos_as_xyz
  'x, y, z'

loop_
  _atom_site_label
  _atom_site_occupancy
  _atom_site_fract_x
  _atom_site_fract_y
  _atom_site_fract_z
  _atom_site_thermal_displace_type
  _atom_site_B_iso_or_equiv
  _atom_site_type_symbol
  P1       1.0000 0.05084  0.50152  0.17064  Biso   1.000  P
  P2       1.0000 0.17618  0.69861  0.32500  Biso   1.000  P
  P3       1.0000 0.96685  0.32645  0.07578  Biso   1.000  P
  P4       1.0000 0.15376  0.58464  0.27232  Biso   1.000  P
  O1       1.0000 0.22003  0.71025  0.34217  Biso   1.000  O
  O2       1.0000 0.21739  0.65015  0.22290  Biso   1.000  O
  O3       1.0000 0.15634  0.73952  0.30922  Biso   1.000  O
  O4       1.0000 0.98302  0.32929  0.03414  Biso   1.000  O
  O5       1.0000 0.96566  0.48094  0.05215  Biso   1.000  O
  O6       1.0000 0.05809  0.51715  0.02728  Biso   1.000  O
  O7       1.0000 0.93896  0.36456  0.08547  Biso   1.000  O
  O8       1.0000 0.12432  0.49616  0.08138  Biso   1.000  O
  O9       1.0000 0.00932  0.54589  0.08927  Biso   1.000  O
  O10      1.0000 0.10658  0.69321  0.25626  Biso   1.000  O
  O11      1.0000 0.14998  0.67728  0.35548  Biso   1.000  O
  O12      1.0000 0.96691  0.43531  0.12457  Biso   1.000  O
  O13      1.0000 0.18421  0.66951  0.28973  Biso   1.000  O
  O14      1.0000 0.18590  0.73168  0.23377  Biso   1.000  O
  O15      1.0000 0.00066  0.32018  0.10589  Biso   1.000  O
  O16      1.0000 0.05816  0.51868  0.21071  Biso   1.000  O
  O17      1.0000 0.20177  0.58587  0.27467  Biso   1.000  O
  O18      1.0000 0.15624  0.80649  0.26561  Biso   1.000  O
  O19      1.0000 0.07754  0.52567  0.14101  Biso   1.000  O
  O20      1.0000 0.00431  0.50413  0.15991  Biso   1.000  O
  O21      1.0000 0.13782  0.61619  0.24208  Biso   1.000  O
  O22      1.0000 0.93704  0.28676  0.07547  Biso   1.000  O
  O23      1.0000 0.13930  0.54118  0.26336  Biso   1.000  O
  O24      1.0000 0.06374  0.45373  0.17202  Biso   1.000  O
  O25      1.0000 0.13510  0.59702  0.31307  Biso   1.000  O
  Mo1      1.0000 0.12816  0.74962  0.24913  Biso   1.000  Mo
  Mo2      1.0000 0.15711  0.67671  0.22935  Biso   1.000  Mo
  Mo3      1.0000 0.07437  0.53020  0.08095  Biso   1.000  Mo
  Mo4      1.0000 0.94356  0.42704  0.07316  Biso   1.000  Mo
  Mo5      1.0000 0.24492  0.63376  0.27578  Biso   1.000  Mo
  Mo6      1.0000 0.97411  0.49272  0.10758  Biso   1.000  Mo
  P5       1.0000 0.55084  0.00152  0.67064  Biso   1.000  P
  P6       1.0000 0.67618  0.19861  0.82500  Biso   1.000  P
  P7       1.0000 0.46685  0.82645  0.57578  Biso   1.000  P
  P8       1.0000 0.65376  0.08464  0.77232  Biso   1.000  P
  O26      1.0000 0.72003  0.21025  0.84217  Biso   1.000  O
  O27      1.0000 0.71739  0.15015  0.72290  Biso   1.000  O
  O28      1.0000 0.65634  0.23952  0.80922  Biso   1.000  O
  O29      1.0000 0.48302  0.82929  0.53414  Biso   1.000  O
  O30      1.0000 0.46566  0.98094  0.55215  Biso   1.000  O
  O31      1.0000 0.55809  0.01715  0.52728  Biso   1.000  O
  O32      1.0000 0.43896  0.86456  0.58547  Biso   1.000  O
  O33      1.0000 0.62432  0.99616  0.58138  Biso   1.000  O
  O34      1.0000 0.50932  0.04589  0.58927  Biso   1.000  O
  O35      1.0000 0.60658  0.19321  0.75626  Biso   1.000  O
  O36      1.0000 0.64998  0.17728  0.85548  Biso   1.000  O
  O37      1.0000 0.46691  0.93531  0.62457  Biso   1.000  O
  O38      1.0000 0.68421  0.16951  0.78973  Biso   1.000  O
  O39      1.0000 0.68590  0.23168  0.73377  Biso   1.000  O
  O40      1.0000 0.50066  0.82018  0.60589  Biso   1.000  O
  O41      1.0000 0.55816  0.01868  0.71071  Biso   1.000  O
  O42      1.0000 0.70177  0.08587  0.77467  Biso   1.000  O
  O43      1.0000 0.65624  0.30649  0.76561  Biso   1.000  O
  O44      1.0000 0.57754  0.02567  0.64101  Biso   1.000  O
  O45      1.0000 0.50431  0.00413  0.65991  Biso   1.000  O
  O46      1.0000 0.63782  0.11619  0.74208  Biso   1.000  O
  O47      1.0000 0.43704  0.78676  0.57547  Biso   1.000  O
  O48      1.0000 0.63930  0.04118  0.76336  Biso   1.000  O
  O49      1.0000 0.56374  0.95373  0.67202  Biso   1.000  O
  O50      1.0000 0.63510  0.09702  0.81307  Biso   1.000  O
  Mo7      1.0000 0.62816  0.24962  0.74913  Biso   1.000  Mo
  Mo8      1.0000 0.65711  0.17671  0.72935  Biso   1.000  Mo
  Mo9      1.0000 0.57437  0.03020  0.58095  Biso   1.000  Mo
  Mo10     1.0000 0.44356  0.92704  0.57316  Biso   1.000  Mo
  Mo11     1.0000 0.74492  0.13376  0.77578  Biso   1.000  Mo
  Mo12     1.0000 0.47411  0.99272  0.60758  Biso   1.000  Mo
  P9       1.0000 0.44916  0.49848  0.67064  Biso   1.000  P
  P10      1.0000 0.32382  0.30139  0.82500  Biso   1.000  P
  P11      1.0000 0.53315  0.67355  0.57578  Biso   1.000  P
  P12      1.0000 0.34624  0.41536  0.77232  Biso   1.000  P
  O51      1.0000 0.27997  0.28975  0.84217  Biso   1.000  O
  O52      1.0000 0.28261  0.34985  0.72290  Biso   1.000  O
  O53      1.0000 0.34366  0.26048  0.80922  Biso   1.000  O
  O54      1.0000 0.51698  0.67071  0.53414  Biso   1.000  O
  O55      1.0000 0.53434  0.51906  0.55215  Biso   1.000  O
  O56      1.0000 0.44191  0.48285  0.52728  Biso   1.000  O
  O57      1.0000 0.56104  0.63544  0.58547  Biso   1.000  O
  O58      1.0000 0.37568  0.50384  0.58138  Biso   1.000  O
  O59      1.0000 0.49068  0.45411  0.58927  Biso   1.000  O
  O60      1.0000 0.39342  0.30679  0.75626  Biso   1.000  O
  O61      1.0000 0.35002  0.32272  0.85548  Biso   1.000  O
  O62      1.0000 0.53309  0.56469  0.62457  Biso   1.000  O
  O63      1.0000 0.31579  0.33049  0.78973  Biso   1.000  O
  O64      1.0000 0.31410  0.26832  0.73377  Biso   1.000  O
  O65      1.0000 0.49934  0.67982  0.60589  Biso   1.000  O
  O66      1.0000 0.44184  0.48132  0.71071  Biso   1.000  O
  O67      1.0000 0.29823  0.41413  0.77467  Biso   1.000  O
  O68      1.0000 0.34376  0.19351  0.76561  Biso   1.000  O
  O69      1.0000 0.42246  0.47433  0.64101  Biso   1.000  O
  O70      1.0000 0.49569  0.49587  0.65991  Biso   1.000  O
  O71      1.0000 0.36218  0.38381  0.74208  Biso   1.000  O
  O72      1.0000 0.56296  0.71324  0.57547  Biso   1.000  O
  O73      1.0000 0.36070  0.45882  0.76336  Biso   1.000  O
  O74      1.0000 0.43626  0.54627  0.67202  Biso   1.000  O
  O75      1.0000 0.36490  0.40298  0.81307  Biso   1.000  O
  Mo13     1.0000 0.37184  0.25038  0.74913  Biso   1.000  Mo
  Mo14     1.0000 0.34289  0.32329  0.72935  Biso   1.000  Mo
  Mo15     1.0000 0.42563  0.46980  0.58095  Biso   1.000  Mo
  Mo16     1.0000 0.55644  0.57296  0.57316  Biso   1.000  Mo
  Mo17     1.0000 0.25508  0.36624  0.77578  Biso   1.000  Mo
  Mo18     1.0000 0.52589  0.50728  0.60758  Biso   1.000  Mo
  P13      1.0000 0.94916  0.99848  0.17064  Biso   1.000  P
  P14      1.0000 0.82382  0.80139  0.32500  Biso   1.000  P
  P15      1.0000 0.03315  0.17355  0.07578  Biso   1.000  P
  P16      1.0000 0.84624  0.91536  0.27232  Biso   1.000  P
  O76      1.0000 0.77997  0.78975  0.34217  Biso   1.000  O
  O77      1.0000 0.78261  0.84985  0.22290  Biso   1.000  O
  O78      1.0000 0.84366  0.76048  0.30922  Biso   1.000  O
  O79      1.0000 0.01698  0.17071  0.03414  Biso   1.000  O
  O80      1.0000 0.03434  0.01906  0.05215  Biso   1.000  O
  O81      1.0000 0.94191  0.98285  0.02728  Biso   1.000  O
  O82      1.0000 0.06104  0.13544  0.08547  Biso   1.000  O
  O83      1.0000 0.87568  0.00384  0.08138  Biso   1.000  O
  O84      1.0000 0.99068  0.95411  0.08927  Biso   1.000  O
  O85      1.0000 0.89342  0.80679  0.25626  Biso   1.000  O
  O86      1.0000 0.85002  0.82272  0.35548  Biso   1.000  O
  O87      1.0000 0.03309  0.06469  0.12457  Biso   1.000  O
  O88      1.0000 0.81579  0.83049  0.28973  Biso   1.000  O
  O89      1.0000 0.81410  0.76832  0.23377  Biso   1.000  O
  O90      1.0000 0.99934  0.17982  0.10589  Biso   1.000  O
  O91      1.0000 0.94184  0.98132  0.21071  Biso   1.000  O
  O92      1.0000 0.79823  0.91413  0.27467  Biso   1.000  O
  O93      1.0000 0.84376  0.69351  0.26561  Biso   1.000  O
  O94      1.0000 0.92246  0.97433  0.14101  Biso   1.000  O
  O95      1.0000 0.99569  0.99587  0.15991  Biso   1.000  O
  O96      1.0000 0.86218  0.88381  0.24208  Biso   1.000  O
  O97      1.0000 0.06296  0.21324  0.07547  Biso   1.000  O
  O98      1.0000 0.86070  0.95882  0.26336  Biso   1.000  O
  O99      1.0000 0.93626  0.04627  0.17202  Biso   1.000  O
  O100     1.0000 0.86490  0.90298  0.31307  Biso   1.000  O
  Mo19     1.0000 0.87184  0.75038  0.24913  Biso   1.000  Mo
  Mo20     1.0000 0.84289  0.82329  0.22935  Biso   1.000  Mo
  Mo21     1.0000 0.92563  0.96980  0.08095  Biso   1.000  Mo
  Mo22     1.0000 0.05644  0.07296  0.07316  Biso   1.000  Mo
  Mo23     1.0000 0.75508  0.86624  0.27578  Biso   1.000  Mo
  Mo24     1.0000 0.02589  0.00728  0.10758  Biso   1.000  Mo
  P17      1.0000 0.74848  0.80084  0.42064  Biso   1.000  P
  P18      1.0000 0.55139  0.92618  0.57500  Biso   1.000  P
  P19      1.0000 0.92355  0.71685  0.32578  Biso   1.000  P
  P20      1.0000 0.66536  0.90376  0.52232  Biso   1.000  P
  O101     1.0000 0.53975  0.97003  0.59217  Biso   1.000  O
  O102     1.0000 0.59985  0.96739  0.47290  Biso   1.000  O
  O103     1.0000 0.51048  0.90634  0.55922  Biso   1.000  O
  O104     1.0000 0.92071  0.73302  0.28414  Biso   1.000  O
  O105     1.0000 0.76906  0.71566  0.30215  Biso   1.000  O
  O106     1.0000 0.73285  0.80809  0.27728  Biso   1.000  O
  O107     1.0000 0.88544  0.68896  0.33547  Biso   1.000  O
  O108     1.0000 0.75384  0.87432  0.33138  Biso   1.000  O
  O109     1.0000 0.70411  0.75932  0.33927  Biso   1.000  O
  O110     1.0000 0.55679  0.85658  0.50626  Biso   1.000  O
  O111     1.0000 0.57272  0.89998  0.60548  Biso   1.000  O
  O112     1.0000 0.81469  0.71691  0.37457  Biso   1.000  O
  O113     1.0000 0.58049  0.93421  0.53973  Biso   1.000  O
  O114     1.0000 0.51832  0.93590  0.48377  Biso   1.000  O
  O115     1.0000 0.92982  0.75066  0.35589  Biso   1.000  O
  O116     1.0000 0.73132  0.80816  0.46071  Biso   1.000  O
  O117     1.0000 0.66413  0.95177  0.52467  Biso   1.000  O
  O118     1.0000 0.44351  0.90624  0.51561  Biso   1.000  O
  O119     1.0000 0.72433  0.82754  0.39101  Biso   1.000  O
  O120     1.0000 0.74587  0.75431  0.40991  Biso   1.000  O
  O121     1.0000 0.63381  0.88782  0.49208  Biso   1.000  O
  O122     1.0000 0.96324  0.68704  0.32547  Biso   1.000  O
  O123     1.0000 0.70882  0.88930  0.51336  Biso   1.000  O
  O124     1.0000 0.79627  0.81374  0.42202  Biso   1.000  O
  O125     1.0000 0.65298  0.88510  0.56307  Biso   1.000  O
  Mo25     1.0000 0.50038  0.87816  0.49913  Biso   1.000  Mo
  Mo26     1.0000 0.57329  0.90711  0.47935  Biso   1.000  Mo
  Mo27     1.0000 0.71980  0.82437  0.33095  Biso   1.000  Mo
  Mo28     1.0000 0.82296  0.69356  0.32316  Biso   1.000  Mo
  Mo29     1.0000 0.61624  0.99492  0.52578  Biso   1.000  Mo
  Mo30     1.0000 0.75728  0.72411  0.35758  Biso   1.000  Mo
  P21      1.0000 0.24848  0.30084  0.92064  Biso   1.000  P
  P22      1.0000 0.05139  0.42618  0.07500  Biso   1.000  P
  P23      1.0000 0.42355  0.21685  0.82578  Biso   1.000  P
  P24      1.0000 0.16536  0.40376  0.02232  Biso   1.000  P
  O126     1.0000 0.03975  0.47003  0.09217  Biso   1.000  O
  O127     1.0000 0.09985  0.46739  0.97290  Biso   1.000  O
  O128     1.0000 0.01048  0.40634  0.05922  Biso   1.000  O
  O129     1.0000 0.42071  0.23302  0.78414  Biso   1.000  O
  O130     1.0000 0.26906  0.21566  0.80215  Biso   1.000  O
  O131     1.0000 0.23285  0.30809  0.77728  Biso   1.000  O
  O132     1.0000 0.38544  0.18896  0.83547  Biso   1.000  O
  O133     1.0000 0.25384  0.37432  0.83138  Biso   1.000  O
  O134     1.0000 0.20411  0.25932  0.83927  Biso   1.000  O
  O135     1.0000 0.05679  0.35658  0.00626  Biso   1.000  O
  O136     1.0000 0.07272  0.39998  0.10548  Biso   1.000  O
  O137     1.0000 0.31469  0.21691  0.87457  Biso   1.000  O
  O138     1.0000 0.08049  0.43421  0.03973  Biso   1.000  O
  O139     1.0000 0.01832  0.43590  0.98377  Biso   1.000  O
  O140     1.0000 0.42982  0.25066  0.85589  Biso   1.000  O
  O141     1.0000 0.23132  0.30816  0.96071  Biso   1.000  O
  O142     1.0000 0.16413  0.45177  0.02467  Biso   1.000  O
  O143     1.0000 0.94351  0.40624  0.01561  Biso   1.000  O
  O144     1.0000 0.22433  0.32754  0.89101  Biso   1.000  O
  O145     1.0000 0.24587  0.25431  0.90991  Biso   1.000  O
  O146     1.0000 0.13381  0.38782  0.99208  Biso   1.000  O
  O147     1.0000 0.46324  0.18704  0.82547  Biso   1.000  O
  O148     1.0000 0.20882  0.38930  0.01336  Biso   1.000  O
  O149     1.0000 0.29627  0.31374  0.92202  Biso   1.000  O
  O150     1.0000 0.15298  0.38510  0.06307  Biso   1.000  O
  Mo31     1.0000 0.00038  0.37816  0.99913  Biso   1.000  Mo
  Mo32     1.0000 0.07329  0.40711  0.97935  Biso   1.000  Mo
  Mo33     1.0000 0.21980  0.32437  0.83095  Biso   1.000  Mo
  Mo34     1.0000 0.32296  0.19356  0.82316  Biso   1.000  Mo
  Mo35     1.0000 0.11624  0.49492  0.02578  Biso   1.000  Mo
  Mo36     1.0000 0.25728  0.22411  0.85758  Biso   1.000  Mo
  P25      1.0000 0.75152  0.19916  0.92064  Biso   1.000  P
  P26      1.0000 0.94861  0.07382  0.07500  Biso   1.000  P
  P27      1.0000 0.57645  0.28315  0.82578  Biso   1.000  P
  P28      1.0000 0.83464  0.09624  0.02232  Biso   1.000  P
  O151     1.0000 0.96025  0.02997  0.09217  Biso   1.000  O
  O152     1.0000 0.90015  0.03261  0.97290  Biso   1.000  O
  O153     1.0000 0.98952  0.09366  0.05922  Biso   1.000  O
  O154     1.0000 0.57929  0.26698  0.78414  Biso   1.000  O
  O155     1.0000 0.73094  0.28434  0.80215  Biso   1.000  O
  O156     1.0000 0.76715  0.19191  0.77728  Biso   1.000  O
  O157     1.0000 0.61456  0.31104  0.83547  Biso   1.000  O
  O158     1.0000 0.74616  0.12568  0.83138  Biso   1.000  O
  O159     1.0000 0.79589  0.24068  0.83927  Biso   1.000  O
  O160     1.0000 0.94321  0.14342  0.00626  Biso   1.000  O
  O161     1.0000 0.92728  0.10002  0.10548  Biso   1.000  O
  O162     1.0000 0.68531  0.28309  0.87457  Biso   1.000  O
  O163     1.0000 0.91951  0.06579  0.03973  Biso   1.000  O
  O164     1.0000 0.98168  0.06410  0.98377  Biso   1.000  O
  O165     1.0000 0.57018  0.24934  0.85589  Biso   1.000  O
  O166     1.0000 0.76868  0.19184  0.96071  Biso   1.000  O
  O167     1.0000 0.83587  0.04823  0.02467  Biso   1.000  O
  O168     1.0000 0.05649  0.09376  0.01561  Biso   1.000  O
  O169     1.0000 0.77567  0.17246  0.89101  Biso   1.000  O
  O170     1.0000 0.75413  0.24569  0.90991  Biso   1.000  O
  O171     1.0000 0.86619  0.11218  0.99208  Biso   1.000  O
  O172     1.0000 0.53676  0.31296  0.82547  Biso   1.000  O
  O173     1.0000 0.79118  0.11070  0.01336  Biso   1.000  O
  O174     1.0000 0.70373  0.18626  0.92202  Biso   1.000  O
  O175     1.0000 0.84702  0.11490  0.06307  Biso   1.000  O
  Mo37     1.0000 0.99962  0.12184  0.99913  Biso   1.000  Mo
  Mo38     1.0000 0.92671  0.09289  0.97935  Biso   1.000  Mo
  Mo39     1.0000 0.78020  0.17563  0.83095  Biso   1.000  Mo
  Mo40     1.0000 0.67704  0.30644  0.82316  Biso   1.000  Mo
  Mo41     1.0000 0.88376  0.00508  0.02578  Biso   1.000  Mo
  Mo42     1.0000 0.74272  0.27589  0.85758  Biso   1.000  Mo
  P29      1.0000 0.25152  0.69916  0.42064  Biso   1.000  P
  P30      1.0000 0.44861  0.57382  0.57500  Biso   1.000  P
  P31      1.0000 0.07645  0.78315  0.32578  Biso   1.000  P
  P32      1.0000 0.33464  0.59624  0.52232  Biso   1.000  P
  O176     1.0000 0.46025  0.52997  0.59217  Biso   1.000  O
  O177     1.0000 0.40015  0.53261  0.47290  Biso   1.000  O
  O178     1.0000 0.48952  0.59366  0.55922  Biso   1.000  O
  O179     1.0000 0.07929  0.76698  0.28414  Biso   1.000  O
  O180     1.0000 0.23094  0.78434  0.30215  Biso   1.000  O
  O181     1.0000 0.26715  0.69191  0.27728  Biso   1.000  O
  O182     1.0000 0.11456  0.81104  0.33547  Biso   1.000  O
  O183     1.0000 0.24616  0.62568  0.33138  Biso   1.000  O
  O184     1.0000 0.29589  0.74068  0.33927  Biso   1.000  O
  O185     1.0000 0.44321  0.64342  0.50626  Biso   1.000  O
  O186     1.0000 0.42728  0.60002  0.60548  Biso   1.000  O
  O187     1.0000 0.18531  0.78309  0.37457  Biso   1.000  O
  O188     1.0000 0.41951  0.56579  0.53973  Biso   1.000  O
  O189     1.0000 0.48168  0.56410  0.48377  Biso   1.000  O
  O190     1.0000 0.07018  0.74934  0.35589  Biso   1.000  O
  O191     1.0000 0.26868  0.69184  0.46071  Biso   1.000  O
  O192     1.0000 0.33587  0.54823  0.52467  Biso   1.000  O
  O193     1.0000 0.55649  0.59376  0.51561  Biso   1.000  O
  O194     1.0000 0.27567  0.67246  0.39101  Biso   1.000  O
  O195     1.0000 0.25413  0.74569  0.40991  Biso   1.000  O
  O196     1.0000 0.36619  0.61218  0.49208  Biso   1.000  O
  O197     1.0000 0.03676  0.81296  0.32547  Biso   1.000  O
  O198     1.0000 0.29118  0.61070  0.51336  Biso   1.000  O
  O199     1.0000 0.20373  0.68626  0.42202  Biso   1.000  O
  O200     1.0000 0.34702  0.61490  0.56307  Biso   1.000  O
  Mo43     1.0000 0.49962  0.62184  0.49913  Biso   1.000  Mo
  Mo44     1.0000 0.42671  0.59289  0.47935  Biso   1.000  Mo
  Mo45     1.0000 0.28020  0.67563  0.33095  Biso   1.000  Mo
  Mo46     1.0000 0.17704  0.80644  0.32316  Biso   1.000  Mo
  Mo47     1.0000 0.38376  0.50508  0.52578  Biso   1.000  Mo
  Mo48     1.0000 0.24272  0.77589  0.35758  Biso   1.000  Mo
  P33      1.0000 0.44916  0.50152  0.82936  Biso   1.000  P
  P34      1.0000 0.32382  0.69861  0.67500  Biso   1.000  P
  P35      1.0000 0.53315  0.32645  0.92422  Biso   1.000  P
  P36      1.0000 0.34624  0.58464  0.72768  Biso   1.000  P
  O201     1.0000 0.27997  0.71025  0.65783  Biso   1.000  O
  O202     1.0000 0.28261  0.65015  0.77710  Biso   1.000  O
  O203     1.0000 0.34366  0.73952  0.69078  Biso   1.000  O
  O204     1.0000 0.51698  0.32929  0.96586  Biso   1.000  O
  O205     1.0000 0.53434  0.48094  0.94785  Biso   1.000  O
  O206     1.0000 0.44191  0.51715  0.97272  Biso   1.000  O
  O207     1.0000 0.56104  0.36456  0.91453  Biso   1.000  O
  O208     1.0000 0.37568  0.49616  0.91862  Biso   1.000  O
  O209     1.0000 0.49068  0.54589  0.91073  Biso   1.000  O
  O210     1.0000 0.39342  0.69321  0.74374  Biso   1.000  O
  O211     1.0000 0.35002  0.67728  0.64452  Biso   1.000  O
  O212     1.0000 0.53309  0.43531  0.87543  Biso   1.000  O
  O213     1.0000 0.31579  0.66951  0.71027  Biso   1.000  O
  O214     1.0000 0.31410  0.73168  0.76623  Biso   1.000  O
  O215     1.0000 0.49934  0.32018  0.89411  Biso   1.000  O
  O216     1.0000 0.44184  0.51868  0.78929  Biso   1.000  O
  O217     1.0000 0.29823  0.58587  0.72533  Biso   1.000  O
  O218     1.0000 0.34376  0.80649  0.73439  Biso   1.000  O
  O219     1.0000 0.42246  0.52567  0.85899  Biso   1.000  O
  O220     1.0000 0.49569  0.50413  0.84009  Biso   1.000  O
  O221     1.0000 0.36218  0.61619  0.75792  Biso   1.000  O
  O222     1.0000 0.56296  0.28676  0.92453  Biso   1.000  O
  O223     1.0000 0.36070  0.54118  0.73664  Biso   1.000  O
  O224     1.0000 0.43626  0.45373  0.82798  Biso   1.000  O
  O225     1.0000 0.36490  0.59702  0.68693  Biso   1.000  O
  Mo49     1.0000 0.37184  0.74962  0.75087  Biso   1.000  Mo
  Mo50     1.0000 0.34289  0.67671  0.77065  Biso   1.000  Mo
  Mo51     1.0000 0.42563  0.53020  0.91905  Biso   1.000  Mo
  Mo52     1.0000 0.55644  0.42704  0.92684  Biso   1.000  Mo
  Mo53     1.0000 0.25508  0.63376  0.72422  Biso   1.000  Mo
  Mo54     1.0000 0.52589  0.49272  0.89242  Biso   1.000  Mo
  P37      1.0000 0.94916  0.00152  0.32936  Biso   1.000  P
  P38      1.0000 0.82382  0.19861  0.17500  Biso   1.000  P
  P39      1.0000 0.03315  0.82645  0.42422  Biso   1.000  P
  P40      1.0000 0.84624  0.08464  0.22768  Biso   1.000  P
  O226     1.0000 0.77997  0.21025  0.15783  Biso   1.000  O
  O227     1.0000 0.78261  0.15015  0.27710  Biso   1.000  O
  O228     1.0000 0.84366  0.23952  0.19078  Biso   1.000  O
  O229     1.0000 0.01698  0.82929  0.46586  Biso   1.000  O
  O230     1.0000 0.03434  0.98094  0.44785  Biso   1.000  O
  O231     1.0000 0.94191  0.01715  0.47272  Biso   1.000  O
  O232     1.0000 0.06104  0.86456  0.41453  Biso   1.000  O
  O233     1.0000 0.87568  0.99616  0.41862  Biso   1.000  O
  O234     1.0000 0.99068  0.04589  0.41073  Biso   1.000  O
  O235     1.0000 0.89342  0.19321  0.24374  Biso   1.000  O
  O236     1.0000 0.85002  0.17728  0.14452  Biso   1.000  O
  O237     1.0000 0.03309  0.93531  0.37543  Biso   1.000  O
  O238     1.0000 0.81579  0.16951  0.21027  Biso   1.000  O
  O239     1.0000 0.81410  0.23168  0.26623  Biso   1.000  O
  O240     1.0000 0.99934  0.82018  0.39411  Biso   1.000  O
  O241     1.0000 0.94184  0.01868  0.28929  Biso   1.000  O
  O242     1.0000 0.79823  0.08587  0.22533  Biso   1.000  O
  O243     1.0000 0.84376  0.30649  0.23439  Biso   1.000  O
  O244     1.0000 0.92246  0.02567  0.35899  Biso   1.000  O
  O245     1.0000 0.99569  0.00413  0.34009  Biso   1.000  O
  O246     1.0000 0.86218  0.11619  0.25792  Biso   1.000  O
  O247     1.0000 0.06296  0.78676  0.42453  Biso   1.000  O
  O248     1.0000 0.86070  0.04118  0.23664  Biso   1.000  O
  O249     1.0000 0.93626  0.95373  0.32798  Biso   1.000  O
  O250     1.0000 0.86490  0.09702  0.18693  Biso   1.000  O
  Mo55     1.0000 0.87184  0.24962  0.25087  Biso   1.000  Mo
  Mo56     1.0000 0.84289  0.17671  0.27065  Biso   1.000  Mo
  Mo57     1.0000 0.92563  0.03020  0.41905  Biso   1.000  Mo
  Mo58     1.0000 0.05644  0.92704  0.42684  Biso   1.000  Mo
  Mo59     1.0000 0.75508  0.13376  0.22422  Biso   1.000  Mo
  Mo60     1.0000 0.02589  0.99272  0.39242  Biso   1.000  Mo
  P41      1.0000 0.05084  0.49848  0.32936  Biso   1.000  P
  P42      1.0000 0.17618  0.30139  0.17500  Biso   1.000  P
  P43      1.0000 0.96685  0.67355  0.42422  Biso   1.000  P
  P44      1.0000 0.15376  0.41536  0.22768  Biso   1.000  P
  O251     1.0000 0.22003  0.28975  0.15783  Biso   1.000  O
  O252     1.0000 0.21739  0.34985  0.27710  Biso   1.000  O
  O253     1.0000 0.15634  0.26048  0.19078  Biso   1.000  O
  O254     1.0000 0.98302  0.67071  0.46586  Biso   1.000  O
  O255     1.0000 0.96566  0.51906  0.44785  Biso   1.000  O
  O256     1.0000 0.05809  0.48285  0.47272  Biso   1.000  O
  O257     1.0000 0.93896  0.63544  0.41453  Biso   1.000  O
  O258     1.0000 0.12432  0.50384  0.41862  Biso   1.000  O
  O259     1.0000 0.00932  0.45411  0.41073  Biso   1.000  O
  O260     1.0000 0.10658  0.30679  0.24374  Biso   1.000  O
  O261     1.0000 0.14998  0.32272  0.14452  Biso   1.000  O
  O262     1.0000 0.96691  0.56469  0.37543  Biso   1.000  O
  O263     1.0000 0.18421  0.33049  0.21027  Biso   1.000  O
  O264     1.0000 0.18590  0.26832  0.26623  Biso   1.000  O
  O265     1.0000 0.00066  0.67982  0.39411  Biso   1.000  O
  O266     1.0000 0.05816  0.48132  0.28929  Biso   1.000  O
  O267     1.0000 0.20177  0.41413  0.22533  Biso   1.000  O
  O268     1.0000 0.15624  0.19351  0.23439  Biso   1.000  O
  O269     1.0000 0.07754  0.47433  0.35899  Biso   1.000  O
  O270     1.0000 0.00431  0.49587  0.34009  Biso   1.000  O
  O271     1.0000 0.13782  0.38381  0.25792  Biso   1.000  O
  O272     1.0000 0.93704  0.71324  0.42453  Biso   1.000  O
  O273     1.0000 0.13930  0.45882  0.23664  Biso   1.000  O
  O274     1.0000 0.06374  0.54627  0.32798  Biso   1.000  O
  O275     1.0000 0.13510  0.40298  0.18693  Biso   1.000  O
  Mo61     1.0000 0.12816  0.25038  0.25087  Biso   1.000  Mo
  Mo62     1.0000 0.15711  0.32329  0.27065  Biso   1.000  Mo
  Mo63     1.0000 0.07437  0.46980  0.41905  Biso   1.000  Mo
  Mo64     1.0000 0.94356  0.57296  0.42684  Biso   1.000  Mo
  Mo65     1.0000 0.24492  0.36624  0.22422  Biso   1.000  Mo
  Mo66     1.0000 0.97411  0.50728  0.39242  Biso   1.000  Mo
  P45      1.0000 0.55084  0.99848  0.82936  Biso   1.000  P
  P46      1.0000 0.67618  0.80139  0.67500  Biso   1.000  P
  P47      1.0000 0.46685  0.17355  0.92422  Biso   1.000  P
  P48      1.0000 0.65376  0.91536  0.72768  Biso   1.000  P
  O276     1.0000 0.72003  0.78975  0.65783  Biso   1.000  O
  O277     1.0000 0.71739  0.84985  0.77710  Biso   1.000  O
  O278     1.0000 0.65634  0.76048  0.69078  Biso   1.000  O
  O279     1.0000 0.48302  0.17071  0.96586  Biso   1.000  O
  O280     1.0000 0.46566  0.01906  0.94785  Biso   1.000  O
  O281     1.0000 0.55809  0.98285  0.97272  Biso   1.000  O
  O282     1.0000 0.43896  0.13544  0.91453  Biso   1.000  O
  O283     1.0000 0.62432  0.00384  0.91862  Biso   1.000  O
  O284     1.0000 0.50932  0.95411  0.91073  Biso   1.000  O
  O285     1.0000 0.60658  0.80679  0.74374  Biso   1.000  O
  O286     1.0000 0.64998  0.82272  0.64452  Biso   1.000  O
  O287     1.0000 0.46691  0.06469  0.87543  Biso   1.000  O
  O288     1.0000 0.68421  0.83049  0.71027  Biso   1.000  O
  O289     1.0000 0.68590  0.76832  0.76623  Biso   1.000  O
  O290     1.0000 0.50066  0.17982  0.89411  Biso   1.000  O
  O291     1.0000 0.55816  0.98132  0.78929  Biso   1.000  O
  O292     1.0000 0.70177  0.91413  0.72533  Biso   1.000  O
  O293     1.0000 0.65624  0.69351  0.73439  Biso   1.000  O
  O294     1.0000 0.57754  0.97433  0.85899  Biso   1.000  O
  O295     1.0000 0.50431  0.99587  0.84009  Biso   1.000  O
  O296     1.0000 0.63782  0.88381  0.75792  Biso   1.000  O
  O297     1.0000 0.43704  0.21324  0.92453  Biso   1.000  O
  O298     1.0000 0.63930  0.95882  0.73664  Biso   1.000  O
  O299     1.0000 0.56374  0.04627  0.82798  Biso   1.000  O
  O300     1.0000 0.63510  0.90298  0.68693  Biso   1.000  O
  Mo67     1.0000 0.62816  0.75038  0.75087  Biso   1.000  Mo
  Mo68     1.0000 0.65711  0.82329  0.77065  Biso   1.000  Mo
  Mo69     1.0000 0.57437  0.96980  0.91905  Biso   1.000  Mo
  Mo70     1.0000 0.44356  0.07296  0.92684  Biso   1.000  Mo
  Mo71     1.0000 0.74492  0.86624  0.72422  Biso   1.000  Mo
  Mo72     1.0000 0.47411  0.00728  0.89242  Biso   1.000  Mo
  P49      1.0000 0.75152  0.80084  0.57936  Biso   1.000  P
  P50      1.0000 0.94861  0.92618  0.42500  Biso   1.000  P
  P51      1.0000 0.57645  0.71685  0.67422  Biso   1.000  P
  P52      1.0000 0.83464  0.90376  0.47768  Biso   1.000  P
  O301     1.0000 0.96025  0.97003  0.40783  Biso   1.000  O
  O302     1.0000 0.90015  0.96739  0.52710  Biso   1.000  O
  O303     1.0000 0.98952  0.90634  0.44078  Biso   1.000  O
  O304     1.0000 0.57929  0.73302  0.71586  Biso   1.000  O
  O305     1.0000 0.73094  0.71566  0.69785  Biso   1.000  O
  O306     1.0000 0.76715  0.80809  0.72272  Biso   1.000  O
  O307     1.0000 0.61456  0.68896  0.66453  Biso   1.000  O
  O308     1.0000 0.74616  0.87432  0.66862  Biso   1.000  O
  O309     1.0000 0.79589  0.75932  0.66073  Biso   1.000  O
  O310     1.0000 0.94321  0.85658  0.49374  Biso   1.000  O
  O311     1.0000 0.92728  0.89998  0.39452  Biso   1.000  O
  O312     1.0000 0.68531  0.71691  0.62543  Biso   1.000  O
  O313     1.0000 0.91951  0.93421  0.46027  Biso   1.000  O
  O314     1.0000 0.98168  0.93590  0.51623  Biso   1.000  O
  O315     1.0000 0.57018  0.75066  0.64411  Biso   1.000  O
  O316     1.0000 0.76868  0.80816  0.53929  Biso   1.000  O
  O317     1.0000 0.83587  0.95177  0.47533  Biso   1.000  O
  O318     1.0000 0.05649  0.90624  0.48439  Biso   1.000  O
  O319     1.0000 0.77567  0.82754  0.60899  Biso   1.000  O
  O320     1.0000 0.75413  0.75431  0.59009  Biso   1.000  O
  O321     1.0000 0.86619  0.88782  0.50792  Biso   1.000  O
  O322     1.0000 0.53676  0.68704  0.67453  Biso   1.000  O
  O323     1.0000 0.79118  0.88930  0.48664  Biso   1.000  O
  O324     1.0000 0.70373  0.81374  0.57798  Biso   1.000  O
  O325     1.0000 0.84702  0.88510  0.43693  Biso   1.000  O
  Mo73     1.0000 0.99962  0.87816  0.50087  Biso   1.000  Mo
  Mo74     1.0000 0.92671  0.90711  0.52065  Biso   1.000  Mo
  Mo75     1.0000 0.78020  0.82437  0.66905  Biso   1.000  Mo
  Mo76     1.0000 0.67704  0.69356  0.67684  Biso   1.000  Mo
  Mo77     1.0000 0.88376  0.99492  0.47422  Biso   1.000  Mo
  Mo78     1.0000 0.74272  0.72411  0.64242  Biso   1.000  Mo
  P53      1.0000 0.25152  0.30084  0.07936  Biso   1.000  P
  P54      1.0000 0.44861  0.42618  0.92500  Biso   1.000  P
  P55      1.0000 0.07645  0.21685  0.17422  Biso   1.000  P
  P56      1.0000 0.33464  0.40376  0.97768  Biso   1.000  P
  O326     1.0000 0.46025  0.47003  0.90783  Biso   1.000  O
  O327     1.0000 0.40015  0.46739  0.02710  Biso   1.000  O
  O328     1.0000 0.48952  0.40634  0.94078  Biso   1.000  O
  O329     1.0000 0.07929  0.23302  0.21586  Biso   1.000  O
  O330     1.0000 0.23094  0.21566  0.19785  Biso   1.000  O
  O331     1.0000 0.26715  0.30809  0.22272  Biso   1.000  O
  O332     1.0000 0.11456  0.18896  0.16453  Biso   1.000  O
  O333     1.0000 0.24616  0.37432  0.16862  Biso   1.000  O
  O334     1.0000 0.29589  0.25932  0.16073  Biso   1.000  O
  O335     1.0000 0.44321  0.35658  0.99374  Biso   1.000  O
  O336     1.0000 0.42728  0.39998  0.89452  Biso   1.000  O
  O337     1.0000 0.18531  0.21691  0.12543  Biso   1.000  O
  O338     1.0000 0.41951  0.43421  0.96027  Biso   1.000  O
  O339     1.0000 0.48168  0.43590  0.01623  Biso   1.000  O
  O340     1.0000 0.07018  0.25066  0.14411  Biso   1.000  O
  O341     1.0000 0.26868  0.30816  0.03929  Biso   1.000  O
  O342     1.0000 0.33587  0.45177  0.97533  Biso   1.000  O
  O343     1.0000 0.55649  0.40624  0.98439  Biso   1.000  O
  O344     1.0000 0.27567  0.32754  0.10899  Biso   1.000  O
  O345     1.0000 0.25413  0.25431  0.09009  Biso   1.000  O
  O346     1.0000 0.36619  0.38782  0.00792  Biso   1.000  O
  O347     1.0000 0.03676  0.18704  0.17453  Biso   1.000  O
  O348     1.0000 0.29118  0.38930  0.98664  Biso   1.000  O
  O349     1.0000 0.20373  0.31374  0.07798  Biso   1.000  O
  O350     1.0000 0.34702  0.38510  0.93693  Biso   1.000  O
  Mo79     1.0000 0.49962  0.37816  0.00087  Biso   1.000  Mo
  Mo80     1.0000 0.42671  0.40711  0.02065  Biso   1.000  Mo
  Mo81     1.0000 0.28020  0.32437  0.16905  Biso   1.000  Mo
  Mo82     1.0000 0.17704  0.19356  0.17684  Biso   1.000  Mo
  Mo83     1.0000 0.38376  0.49492  0.97422  Biso   1.000  Mo
  Mo84     1.0000 0.24272  0.22411  0.14242  Biso   1.000  Mo
  P57      1.0000 0.74848  0.19916  0.07936  Biso   1.000  P
  P58      1.0000 0.55139  0.07382  0.92500  Biso   1.000  P
  P59      1.0000 0.92355  0.28315  0.17422  Biso   1.000  P
  P60      1.0000 0.66536  0.09624  0.97768  Biso   1.000  P
  O351     1.0000 0.53975  0.02997  0.90783  Biso   1.000  O
  O352     1.0000 0.59985  0.03261  0.02710  Biso   1.000  O
  O353     1.0000 0.51048  0.09366  0.94078  Biso   1.000  O
  O354     1.0000 0.92071  0.26698  0.21586  Biso   1.000  O
  O355     1.0000 0.76906  0.28434  0.19785  Biso   1.000  O
  O356     1.0000 0.73285  0.19191  0.22272  Biso   1.000  O
  O357     1.0000 0.88544  0.31104  0.16453  Biso   1.000  O
  O358     1.0000 0.75384  0.12568  0.16862  Biso   1.000  O
  O359     1.0000 0.70411  0.24068  0.16073  Biso   1.000  O
  O360     1.0000 0.55679  0.14342  0.99374  Biso   1.000  O
  O361     1.0000 0.57272  0.10002  0.89452  Biso   1.000  O
  O362     1.0000 0.81469  0.28309  0.12543  Biso   1.000  O
  O363     1.0000 0.58049  0.06579  0.96027  Biso   1.000  O
  O364     1.0000 0.51832  0.06410  0.01623  Biso   1.000  O
  O365     1.0000 0.92982  0.24934  0.14411  Biso   1.000  O
  O366     1.0000 0.73132  0.19184  0.03929  Biso   1.000  O
  O367     1.0000 0.66413  0.04823  0.97533  Biso   1.000  O
  O368     1.0000 0.44351  0.09376  0.98439  Biso   1.000  O
  O369     1.0000 0.72433  0.17246  0.10899  Biso   1.000  O
  O370     1.0000 0.74587  0.24569  0.09009  Biso   1.000  O
  O371     1.0000 0.63381  0.11218  0.00792  Biso   1.000  O
  O372     1.0000 0.96324  0.31296  0.17453  Biso   1.000  O
  O373     1.0000 0.70882  0.11070  0.98664  Biso   1.000  O
  O374     1.0000 0.79627  0.18626  0.07798  Biso   1.000  O
  O375     1.0000 0.65298  0.11490  0.93693  Biso   1.000  O
  Mo85     1.0000 0.50038  0.12184  0.00087  Biso   1.000  Mo
  Mo86     1.0000 0.57329  0.09289  0.02065  Biso   1.000  Mo
  Mo87     1.0000 0.71980  0.17563  0.16905  Biso   1.000  Mo
  Mo88     1.0000 0.82296  0.30644  0.17684  Biso   1.000  Mo
  Mo89     1.0000 0.61624  0.00508  0.97422  Biso   1.000  Mo
  Mo90     1.0000 0.75728  0.27589  0.14242  Biso   1.000  Mo
  P61      1.0000 0.24848  0.69916  0.57936  Biso   1.000  P
  P62      1.0000 0.05139  0.57382  0.42500  Biso   1.000  P
  P63      1.0000 0.42355  0.78315  0.67422  Biso   1.000  P
  P64      1.0000 0.16536  0.59624  0.47768  Biso   1.000  P
  O376     1.0000 0.03975  0.52997  0.40783  Biso   1.000  O
  O377     1.0000 0.09985  0.53261  0.52710  Biso   1.000  O
  O378     1.0000 0.01048  0.59366  0.44078  Biso   1.000  O
  O379     1.0000 0.42071  0.76698  0.71586  Biso   1.000  O
  O380     1.0000 0.26906  0.78434  0.69785  Biso   1.000  O
  O381     1.0000 0.23285  0.69191  0.72272  Biso   1.000  O
  O382     1.0000 0.38544  0.81104  0.66453  Biso   1.000  O
  O383     1.0000 0.25384  0.62568  0.66862  Biso   1.000  O
  O384     1.0000 0.20411  0.74068  0.66073  Biso   1.000  O
  O385     1.0000 0.05679  0.64342  0.49374  Biso   1.000  O
  O386     1.0000 0.07272  0.60002  0.39452  Biso   1.000  O
  O387     1.0000 0.31469  0.78309  0.62543  Biso   1.000  O
  O388     1.0000 0.08049  0.56579  0.46027  Biso   1.000  O
  O389     1.0000 0.01832  0.56410  0.51623  Biso   1.000  O
  O390     1.0000 0.42982  0.74934  0.64411  Biso   1.000  O
  O391     1.0000 0.23132  0.69184  0.53929  Biso   1.000  O
  O392     1.0000 0.16413  0.54823  0.47533  Biso   1.000  O
  O393     1.0000 0.94351  0.59376  0.48439  Biso   1.000  O
  O394     1.0000 0.22433  0.67246  0.60899  Biso   1.000  O
  O395     1.0000 0.24587  0.74569  0.59009  Biso   1.000  O
  O396     1.0000 0.13381  0.61218  0.50792  Biso   1.000  O
  O397     1.0000 0.46324  0.81296  0.67453  Biso   1.000  O
  O398     1.0000 0.20882  0.61070  0.48664  Biso   1.000  O
  O399     1.0000 0.29627  0.68626  0.57798  Biso   1.000  O
  O400     1.0000 0.15298  0.61490  0.43693  Biso   1.000  O
  Mo91     1.0000 0.00038  0.62184  0.50087  Biso   1.000  Mo
  Mo92     1.0000 0.07329  0.59289  0.52065  Biso   1.000  Mo
  Mo93     1.0000 0.21980  0.67563  0.66905  Biso   1.000  Mo
  Mo94     1.0000 0.32296  0.80644  0.67684  Biso   1.000  Mo
  Mo95     1.0000 0.11624  0.50508  0.47422  Biso   1.000  Mo
  Mo96     1.0000 0.25728  0.77589  0.64242  Biso   1.000  Mo
  P65      1.0000 0.94916  0.49848  0.82936  Biso   1.000  P
  P66      1.0000 0.82382  0.30139  0.67500  Biso   1.000  P
  P67      1.0000 0.03315  0.67355  0.92422  Biso   1.000  P
  P68      1.0000 0.84624  0.41536  0.72768  Biso   1.000  P
  O401     1.0000 0.77997  0.28975  0.65783  Biso   1.000  O
  O402     1.0000 0.78261  0.34985  0.77710  Biso   1.000  O
  O403     1.0000 0.84366  0.26048  0.69078  Biso   1.000  O
  O404     1.0000 0.01698  0.67071  0.96586  Biso   1.000  O
  O405     1.0000 0.03434  0.51906  0.94785  Biso   1.000  O
  O406     1.0000 0.94191  0.48285  0.97272  Biso   1.000  O
  O407     1.0000 0.06104  0.63544  0.91453  Biso   1.000  O
  O408     1.0000 0.87568  0.50384  0.91862  Biso   1.000  O
  O409     1.0000 0.99068  0.45411  0.91073  Biso   1.000  O
  O410     1.0000 0.89342  0.30679  0.74374  Biso   1.000  O
  O411     1.0000 0.85002  0.32272  0.64452  Biso   1.000  O
  O412     1.0000 0.03309  0.56469  0.87543  Biso   1.000  O
  O413     1.0000 0.81579  0.33049  0.71027  Biso   1.000  O
  O414     1.0000 0.81410  0.26832  0.76623  Biso   1.000  O
  O415     1.0000 0.99934  0.67982  0.89411  Biso   1.000  O
  O416     1.0000 0.94184  0.48132  0.78929  Biso   1.000  O
  O417     1.0000 0.79823  0.41413  0.72533  Biso   1.000  O
  O418     1.0000 0.84376  0.19351  0.73439  Biso   1.000  O
  O419     1.0000 0.92246  0.47433  0.85899  Biso   1.000  O
  O420     1.0000 0.99569  0.49587  0.84009  Biso   1.000  O
  O421     1.0000 0.86218  0.38381  0.75792  Biso   1.000  O
  O422     1.0000 0.06296  0.71324  0.92453  Biso   1.000  O
  O423     1.0000 0.86070  0.45882  0.73664  Biso   1.000  O
  O424     1.0000 0.93626  0.54627  0.82798  Biso   1.000  O
  O425     1.0000 0.86490  0.40298  0.68693  Biso   1.000  O
  Mo97     1.0000 0.87184  0.25038  0.75087  Biso   1.000  Mo
  Mo98     1.0000 0.84289  0.32329  0.77065  Biso   1.000  Mo
  Mo99     1.0000 0.92563  0.46980  0.91905  Biso   1.000  Mo
  Mo100    1.0000 0.05644  0.57296  0.92684  Biso   1.000  Mo
  Mo101    1.0000 0.75508  0.36624  0.72422  Biso   1.000  Mo
  Mo102    1.0000 0.02589  0.50728  0.89242  Biso   1.000  Mo
  P69      1.0000 0.44916  0.99848  0.32936  Biso   1.000  P
  P70      1.0000 0.32382  0.80139  0.17500  Biso   1.000  P
  P71      1.0000 0.53315  0.17355  0.42422  Biso   1.000  P
  P72      1.0000 0.34624  0.91536  0.22768  Biso   1.000  P
  O426     1.0000 0.27997  0.78975  0.15783  Biso   1.000  O
  O427     1.0000 0.28261  0.84985  0.27710  Biso   1.000  O
  O428     1.0000 0.34366  0.76048  0.19078  Biso   1.000  O
  O429     1.0000 0.51698  0.17071  0.46586  Biso   1.000  O
  O430     1.0000 0.53434  0.01906  0.44785  Biso   1.000  O
  O431     1.0000 0.44191  0.98285  0.47272  Biso   1.000  O
  O432     1.0000 0.56104  0.13544  0.41453  Biso   1.000  O
  O433     1.0000 0.37568  0.00384  0.41862  Biso   1.000  O
  O434     1.0000 0.49068  0.95411  0.41073  Biso   1.000  O
  O435     1.0000 0.39342  0.80679  0.24374  Biso   1.000  O
  O436     1.0000 0.35002  0.82272  0.14452  Biso   1.000  O
  O437     1.0000 0.53309  0.06469  0.37543  Biso   1.000  O
  O438     1.0000 0.31579  0.83049  0.21027  Biso   1.000  O
  O439     1.0000 0.31410  0.76832  0.26623  Biso   1.000  O
  O440     1.0000 0.49934  0.17982  0.39411  Biso   1.000  O
  O441     1.0000 0.44184  0.98132  0.28929  Biso   1.000  O
  O442     1.0000 0.29823  0.91413  0.22533  Biso   1.000  O
  O443     1.0000 0.34376  0.69351  0.23439  Biso   1.000  O
  O444     1.0000 0.42246  0.97433  0.35899  Biso   1.000  O
  O445     1.0000 0.49569  0.99587  0.34009  Biso   1.000  O
  O446     1.0000 0.36218  0.88381  0.25792  Biso   1.000  O
  O447     1.0000 0.56296  0.21324  0.42453  Biso   1.000  O
  O448     1.0000 0.36070  0.95882  0.23664  Biso   1.000  O
  O449     1.0000 0.43626  0.04627  0.32798  Biso   1.000  O
  O450     1.0000 0.36490  0.90298  0.18693  Biso   1.000  O
  Mo103    1.0000 0.37184  0.75038  0.25087  Biso   1.000  Mo
  Mo104    1.0000 0.34289  0.82329  0.27065  Biso   1.000  Mo
  Mo105    1.0000 0.42563  0.96980  0.41905  Biso   1.000  Mo
  Mo106    1.0000 0.55644  0.07296  0.42684  Biso   1.000  Mo
  Mo107    1.0000 0.25508  0.86624  0.22422  Biso   1.000  Mo
  Mo108    1.0000 0.52589  0.00728  0.39242  Biso   1.000  Mo
  P73      1.0000 0.55084  0.50152  0.32936  Biso   1.000  P
  P74      1.0000 0.67618  0.69861  0.17500  Biso   1.000  P
  P75      1.0000 0.46685  0.32645  0.42422  Biso   1.000  P
  P76      1.0000 0.65376  0.58464  0.22768  Biso   1.000  P
  O451     1.0000 0.72003  0.71025  0.15783  Biso   1.000  O
  O452     1.0000 0.71739  0.65015  0.27710  Biso   1.000  O
  O453     1.0000 0.65634  0.73952  0.19078  Biso   1.000  O
  O454     1.0000 0.48302  0.32929  0.46586  Biso   1.000  O
  O455     1.0000 0.46566  0.48094  0.44785  Biso   1.000  O
  O456     1.0000 0.55809  0.51715  0.47272  Biso   1.000  O
  O457     1.0000 0.43896  0.36456  0.41453  Biso   1.000  O
  O458     1.0000 0.62432  0.49616  0.41862  Biso   1.000  O
  O459     1.0000 0.50932  0.54589  0.41073  Biso   1.000  O
  O460     1.0000 0.60658  0.69321  0.24374  Biso   1.000  O
  O461     1.0000 0.64998  0.67728  0.14452  Biso   1.000  O
  O462     1.0000 0.46691  0.43531  0.37543  Biso   1.000  O
  O463     1.0000 0.68421  0.66951  0.21027  Biso   1.000  O
  O464     1.0000 0.68590  0.73168  0.26623  Biso   1.000  O
  O465     1.0000 0.50066  0.32018  0.39411  Biso   1.000  O
  O466     1.0000 0.55816  0.51868  0.28929  Biso   1.000  O
  O467     1.0000 0.70177  0.58587  0.22533  Biso   1.000  O
  O468     1.0000 0.65624  0.80649  0.23439  Biso   1.000  O
  O469     1.0000 0.57754  0.52567  0.35899  Biso   1.000  O
  O470     1.0000 0.50431  0.50413  0.34009  Biso   1.000  O
  O471     1.0000 0.63782  0.61619  0.25792  Biso   1.000  O
  O472     1.0000 0.43704  0.28676  0.42453  Biso   1.000  O
  O473     1.0000 0.63930  0.54118  0.23664  Biso   1.000  O
  O474     1.0000 0.56374  0.45373  0.32798  Biso   1.000  O
  O475     1.0000 0.63510  0.59702  0.18693  Biso   1.000  O
  Mo109    1.0000 0.62816  0.74962  0.25087  Biso   1.000  Mo
  Mo110    1.0000 0.65711  0.67671  0.27065  Biso   1.000  Mo
  Mo111    1.0000 0.57437  0.53020  0.41905  Biso   1.000  Mo
  Mo112    1.0000 0.44356  0.42704  0.42684  Biso   1.000  Mo
  Mo113    1.0000 0.74492  0.63376  0.22422  Biso   1.000  Mo
  Mo114    1.0000 0.47411  0.49272  0.39242  Biso   1.000  Mo
  P77      1.0000 0.05084  0.00152  0.82936  Biso   1.000  P
  P78      1.0000 0.17618  0.19861  0.67500  Biso   1.000  P
  P79      1.0000 0.96685  0.82645  0.92422  Biso   1.000  P
  P80      1.0000 0.15376  0.08464  0.72768  Biso   1.000  P
  O476     1.0000 0.22003  0.21025  0.65783  Biso   1.000  O
  O477     1.0000 0.21739  0.15015  0.77710  Biso   1.000  O
  O478     1.0000 0.15634  0.23952  0.69078  Biso   1.000  O
  O479     1.0000 0.98302  0.82929  0.96586  Biso   1.000  O
  O480     1.0000 0.96566  0.98094  0.94785  Biso   1.000  O
  O481     1.0000 0.05809  0.01715  0.97272  Biso   1.000  O
  O482     1.0000 0.93896  0.86456  0.91453  Biso   1.000  O
  O483     1.0000 0.12432  0.99616  0.91862  Biso   1.000  O
  O484     1.0000 0.00932  0.04589  0.91073  Biso   1.000  O
  O485     1.0000 0.10658  0.19321  0.74374  Biso   1.000  O
  O486     1.0000 0.14998  0.17728  0.64452  Biso   1.000  O
  O487     1.0000 0.96691  0.93531  0.87543  Biso   1.000  O
  O488     1.0000 0.18421  0.16951  0.71027  Biso   1.000  O
  O489     1.0000 0.18590  0.23168  0.76623  Biso   1.000  O
  O490     1.0000 0.00066  0.82018  0.89411  Biso   1.000  O
  O491     1.0000 0.05816  0.01868  0.78929  Biso   1.000  O
  O492     1.0000 0.20177  0.08587  0.72533  Biso   1.000  O
  O493     1.0000 0.15624  0.30649  0.73439  Biso   1.000  O
  O494     1.0000 0.07754  0.02567  0.85899  Biso   1.000  O
  O495     1.0000 0.00431  0.00413  0.84009  Biso   1.000  O
  O496     1.0000 0.13782  0.11619  0.75792  Biso   1.000  O
  O497     1.0000 0.93704  0.78676  0.92453  Biso   1.000  O
  O498     1.0000 0.13930  0.04118  0.73664  Biso   1.000  O
  O499     1.0000 0.06374  0.95373  0.82798  Biso   1.000  O
  O500     1.0000 0.13510  0.09702  0.68693  Biso   1.000  O
  Mo115    1.0000 0.12816  0.24962  0.75087  Biso   1.000  Mo
  Mo116    1.0000 0.15711  0.17671  0.77065  Biso   1.000  Mo
  Mo117    1.0000 0.07437  0.03020  0.91905  Biso   1.000  Mo
  Mo118    1.0000 0.94356  0.92704  0.92684  Biso   1.000  Mo
  Mo119    1.0000 0.24492  0.13376  0.72422  Biso   1.000  Mo
  Mo120    1.0000 0.97411  0.99272  0.89242  Biso   1.000  Mo
  P81      1.0000 0.25152  0.19916  0.57936  Biso   1.000  P
  P82      1.0000 0.44861  0.07382  0.42500  Biso   1.000  P
  P83      1.0000 0.07645  0.28315  0.67422  Biso   1.000  P
  P84      1.0000 0.33464  0.09624  0.47768  Biso   1.000  P
  O501     1.0000 0.46025  0.02997  0.40783  Biso   1.000  O
  O502     1.0000 0.40015  0.03261  0.52710  Biso   1.000  O
  O503     1.0000 0.48952  0.09366  0.44078  Biso   1.000  O
  O504     1.0000 0.07929  0.26698  0.71586  Biso   1.000  O
  O505     1.0000 0.23094  0.28434  0.69785  Biso   1.000  O
  O506     1.0000 0.26715  0.19191  0.72272  Biso   1.000  O
  O507     1.0000 0.11456  0.31104  0.66453  Biso   1.000  O
  O508     1.0000 0.24616  0.12568  0.66862  Biso   1.000  O
  O509     1.0000 0.29589  0.24068  0.66073  Biso   1.000  O
  O510     1.0000 0.44321  0.14342  0.49374  Biso   1.000  O
  O511     1.0000 0.42728  0.10002  0.39452  Biso   1.000  O
  O512     1.0000 0.18531  0.28309  0.62543  Biso   1.000  O
  O513     1.0000 0.41951  0.06579  0.46027  Biso   1.000  O
  O514     1.0000 0.48168  0.06410  0.51623  Biso   1.000  O
  O515     1.0000 0.07018  0.24934  0.64411  Biso   1.000  O
  O516     1.0000 0.26868  0.19184  0.53929  Biso   1.000  O
  O517     1.0000 0.33587  0.04823  0.47533  Biso   1.000  O
  O518     1.0000 0.55649  0.09376  0.48439  Biso   1.000  O
  O519     1.0000 0.27567  0.17246  0.60899  Biso   1.000  O
  O520     1.0000 0.25413  0.24569  0.59009  Biso   1.000  O
  O521     1.0000 0.36619  0.11218  0.50792  Biso   1.000  O
  O522     1.0000 0.03676  0.31296  0.67453  Biso   1.000  O
  O523     1.0000 0.29118  0.11070  0.48664  Biso   1.000  O
  O524     1.0000 0.20373  0.18626  0.57798  Biso   1.000  O
  O525     1.0000 0.34702  0.11490  0.43693  Biso   1.000  O
  Mo121    1.0000 0.49962  0.12184  0.50087  Biso   1.000  Mo
  Mo122    1.0000 0.42671  0.09289  0.52065  Biso   1.000  Mo
  Mo123    1.0000 0.28020  0.17563  0.66905  Biso   1.000  Mo
  Mo124    1.0000 0.17704  0.30644  0.67684  Biso   1.000  Mo
  Mo125    1.0000 0.38376  0.00508  0.47422  Biso   1.000  Mo
  Mo126    1.0000 0.24272  0.27589  0.64242  Biso   1.000  Mo
  P85      1.0000 0.75152  0.69916  0.07936  Biso   1.000  P
  P86      1.0000 0.94861  0.57382  0.92500  Biso   1.000  P
  P87      1.0000 0.57645  0.78315  0.17422  Biso   1.000  P
  P88      1.0000 0.83464  0.59624  0.97768  Biso   1.000  P
  O526     1.0000 0.96025  0.52997  0.90783  Biso   1.000  O
  O527     1.0000 0.90015  0.53261  0.02710  Biso   1.000  O
  O528     1.0000 0.98952  0.59366  0.94078  Biso   1.000  O
  O529     1.0000 0.57929  0.76698  0.21586  Biso   1.000  O
  O530     1.0000 0.73094  0.78434  0.19785  Biso   1.000  O
  O531     1.0000 0.76715  0.69191  0.22272  Biso   1.000  O
  O532     1.0000 0.61456  0.81104  0.16453  Biso   1.000  O
  O533     1.0000 0.74616  0.62568  0.16862  Biso   1.000  O
  O534     1.0000 0.79589  0.74068  0.16073  Biso   1.000  O
  O535     1.0000 0.94321  0.64342  0.99374  Biso   1.000  O
  O536     1.0000 0.92728  0.60002  0.89452  Biso   1.000  O
  O537     1.0000 0.68531  0.78309  0.12543  Biso   1.000  O
  O538     1.0000 0.91951  0.56579  0.96027  Biso   1.000  O
  O539     1.0000 0.98168  0.56410  0.01623  Biso   1.000  O
  O540     1.0000 0.57018  0.74934  0.14411  Biso   1.000  O
  O541     1.0000 0.76868  0.69184  0.03929  Biso   1.000  O
  O542     1.0000 0.83587  0.54823  0.97533  Biso   1.000  O
  O543     1.0000 0.05649  0.59376  0.98439  Biso   1.000  O
  O544     1.0000 0.77567  0.67246  0.10899  Biso   1.000  O
  O545     1.0000 0.75413  0.74569  0.09009  Biso   1.000  O
  O546     1.0000 0.86619  0.61218  0.00792  Biso   1.000  O
  O547     1.0000 0.53676  0.81296  0.17453  Biso   1.000  O
  O548     1.0000 0.79118  0.61070  0.98664  Biso   1.000  O
  O549     1.0000 0.70373  0.68626  0.07798  Biso   1.000  O
  O550     1.0000 0.84702  0.61490  0.93693  Biso   1.000  O
  Mo127    1.0000 0.99962  0.62184  0.00087  Biso   1.000  Mo
  Mo128    1.0000 0.92671  0.59289  0.02065  Biso   1.000  Mo
  Mo129    1.0000 0.78020  0.67563  0.16905  Biso   1.000  Mo
  Mo130    1.0000 0.67704  0.80644  0.17684  Biso   1.000  Mo
  Mo131    1.0000 0.88376  0.50508  0.97422  Biso   1.000  Mo
  Mo132    1.0000 0.74272  0.77589  0.14242  Biso   1.000  Mo
  P89      1.0000 0.24848  0.80084  0.07936  Biso   1.000  P
  P90      1.0000 0.05139  0.92618  0.92500  Biso   1.000  P
  P91      1.0000 0.42355  0.71685  0.17422  Biso   1.000  P
  P92      1.0000 0.16536  0.90376  0.97768  Biso   1.000  P
  O551     1.0000 0.03975  0.97003  0.90783  Biso   1.000  O
  O552     1.0000 0.09985  0.96739  0.02710  Biso   1.000  O
  O553     1.0000 0.01048  0.90634  0.94078  Biso   1.000  O
  O554     1.0000 0.42071  0.73302  0.21586  Biso   1.000  O
  O555     1.0000 0.26906  0.71566  0.19785  Biso   1.000  O
  O556     1.0000 0.23285  0.80809  0.22272  Biso   1.000  O
  O557     1.0000 0.38544  0.68896  0.16453  Biso   1.000  O
  O558     1.0000 0.25384  0.87432  0.16862  Biso   1.000  O
  O559     1.0000 0.20411  0.75932  0.16073  Biso   1.000  O
  O560     1.0000 0.05679  0.85658  0.99374  Biso   1.000  O
  O561     1.0000 0.07272  0.89998  0.89452  Biso   1.000  O
  O562     1.0000 0.31469  0.71691  0.12543  Biso   1.000  O
  O563     1.0000 0.08049  0.93421  0.96027  Biso   1.000  O
  O564     1.0000 0.01832  0.93590  0.01623  Biso   1.000  O
  O565     1.0000 0.42982  0.75066  0.14411  Biso   1.000  O
  O566     1.0000 0.23132  0.80816  0.03929  Biso   1.000  O
  O567     1.0000 0.16413  0.95177  0.97533  Biso   1.000  O
  O568     1.0000 0.94351  0.90624  0.98439  Biso   1.000  O
  O569     1.0000 0.22433  0.82754  0.10899  Biso   1.000  O
  O570     1.0000 0.24587  0.75431  0.09009  Biso   1.000  O
  O571     1.0000 0.13381  0.88782  0.00792  Biso   1.000  O
  O572     1.0000 0.46324  0.68704  0.17453  Biso   1.000  O
  O573     1.0000 0.20882  0.88930  0.98664  Biso   1.000  O
  O574     1.0000 0.29627  0.81374  0.07798  Biso   1.000  O
  O575     1.0000 0.15298  0.88510  0.93693  Biso   1.000  O
  Mo133    1.0000 0.00038  0.87816  0.00087  Biso   1.000  Mo
  Mo134    1.0000 0.07329  0.90711  0.02065  Biso   1.000  Mo
  Mo135    1.0000 0.21980  0.82437  0.16905  Biso   1.000  Mo
  Mo136    1.0000 0.32296  0.69356  0.17684  Biso   1.000  Mo
  Mo137    1.0000 0.11624  0.99492  0.97422  Biso   1.000  Mo
  Mo138    1.0000 0.25728  0.72411  0.14242  Biso   1.000  Mo
  P93      1.0000 0.74848  0.30084  0.57936  Biso   1.000  P
  P94      1.0000 0.55139  0.42618  0.42500  Biso   1.000  P
  P95      1.0000 0.92355  0.21685  0.67422  Biso   1.000  P
  P96      1.0000 0.66536  0.40376  0.47768  Biso   1.000  P
  O576     1.0000 0.53975  0.47003  0.40783  Biso   1.000  O
  O577     1.0000 0.59985  0.46739  0.52710  Biso   1.000  O
  O578     1.0000 0.51048  0.40634  0.44078  Biso   1.000  O
  O579     1.0000 0.92071  0.23302  0.71586  Biso   1.000  O
  O580     1.0000 0.76906  0.21566  0.69785  Biso   1.000  O
  O581     1.0000 0.73285  0.30809  0.72272  Biso   1.000  O
  O582     1.0000 0.88544  0.18896  0.66453  Biso   1.000  O
  O583     1.0000 0.75384  0.37432  0.66862  Biso   1.000  O
  O584     1.0000 0.70411  0.25932  0.66073  Biso   1.000  O
  O585     1.0000 0.55679  0.35658  0.49374  Biso   1.000  O
  O586     1.0000 0.57272  0.39998  0.39452  Biso   1.000  O
  O587     1.0000 0.81469  0.21691  0.62543  Biso   1.000  O
  O588     1.0000 0.58049  0.43421  0.46027  Biso   1.000  O
  O589     1.0000 0.51832  0.43590  0.51623  Biso   1.000  O
  O590     1.0000 0.92982  0.25066  0.64411  Biso   1.000  O
  O591     1.0000 0.73132  0.30816  0.53929  Biso   1.000  O
  O592     1.0000 0.66413  0.45177  0.47533  Biso   1.000  O
  O593     1.0000 0.44351  0.40624  0.48439  Biso   1.000  O
  O594     1.0000 0.72433  0.32754  0.60899  Biso   1.000  O
  O595     1.0000 0.74587  0.25431  0.59009  Biso   1.000  O
  O596     1.0000 0.63381  0.38782  0.50792  Biso   1.000  O
  O597     1.0000 0.96324  0.18704  0.67453  Biso   1.000  O
  O598     1.0000 0.70882  0.38930  0.48664  Biso   1.000  O
  O599     1.0000 0.79627  0.31374  0.57798  Biso   1.000  O
  O600     1.0000 0.65298  0.38510  0.43693  Biso   1.000  O
  Mo139    1.0000 0.50038  0.37816  0.50087  Biso   1.000  Mo
  Mo140    1.0000 0.57329  0.40711  0.52065  Biso   1.000  Mo
  Mo141    1.0000 0.71980  0.32437  0.66905  Biso   1.000  Mo
  Mo142    1.0000 0.82296  0.19356  0.67684  Biso   1.000  Mo
  Mo143    1.0000 0.61624  0.49492  0.47422  Biso   1.000  Mo
  Mo144    1.0000 0.75728  0.22411  0.64242  Biso   1.000  Mo
  P97      1.0000 0.55084  0.49848  0.17064  Biso   1.000  P
  P98      1.0000 0.67618  0.30139  0.32500  Biso   1.000  P
  P99      1.0000 0.46685  0.67355  0.07578  Biso   1.000  P
  P100     1.0000 0.65376  0.41536  0.27232  Biso   1.000  P
  O601     1.0000 0.72003  0.28975  0.34217  Biso   1.000  O
  O602     1.0000 0.71739  0.34985  0.22290  Biso   1.000  O
  O603     1.0000 0.65634  0.26048  0.30922  Biso   1.000  O
  O604     1.0000 0.48302  0.67071  0.03414  Biso   1.000  O
  O605     1.0000 0.46566  0.51906  0.05215  Biso   1.000  O
  O606     1.0000 0.55809  0.48285  0.02728  Biso   1.000  O
  O607     1.0000 0.43896  0.63544  0.08547  Biso   1.000  O
  O608     1.0000 0.62432  0.50384  0.08138  Biso   1.000  O
  O609     1.0000 0.50932  0.45411  0.08927  Biso   1.000  O
  O610     1.0000 0.60658  0.30679  0.25626  Biso   1.000  O
  O611     1.0000 0.64998  0.32272  0.35548  Biso   1.000  O
  O612     1.0000 0.46691  0.56469  0.12457  Biso   1.000  O
  O613     1.0000 0.68421  0.33049  0.28973  Biso   1.000  O
  O614     1.0000 0.68590  0.26832  0.23377  Biso   1.000  O
  O615     1.0000 0.50066  0.67982  0.10589  Biso   1.000  O
  O616     1.0000 0.55816  0.48132  0.21071  Biso   1.000  O
  O617     1.0000 0.70177  0.41413  0.27467  Biso   1.000  O
  O618     1.0000 0.65624  0.19351  0.26561  Biso   1.000  O
  O619     1.0000 0.57754  0.47433  0.14101  Biso   1.000  O
  O620     1.0000 0.50431  0.49587  0.15991  Biso   1.000  O
  O621     1.0000 0.63782  0.38381  0.24208  Biso   1.000  O
  O622     1.0000 0.43704  0.71324  0.07547  Biso   1.000  O
  O623     1.0000 0.63930  0.45882  0.26336  Biso   1.000  O
  O624     1.0000 0.56374  0.54627  0.17202  Biso   1.000  O
  O625     1.0000 0.63510  0.40298  0.31307  Biso   1.000  O
  Mo145    1.0000 0.62816  0.25038  0.24913  Biso   1.000  Mo
  Mo146    1.0000 0.65711  0.32329  0.22935  Biso   1.000  Mo
  Mo147    1.0000 0.57437  0.46980  0.08095  Biso   1.000  Mo
  Mo148    1.0000 0.44356  0.57296  0.07316  Biso   1.000  Mo
  Mo149    1.0000 0.74492  0.36624  0.27578  Biso   1.000  Mo
  Mo150    1.0000 0.47411  0.50728  0.10758  Biso   1.000  Mo
  P101     1.0000 0.05084  0.99848  0.67064  Biso   1.000  P
  P102     1.0000 0.17618  0.80139  0.82500  Biso   1.000  P
  P103     1.0000 0.96685  0.17355  0.57578  Biso   1.000  P
  P104     1.0000 0.15376  0.91536  0.77232  Biso   1.000  P
  O626     1.0000 0.22003  0.78975  0.84217  Biso   1.000  O
  O627     1.0000 0.21739  0.84985  0.72290  Biso   1.000  O
  O628     1.0000 0.15634  0.76048  0.80922  Biso   1.000  O
  O629     1.0000 0.98302  0.17071  0.53414  Biso   1.000  O
  O630     1.0000 0.96566  0.01906  0.55215  Biso   1.000  O
  O631     1.0000 0.05809  0.98285  0.52728  Biso   1.000  O
  O632     1.0000 0.93896  0.13544  0.58547  Biso   1.000  O
  O633     1.0000 0.12432  0.00384  0.58138  Biso   1.000  O
  O634     1.0000 0.00932  0.95411  0.58927  Biso   1.000  O
  O635     1.0000 0.10658  0.80679  0.75626  Biso   1.000  O
  O636     1.0000 0.14998  0.82272  0.85548  Biso   1.000  O
  O637     1.0000 0.96691  0.06469  0.62457  Biso   1.000  O
  O638     1.0000 0.18421  0.83049  0.78973  Biso   1.000  O
  O639     1.0000 0.18590  0.76832  0.73377  Biso   1.000  O
  O640     1.0000 0.00066  0.17982  0.60589  Biso   1.000  O
  O641     1.0000 0.05816  0.98132  0.71071  Biso   1.000  O
  O642     1.0000 0.20177  0.91413  0.77467  Biso   1.000  O
  O643     1.0000 0.15624  0.69351  0.76561  Biso   1.000  O
  O644     1.0000 0.07754  0.97433  0.64101  Biso   1.000  O
  O645     1.0000 0.00431  0.99587  0.65991  Biso   1.000  O
  O646     1.0000 0.13782  0.88381  0.74208  Biso   1.000  O
  O647     1.0000 0.93704  0.21324  0.57547  Biso   1.000  O
  O648     1.0000 0.13930  0.95882  0.76336  Biso   1.000  O
  O649     1.0000 0.06374  0.04627  0.67202  Biso   1.000  O
  O650     1.0000 0.13510  0.90298  0.81307  Biso   1.000  O
  Mo151    1.0000 0.12816  0.75038  0.74913  Biso   1.000  Mo
  Mo152    1.0000 0.15711  0.82329  0.72935  Biso   1.000  Mo
  Mo153    1.0000 0.07437  0.96980  0.58095  Biso   1.000  Mo
  Mo154    1.0000 0.94356  0.07296  0.57316  Biso   1.000  Mo
  Mo155    1.0000 0.24492  0.86624  0.77578  Biso   1.000  Mo
  Mo156    1.0000 0.97411  0.00728  0.60758  Biso   1.000  Mo
  P105     1.0000 0.94916  0.50152  0.67064  Biso   1.000  P
  P106     1.0000 0.82382  0.69861  0.82500  Biso   1.000  P
  P107     1.0000 0.03315  0.32645  0.57578  Biso   1.000  P
  P108     1.0000 0.84624  0.58464  0.77232  Biso   1.000  P
  O651     1.0000 0.77997  0.71025  0.84217  Biso   1.000  O
  O652     1.0000 0.78261  0.65015  0.72290  Biso   1.000  O
  O653     1.0000 0.84366  0.73952  0.80922  Biso   1.000  O
  O654     1.0000 0.01698  0.32929  0.53414  Biso   1.000  O
  O655     1.0000 0.03434  0.48094  0.55215  Biso   1.000  O
  O656     1.0000 0.94191  0.51715  0.52728  Biso   1.000  O
  O657     1.0000 0.06104  0.36456  0.58547  Biso   1.000  O
  O658     1.0000 0.87568  0.49616  0.58138  Biso   1.000  O
  O659     1.0000 0.99068  0.54589  0.58927  Biso   1.000  O
  O660     1.0000 0.89342  0.69321  0.75626  Biso   1.000  O
  O661     1.0000 0.85002  0.67728  0.85548  Biso   1.000  O
  O662     1.0000 0.03309  0.43531  0.62457  Biso   1.000  O
  O663     1.0000 0.81579  0.66951  0.78973  Biso   1.000  O
  O664     1.0000 0.81410  0.73168  0.73377  Biso   1.000  O
  O665     1.0000 0.99934  0.32018  0.60589  Biso   1.000  O
  O666     1.0000 0.94184  0.51868  0.71071  Biso   1.000  O
  O667     1.0000 0.79823  0.58587  0.77467  Biso   1.000  O
  O668     1.0000 0.84376  0.80649  0.76561  Biso   1.000  O
  O669     1.0000 0.92246  0.52567  0.64101  Biso   1.000  O
  O670     1.0000 0.99569  0.50413  0.65991  Biso   1.000  O
  O671     1.0000 0.86218  0.61619  0.74208  Biso   1.000  O
  O672     1.0000 0.06296  0.28676  0.57547  Biso   1.000  O
  O673     1.0000 0.86070  0.54118  0.76336  Biso   1.000  O
  O674     1.0000 0.93626  0.45373  0.67202  Biso   1.000  O
  O675     1.0000 0.86490  0.59702  0.81307  Biso   1.000  O
  Mo157    1.0000 0.87184  0.74962  0.74913  Biso   1.000  Mo
  Mo158    1.0000 0.84289  0.67671  0.72935  Biso   1.000  Mo
  Mo159    1.0000 0.92563  0.53020  0.58095  Biso   1.000  Mo
  Mo160    1.0000 0.05644  0.42704  0.57316  Biso   1.000  Mo
  Mo161    1.0000 0.75508  0.63376  0.77578  Biso   1.000  Mo
  Mo162    1.0000 0.02589  0.49272  0.60758  Biso   1.000  Mo
  P109     1.0000 0.44916  0.00152  0.17064  Biso   1.000  P
  P110     1.0000 0.32382  0.19861  0.32500  Biso   1.000  P
  P111     1.0000 0.53315  0.82645  0.07578  Biso   1.000  P
  P112     1.0000 0.34624  0.08464  0.27232  Biso   1.000  P
  O676     1.0000 0.27997  0.21025  0.34217  Biso   1.000  O
  O677     1.0000 0.28261  0.15015  0.22290  Biso   1.000  O
  O678     1.0000 0.34366  0.23952  0.30922  Biso   1.000  O
  O679     1.0000 0.51698  0.82929  0.03414  Biso   1.000  O
  O680     1.0000 0.53434  0.98094  0.05215  Biso   1.000  O
  O681     1.0000 0.44191  0.01715  0.02728  Biso   1.000  O
  O682     1.0000 0.56104  0.86456  0.08547  Biso   1.000  O
  O683     1.0000 0.37568  0.99616  0.08138  Biso   1.000  O
  O684     1.0000 0.49068  0.04589  0.08927  Biso   1.000  O
  O685     1.0000 0.39342  0.19321  0.25626  Biso   1.000  O
  O686     1.0000 0.35002  0.17728  0.35548  Biso   1.000  O
  O687     1.0000 0.53309  0.93531  0.12457  Biso   1.000  O
  O688     1.0000 0.31579  0.16951  0.28973  Biso   1.000  O
  O689     1.0000 0.31410  0.23168  0.23377  Biso   1.000  O
  O690     1.0000 0.49934  0.82018  0.10589  Biso   1.000  O
  O691     1.0000 0.44184  0.01868  0.21071  Biso   1.000  O
  O692     1.0000 0.29823  0.08587  0.27467  Biso   1.000  O
  O693     1.0000 0.34376  0.30649  0.26561  Biso   1.000  O
  O694     1.0000 0.42246  0.02567  0.14101  Biso   1.000  O
  O695     1.0000 0.49569  0.00413  0.15991  Biso   1.000  O
  O696     1.0000 0.36218  0.11619  0.24208  Biso   1.000  O
  O697     1.0000 0.56296  0.78676  0.07547  Biso   1.000  O
  O698     1.0000 0.36070  0.04118  0.26336  Biso   1.000  O
  O699     1.0000 0.43626  0.95373  0.17202  Biso   1.000  O
  O700     1.0000 0.36490  0.09702  0.31307  Biso   1.000  O
  Mo163    1.0000 0.37184  0.24962  0.24913  Biso   1.000  Mo
  Mo164    1.0000 0.34289  0.17671  0.22935  Biso   1.000  Mo
  Mo165    1.0000 0.42563  0.03020  0.08095  Biso   1.000  Mo
  Mo166    1.0000 0.55644  0.92704  0.07316  Biso   1.000  Mo
  Mo167    1.0000 0.25508  0.13376  0.27578  Biso   1.000  Mo
  Mo168    1.0000 0.52589  0.99272  0.10758  Biso   1.000  Mo
  P113     1.0000 0.24848  0.19916  0.42064  Biso   1.000  P
  P114     1.0000 0.05139  0.07382  0.57500  Biso   1.000  P
  P115     1.0000 0.42355  0.28315  0.32578  Biso   1.000  P
  P116     1.0000 0.16536  0.09624  0.52232  Biso   1.000  P
  O701     1.0000 0.03975  0.02997  0.59217  Biso   1.000  O
  O702     1.0000 0.09985  0.03261  0.47290  Biso   1.000  O
  O703     1.0000 0.01048  0.09366  0.55922  Biso   1.000  O
  O704     1.0000 0.42071  0.26698  0.28414  Biso   1.000  O
  O705     1.0000 0.26906  0.28434  0.30215  Biso   1.000  O
  O706     1.0000 0.23285  0.19191  0.27728  Biso   1.000  O
  O707     1.0000 0.38544  0.31104  0.33547  Biso   1.000  O
  O708     1.0000 0.25384  0.12568  0.33138  Biso   1.000  O
  O709     1.0000 0.20411  0.24068  0.33927  Biso   1.000  O
  O710     1.0000 0.05679  0.14342  0.50626  Biso   1.000  O
  O711     1.0000 0.07272  0.10002  0.60548  Biso   1.000  O
  O712     1.0000 0.31469  0.28309  0.37457  Biso   1.000  O
  O713     1.0000 0.08049  0.06579  0.53973  Biso   1.000  O
  O714     1.0000 0.01832  0.06410  0.48377  Biso   1.000  O
  O715     1.0000 0.42982  0.24934  0.35589  Biso   1.000  O
  O716     1.0000 0.23132  0.19184  0.46071  Biso   1.000  O
  O717     1.0000 0.16413  0.04823  0.52467  Biso   1.000  O
  O718     1.0000 0.94351  0.09376  0.51561  Biso   1.000  O
  O719     1.0000 0.22433  0.17246  0.39101  Biso   1.000  O
  O720     1.0000 0.24587  0.24569  0.40991  Biso   1.000  O
  O721     1.0000 0.13381  0.11218  0.49208  Biso   1.000  O
  O722     1.0000 0.46324  0.31296  0.32547  Biso   1.000  O
  O723     1.0000 0.20882  0.11070  0.51336  Biso   1.000  O
  O724     1.0000 0.29627  0.18626  0.42202  Biso   1.000  O
  O725     1.0000 0.15298  0.11490  0.56307  Biso   1.000  O
  Mo169    1.0000 0.00038  0.12184  0.49913  Biso   1.000  Mo
  Mo170    1.0000 0.07329  0.09289  0.47935  Biso   1.000  Mo
  Mo171    1.0000 0.21980  0.17563  0.33095  Biso   1.000  Mo
  Mo172    1.0000 0.32296  0.30644  0.32316  Biso   1.000  Mo
  Mo173    1.0000 0.11624  0.00508  0.52578  Biso   1.000  Mo
  Mo174    1.0000 0.25728  0.27589  0.35758  Biso   1.000  Mo
  P117     1.0000 0.74848  0.69916  0.92064  Biso   1.000  P
  P118     1.0000 0.55139  0.57382  0.07500  Biso   1.000  P
  P119     1.0000 0.92355  0.78315  0.82578  Biso   1.000  P
  P120     1.0000 0.66536  0.59624  0.02232  Biso   1.000  P
  O726     1.0000 0.53975  0.52997  0.09217  Biso   1.000  O
  O727     1.0000 0.59985  0.53261  0.97290  Biso   1.000  O
  O728     1.0000 0.51048  0.59366  0.05922  Biso   1.000  O
  O729     1.0000 0.92071  0.76698  0.78414  Biso   1.000  O
  O730     1.0000 0.76906  0.78434  0.80215  Biso   1.000  O
  O731     1.0000 0.73285  0.69191  0.77728  Biso   1.000  O
  O732     1.0000 0.88544  0.81104  0.83547  Biso   1.000  O
  O733     1.0000 0.75384  0.62568  0.83138  Biso   1.000  O
  O734     1.0000 0.70411  0.74068  0.83927  Biso   1.000  O
  O735     1.0000 0.55679  0.64342  0.00626  Biso   1.000  O
  O736     1.0000 0.57272  0.60002  0.10548  Biso   1.000  O
  O737     1.0000 0.81469  0.78309  0.87457  Biso   1.000  O
  O738     1.0000 0.58049  0.56579  0.03973  Biso   1.000  O
  O739     1.0000 0.51832  0.56410  0.98377  Biso   1.000  O
  O740     1.0000 0.92982  0.74934  0.85589  Biso   1.000  O
  O741     1.0000 0.73132  0.69184  0.96071  Biso   1.000  O
  O742     1.0000 0.66413  0.54823  0.02467  Biso   1.000  O
  O743     1.0000 0.44351  0.59376  0.01561  Biso   1.000  O
  O744     1.0000 0.72433  0.67246  0.89101  Biso   1.000  O
  O745     1.0000 0.74587  0.74569  0.90991  Biso   1.000  O
  O746     1.0000 0.63381  0.61218  0.99208  Biso   1.000  O
  O747     1.0000 0.96324  0.81296  0.82547  Biso   1.000  O
  O748     1.0000 0.70882  0.61070  0.01336  Biso   1.000  O
  O749     1.0000 0.79627  0.68626  0.92202  Biso   1.000  O
  O750     1.0000 0.65298  0.61490  0.06307  Biso   1.000  O
  Mo175    1.0000 0.50038  0.62184  0.99913  Biso   1.000  Mo
  Mo176    1.0000 0.57329  0.59289  0.97935  Biso   1.000  Mo
  Mo177    1.0000 0.71980  0.67563  0.83095  Biso   1.000  Mo
  Mo178    1.0000 0.82296  0.80644  0.82316  Biso   1.000  Mo
  Mo179    1.0000 0.61624  0.50508  0.02578  Biso   1.000  Mo
  Mo180    1.0000 0.75728  0.77589  0.85758  Biso   1.000  Mo
  P121     1.0000 0.25152  0.80084  0.92064  Biso   1.000  P
  P122     1.0000 0.44861  0.92618  0.07500  Biso   1.000  P
  P123     1.0000 0.07645  0.71685  0.82578  Biso   1.000  P
  P124     1.0000 0.33464  0.90376  0.02232  Biso   1.000  P
  O751     1.0000 0.46025  0.97003  0.09217  Biso   1.000  O
  O752     1.0000 0.40015  0.96739  0.97290  Biso   1.000  O
  O753     1.0000 0.48952  0.90634  0.05922  Biso   1.000  O
  O754     1.0000 0.07929  0.73302  0.78414  Biso   1.000  O
  O755     1.0000 0.23094  0.71566  0.80215  Biso   1.000  O
  O756     1.0000 0.26715  0.80809  0.77728  Biso   1.000  O
  O757     1.0000 0.11456  0.68896  0.83547  Biso   1.000  O
  O758     1.0000 0.24616  0.87432  0.83138  Biso   1.000  O
  O759     1.0000 0.29589  0.75932  0.83927  Biso   1.000  O
  O760     1.0000 0.44321  0.85658  0.00626  Biso   1.000  O
  O761     1.0000 0.42728  0.89998  0.10548  Biso   1.000  O
  O762     1.0000 0.18531  0.71691  0.87457  Biso   1.000  O
  O763     1.0000 0.41951  0.93421  0.03973  Biso   1.000  O
  O764     1.0000 0.48168  0.93590  0.98377  Biso   1.000  O
  O765     1.0000 0.07018  0.75066  0.85589  Biso   1.000  O
  O766     1.0000 0.26868  0.80816  0.96071  Biso   1.000  O
  O767     1.0000 0.33587  0.95177  0.02467  Biso   1.000  O
  O768     1.0000 0.55649  0.90624  0.01561  Biso   1.000  O
  O769     1.0000 0.27567  0.82754  0.89101  Biso   1.000  O
  O770     1.0000 0.25413  0.75431  0.90991  Biso   1.000  O
  O771     1.0000 0.36619  0.88782  0.99208  Biso   1.000  O
  O772     1.0000 0.03676  0.68704  0.82547  Biso   1.000  O
  O773     1.0000 0.29118  0.88930  0.01336  Biso   1.000  O
  O774     1.0000 0.20373  0.81374  0.92202  Biso   1.000  O
  O775     1.0000 0.34702  0.88510  0.06307  Biso   1.000  O
  Mo181    1.0000 0.49962  0.87816  0.99913  Biso   1.000  Mo
  Mo182    1.0000 0.42671  0.90711  0.97935  Biso   1.000  Mo
  Mo183    1.0000 0.28020  0.82437  0.83095  Biso   1.000  Mo
  Mo184    1.0000 0.17704  0.69356  0.82316  Biso   1.000  Mo
  Mo185    1.0000 0.38376  0.99492  0.02578  Biso   1.000  Mo
  Mo186    1.0000 0.24272  0.72411  0.85758  Biso   1.000  Mo
  P125     1.0000 0.75152  0.30084  0.42064  Biso   1.000  P
  P126     1.0000 0.94861  0.42618  0.57500  Biso   1.000  P
  P127     1.0000 0.57645  0.21685  0.32578  Biso   1.000  P
  P128     1.0000 0.83464  0.40376  0.52232  Biso   1.000  P
  O776     1.0000 0.96025  0.47003  0.59217  Biso   1.000  O
  O777     1.0000 0.90015  0.46739  0.47290  Biso   1.000  O
  O778     1.0000 0.98952  0.40634  0.55922  Biso   1.000  O
  O779     1.0000 0.57929  0.23302  0.28414  Biso   1.000  O
  O780     1.0000 0.73094  0.21566  0.30215  Biso   1.000  O
  O781     1.0000 0.76715  0.30809  0.27728  Biso   1.000  O
  O782     1.0000 0.61456  0.18896  0.33547  Biso   1.000  O
  O783     1.0000 0.74616  0.37432  0.33138  Biso   1.000  O
  O784     1.0000 0.79589  0.25932  0.33927  Biso   1.000  O
  O785     1.0000 0.94321  0.35658  0.50626  Biso   1.000  O
  O786     1.0000 0.92728  0.39998  0.60548  Biso   1.000  O
  O787     1.0000 0.68531  0.21691  0.37457  Biso   1.000  O
  O788     1.0000 0.91951  0.43421  0.53973  Biso   1.000  O
  O789     1.0000 0.98168  0.43590  0.48377  Biso   1.000  O
  O790     1.0000 0.57018  0.25066  0.35589  Biso   1.000  O
  O791     1.0000 0.76868  0.30816  0.46071  Biso   1.000  O
  O792     1.0000 0.83587  0.45177  0.52467  Biso   1.000  O
  O793     1.0000 0.05649  0.40624  0.51561  Biso   1.000  O
  O794     1.0000 0.77567  0.32754  0.39101  Biso   1.000  O
  O795     1.0000 0.75413  0.25431  0.40991  Biso   1.000  O
  O796     1.0000 0.86619  0.38782  0.49208  Biso   1.000  O
  O797     1.0000 0.53676  0.18704  0.32547  Biso   1.000  O
  O798     1.0000 0.79118  0.38930  0.51336  Biso   1.000  O
  O799     1.0000 0.70373  0.31374  0.42202  Biso   1.000  O
  O800     1.0000 0.84702  0.38510  0.56307  Biso   1.000  O
  Mo187    1.0000 0.99962  0.37816  0.49913  Biso   1.000  Mo
  Mo188    1.0000 0.92671  0.40711  0.47935  Biso   1.000  Mo
  Mo189    1.0000 0.78020  0.32437  0.33095  Biso   1.000  Mo
  Mo190    1.0000 0.67704  0.19356  0.32316  Biso   1.000  Mo
  Mo191    1.0000 0.88376  0.49492  0.52578  Biso   1.000  Mo
  Mo192    1.0000 0.74272  0.22411  0.35758  Biso   1.000  Mo
  Zn1      1.0000 0.09790  0.50000  0.25000  Biso   1.000  Zn
  Zn2      1.0000 0.59790  0.00000  0.75000  Biso   1.000  Zn
  Zn3      1.0000 0.40210  0.50000  0.75000  Biso   1.000  Zn
  Zn4      1.0000 0.90210  0.00000  0.25000  Biso   1.000  Zn
  Zn5      1.0000 0.75000  0.84790  0.50000  Biso   1.000  Zn
  Zn6      1.0000 0.25000  0.34790  0.00000  Biso   1.000  Zn
  Zn7      1.0000 0.75000  0.15210  0.00000  Biso   1.000  Zn
  Zn8      1.0000 0.25000  0.65210  0.50000  Biso   1.000  Zn
  Zn9      1.0000 0.90210  0.50000  0.75000  Biso   1.000  Zn
  Zn10     1.0000 0.40210  0.00000  0.25000  Biso   1.000  Zn
  Zn11     1.0000 0.59790  0.50000  0.25000  Biso   1.000  Zn
  Zn12     1.0000 0.09790  0.00000  0.75000  Biso   1.000  Zn
  Zn13     1.0000 0.25000  0.15210  0.50000  Biso   1.000  Zn
  Zn14     1.0000 0.75000  0.65210  0.00000  Biso   1.000  Zn
  Zn15     1.0000 0.25000  0.84790  0.00000  Biso   1.000  Zn
  Zn16     1.0000 0.75000  0.34790  0.50000  Biso   1.000  Zn
  Zn17     1.0000 0.25000  0.75000  0.25000  Biso   1.000  Zn
  Zn18     1.0000 0.25000  0.25000  0.75000  Biso   1.000  Zn
  Zn19     1.0000 0.50000  0.00000  0.50000  Biso   1.000  Zn
  Zn20     1.0000 0.00000  0.50000  0.00000  Biso   1.000  Zn
  Zn21     1.0000 0.00000  0.00000  0.00000  Biso   1.000  Zn
  Zn22     1.0000 0.50000  0.50000  0.50000  Biso   1.000  Zn
  Zn23     1.0000 0.25000  0.75000  0.75000  Biso   1.000  Zn
  Zn24     1.0000 0.25000  0.25000  0.25000  Biso   1.000  Zn
  Zn25     1.0000 0.00000  0.00000  0.50000  Biso   1.000  Zn
  Zn26     1.0000 0.50000  0.50000  0.00000  Biso   1.000  Zn
  Zn27     1.0000 0.50000  0.00000  0.00000  Biso   1.000  Zn
  Zn28     1.0000 0.00000  0.50000  0.50000  Biso   1.000  Zn
  Zn29     1.0000 0.75000  0.25000  0.75000  Biso   1.000  Zn
  Zn30     1.0000 0.75000  0.75000  0.25000  Biso   1.000  Zn
  Zn31     1.0000 0.75000  0.25000  0.25000  Biso   1.000  Zn
  Zn32     1.0000 0.75000  0.75000  0.75000  Biso   1.000  Zn
