data_image0
_cell_length_a       18.9677
_cell_length_b       19.9186
_cell_length_c       31.739
_cell_angle_alpha    90
_cell_angle_beta     95.287
_cell_angle_gamma    90

_symmetry_space_group_name_H-M    "P 1"
_symmetry_int_tables_number       1

loop_
  _symmetry_equiv_pos_as_xyz
  'x, y, z'

loop_
  _atom_site_label
  _atom_site_occupancy
  _atom_site_fract_x
  _atom_site_fract_y
  _atom_site_fract_z
  _atom_site_thermal_displace_type
  _atom_site_B_iso_or_equiv
  _atom_site_type_symbol
  Zn1      1.0000 0.35819  0.85897  0.40850  Biso   1.000  Zn
  Zn2      1.0000 0.14390  0.08890  0.17478  Biso   1.000  Zn
  O1       1.0000 0.42580  0.82240  0.33230  Biso   1.000  O
  O2       1.0000 0.46250  0.84130  0.39570  Biso   1.000  O
  O3       1.0000 0.56070  0.81480  0.31370  Biso   1.000  O
  O4       1.0000 0.23840  0.27130  0.03720  Biso   1.000  O
  O5       1.0000 0.16720  0.26000  0.08960  Biso   1.000  O
  O6       1.0000 0.29220  0.14910  0.05081  Biso   1.000  O
  O7       1.0000 0.88280  0.39920  0.96490  Biso   1.000  O
  O8       1.0000 0.77800  0.44520  0.96850  Biso   1.000  O
  O9       1.0000 0.81920  0.47840  0.05440  Biso   1.000  O
  O10      1.0000 0.14840  0.09440  0.23540  Biso   1.000  O
  O11      1.0000 0.11300  0.19960  0.24260  Biso   1.000  O
  O12      1.0000 0.07600  0.18300  0.32420  Biso   1.000  O
  O13      1.0000 0.30980  0.91880  0.36920  Biso   1.000  O
  O14      1.0000 0.20870  0.86320  0.37880  Biso   1.000  O
  O15      1.0000 0.12520  0.95780  0.33300  Biso   1.000  O
  O16      1.0000 0.22800  0.47390  0.31380  Biso   1.000  O
  O17      1.0000 0.28450  0.55400  0.34610  Biso   1.000  O
  O18      1.0000 0.09520  0.52540  0.31860  Biso   1.000  O
  C1       1.0000 0.46960  0.82630  0.36020  Biso   1.000  C
  C2       1.0000 0.54400  0.79870  0.35540  Biso   1.000  C
  H1       1.0000 0.57860  0.81920  0.37640  Biso   1.000  H
  C3       1.0000 0.54840  0.72060  0.35840  Biso   1.000  C
  H2       1.0000 0.59610  0.70640  0.35570  Biso   1.000  H
  H3       1.0000 0.51730  0.70100  0.33620  Biso   1.000  H
  H4       1.0000 0.53440  0.70630  0.38530  Biso   1.000  H
  C4       1.0000 0.59040  0.87400  0.30670  Biso   1.000  C
  C5       1.0000 0.58230  0.93210  0.33100  Biso   1.000  C
  H5       1.0000 0.55680  0.93060  0.35460  Biso   1.000  H
  C6       1.0000 0.61230  0.99050  0.31950  Biso   1.000  C
  C7       1.0000 0.64850  0.99300  0.28300  Biso   1.000  C
  C8       1.0000 0.65510  0.93630  0.25730  Biso   1.000  C
  C9       1.0000 0.62310  0.88040  0.26850  Biso   1.000  C
  H6       1.0000 0.62220  0.84370  0.25040  Biso   1.000  H
  C10      1.0000 0.61160  0.05370  0.34670  Biso   1.000  C
  H7       1.0000 0.65880  0.06340  0.35860  Biso   1.000  H
  H8       1.0000 0.58160  0.04660  0.36910  Biso   1.000  H
  H9       1.0000 0.59390  0.09080  0.32950  Biso   1.000  H
  C11      1.0000 0.69350  0.93640  0.21820  Biso   1.000  C
  H10      1.0000 0.69010  0.89270  0.20540  Biso   1.000  H
  H11      1.0000 0.74240  0.94730  0.22550  Biso   1.000  H
  H12      1.0000 0.67260  0.96910  0.19860  Biso   1.000  H
  C12      1.0000 0.13100  0.14930  0.25990  Biso   1.000  C
  C13      1.0000 0.12780  0.14040  0.30530  Biso   1.000  C
  H13      1.0000 0.11900  0.09310  0.31150  Biso   1.000  H
  C14      1.0000 0.20010  0.16100  0.32560  Biso   1.000  C
  H14      1.0000 0.23350  0.12560  0.32220  Biso   1.000  H
  H15      1.0000 0.19730  0.16930  0.35520  Biso   1.000  H
  H16      1.0000 0.21520  0.20110  0.31230  Biso   1.000  H
  C15      1.0000 0.00640  0.16260  0.31090  Biso   1.000  C
  C16      1.0000 0.99000  0.11030  0.28480  Biso   1.000  C
  H17      1.0000 0.02650  0.08500  0.27520  Biso   1.000  H
  C17      1.0000 0.91950  0.09260  0.27180  Biso   1.000  C
  C18      1.0000 0.86780  0.13760  0.28740  Biso   1.000  C
  C19      1.0000 0.88440  0.19210  0.31350  Biso   1.000  C
  C20      1.0000 0.95470  0.20250  0.32480  Biso   1.000  C
  H18      1.0000 0.96800  0.23810  0.34280  Biso   1.000  H
  C21      1.0000 0.90120  0.03560  0.24010  Biso   1.000  C
  H19      1.0000 0.85090  0.02900  0.23690  Biso   1.000  H
  H20      1.0000 0.92410  0.99500  0.25040  Biso   1.000  H
  H21      1.0000 0.91740  0.04720  0.21330  Biso   1.000  H
  C22      1.0000 0.82800  0.23350  0.32730  Biso   1.000  C
  H22      1.0000 0.84590  0.26000  0.35120  Biso   1.000  H
  H23      1.0000 0.79030  0.20530  0.33510  Biso   1.000  H
  H24      1.0000 0.81040  0.26260  0.30460  Biso   1.000  H
  C23      1.0000 0.83770  0.43340  0.98270  Biso   1.000  C
  C24      1.0000 0.87100  0.46530  0.02420  Biso   1.000  C
  H25      1.0000 0.90980  0.43750  0.03710  Biso   1.000  H
  C25      1.0000 0.78350  0.42400  0.07310  Biso   1.000  C
  C26      1.0000 0.79230  0.36300  0.05920  Biso   1.000  C
  H26      1.0000 0.82230  0.35420  0.03830  Biso   1.000  H
  C27      1.0000 0.75240  0.30880  0.07800  Biso   1.000  C
  C28      1.0000 0.70900  0.32500  0.10990  Biso   1.000  C
  C29      1.0000 0.70390  0.39090  0.12190  Biso   1.000  C
  C30      1.0000 0.74310  0.43610  0.10330  Biso   1.000  C
  H27      1.0000 0.74130  0.48020  0.11280  Biso   1.000  H
  C31      1.0000 0.75890  0.23390  0.06380  Biso   1.000  C
  H28      1.0000 0.75130  0.20480  0.08710  Biso   1.000  H
  H29      1.0000 0.80540  0.22630  0.05510  Biso   1.000  H
  H30      1.0000 0.72410  0.22480  0.04070  Biso   1.000  H
  C32      1.0000 0.66210  0.41050  0.15900  Biso   1.000  C
  H31      1.0000 0.66880  0.45750  0.16500  Biso   1.000  H
  H32      1.0000 0.67860  0.38470  0.18350  Biso   1.000  H
  H33      1.0000 0.61270  0.40180  0.15180  Biso   1.000  H
  C33      1.0000 0.20960  0.23960  0.06330  Biso   1.000  C
  C34      1.0000 0.22990  0.16770  0.06900  Biso   1.000  C
  H34      1.0000 0.23450  0.15650  0.09920  Biso   1.000  H
  C35      1.0000 0.17500  0.12170  0.04540  Biso   1.000  C
  H35      1.0000 0.12880  0.13210  0.05370  Biso   1.000  H
  H36      1.0000 0.18630  0.07570  0.05220  Biso   1.000  H
  H37      1.0000 0.17550  0.12830  0.01550  Biso   1.000  H
  C36      1.0000 0.35830  0.16430  0.07140  Biso   1.000  C
  C37      1.0000 0.41350  0.13830  0.05710  Biso   1.000  C
  H38      1.0000 0.40840  0.11140  0.03300  Biso   1.000  H
  C38      1.0000 0.47970  0.14970  0.07680  Biso   1.000  C
  C39      1.0000 0.48630  0.19460  0.11080  Biso   1.000  C
  C40      1.0000 0.42670  0.22190  0.12590  Biso   1.000  C
  C41      1.0000 0.36080  0.20560  0.10630  Biso   1.000  C
  H39      1.0000 0.31960  0.22210  0.11620  Biso   1.000  H
  C42      1.0000 0.54390  0.11750  0.05920  Biso   1.000  C
  H40      1.0000 0.57600  0.10150  0.08220  Biso   1.000  H
  H41      1.0000 0.56740  0.15020  0.04330  Biso   1.000  H
  H42      1.0000 0.52870  0.08060  0.04120  Biso   1.000  H
  C43      1.0000 0.43430  0.27140  0.16590  Biso   1.000  C
  H43      1.0000 0.40130  0.30780  0.16130  Biso   1.000  H
  H44      1.0000 0.48170  0.28900  0.16950  Biso   1.000  H
  H45      1.0000 0.42460  0.24720  0.19090  Biso   1.000  H
  C44      1.0000 0.68620  0.05960  0.26930  Biso   1.000  C
  C45      1.0000 0.75360  0.07310  0.28550  Biso   1.000  C
  H46      1.0000 0.77440  0.04780  0.30790  Biso   1.000  H
  C46      1.0000 0.79050  0.12390  0.26880  Biso   1.000  C
  C47      1.0000 0.76270  0.16510  0.23540  Biso   1.000  C
  C48      1.0000 0.80090  0.21340  0.21520  Biso   1.000  C
  H47      1.0000 0.84810  0.22050  0.22490  Biso   1.000  H
  C49      1.0000 0.77270  0.24950  0.18300  Biso   1.000  C
  H48      1.0000 0.79940  0.28290  0.17160  Biso   1.000  H
  C50      1.0000 0.70010  0.23740  0.16530  Biso   1.000  C
  C51      1.0000 0.66930  0.27370  0.12870  Biso   1.000  C
  C52      1.0000 0.60070  0.25870  0.11450  Biso   1.000  C
  H49      1.0000 0.57960  0.28350  0.09190  Biso   1.000  H
  C53      1.0000 0.55890  0.20730  0.13200  Biso   1.000  C
  C54      1.0000 0.58800  0.17370  0.16660  Biso   1.000  C
  C55      1.0000 0.55180  0.12220  0.18560  Biso   1.000  C
  H50      1.0000 0.50550  0.11280  0.17510  Biso   1.000  H
  C56      1.0000 0.58090  0.08560  0.21840  Biso   1.000  C
  H51      1.0000 0.55440  0.05240  0.23020  Biso   1.000  H
  C57      1.0000 0.65360  0.09790  0.23550  Biso   1.000  C
  C58      1.0000 0.69110  0.14670  0.21960  Biso   1.000  C
  C59      1.0000 0.65960  0.18880  0.18360  Biso   1.000  C
  C60      1.0000 0.24360  0.90690  0.36010  Biso   1.000  C
  C61      1.0000 0.20440  0.96010  0.32950  Biso   1.000  C
  H52      1.0000 0.22350  0.00530  0.33450  Biso   1.000  H
  C62      1.0000 0.21480  0.93500  0.28390  Biso   1.000  C
  H53      1.0000 0.26330  0.94100  0.27850  Biso   1.000  H
  H54      1.0000 0.18470  0.96030  0.26370  Biso   1.000  H
  H55      1.0000 0.20260  0.88830  0.28150  Biso   1.000  H
  C63      1.0000 0.10750  0.99430  0.36760  Biso   1.000  C
  C64      1.0000 0.15510  0.01760  0.39930  Biso   1.000  C
  H56      1.0000 0.20340  0.00950  0.39910  Biso   1.000  H
  C65      1.0000 0.12750  0.05490  0.43280  Biso   1.000  C
  C66      1.0000 0.05530  0.06730  0.43190  Biso   1.000  C
  C67      1.0000 0.00820  0.04090  0.39810  Biso   1.000  C
  C68      1.0000 0.03460  0.00320  0.36840  Biso   1.000  C
  H57      1.0000 0.00380  0.98240  0.34800  Biso   1.000  H
  C69      1.0000 0.02610  0.10680  0.46670  Biso   1.000  C
  C70      1.0000 0.93070  0.05610  0.39730  Biso   1.000  C
  H58      1.0000 0.90820  0.04800  0.36940  Biso   1.000  H
  H59      1.0000 0.92440  0.10230  0.40470  Biso   1.000  H
  H60      1.0000 0.90980  0.02770  0.41720  Biso   1.000  H
  C71      1.0000 0.18230  0.08460  0.46820  Biso   1.000  C
  H61      1.0000 0.15730  0.10750  0.48890  Biso   1.000  H
  H62      1.0000 0.21310  0.11560  0.45570  Biso   1.000  H
  H63      1.0000 0.20990  0.04880  0.48160  Biso   1.000  H
  C72      1.0000 0.02700  0.18000  0.46630  Biso   1.000  C
  C73      1.0000 0.02400  0.32140  0.46500  Biso   1.000  C
  C74      1.0000 0.04790  0.28000  0.43180  Biso   1.000  C
  H64      1.0000 0.06370  0.30210  0.40870  Biso   1.000  H
  C75      1.0000 0.04940  0.21470  0.43120  Biso   1.000  C
  H65      1.0000 0.06490  0.19170  0.40830  Biso   1.000  H
  C76      1.0000 0.02290  0.39140  0.46570  Biso   1.000  C
  C77      1.0000 0.04320  0.42620  0.42820  Biso   1.000  C
  C78      1.0000 0.99690  0.43490  0.39230  Biso   1.000  C
  C79      1.0000 0.01490  0.46370  0.35460  Biso   1.000  C
  H66      1.0000 0.98480  0.46030  0.32990  Biso   1.000  H
  C80      1.0000 0.07570  0.49570  0.35520  Biso   1.000  C
  C81      1.0000 0.12410  0.49400  0.39140  Biso   1.000  C
  H67      1.0000 0.16770  0.51500  0.39060  Biso   1.000  H
  C82      1.0000 0.10930  0.46260  0.42780  Biso   1.000  C
  C83      1.0000 0.16140  0.45650  0.46960  Biso   1.000  C
  H68      1.0000 0.20450  0.48010  0.46590  Biso   1.000  H
  H69      1.0000 0.17170  0.41000  0.47530  Biso   1.000  H
  H70      1.0000 0.13940  0.47560  0.49290  Biso   1.000  H
  C84      1.0000 0.92410  0.40220  0.39330  Biso   1.000  C
  H71      1.0000 0.88950  0.42820  0.37640  Biso   1.000  H
  H72      1.0000 0.91170  0.40060  0.42190  Biso   1.000  H
  H73      1.0000 0.92540  0.35750  0.38210  Biso   1.000  H
  C85      1.0000 0.89770  0.53890  0.01580  Biso   1.000  C
  H74      1.0000 0.90250  0.54440  0.98610  Biso   1.000  H
  H75      1.0000 0.94270  0.54610  0.03150  Biso   1.000  H
  H76      1.0000 0.86410  0.57080  0.02450  Biso   1.000  H
  C86      1.0000 0.15080  0.60520  0.27740  Biso   1.000  C
  H77      1.0000 0.13380  0.57560  0.25490  Biso   1.000  H
  H78      1.0000 0.19790  0.61970  0.27320  Biso   1.000  H
  H79      1.0000 0.12020  0.64360  0.27770  Biso   1.000  H
  C87      1.0000 0.21700  0.54000  0.32150  Biso   1.000  C
  C88      1.0000 0.15170  0.56930  0.31860  Biso   1.000  C
  H80      1.0000 0.14940  0.60200  0.34150  Biso   1.000  H
  Zn3      1.0000 0.85819  0.35897  0.90850  Biso   1.000  Zn
  Zn4      1.0000 0.64390  0.58890  0.67478  Biso   1.000  Zn
  O19      1.0000 0.92580  0.32240  0.83230  Biso   1.000  O
  O20      1.0000 0.96250  0.34130  0.89570  Biso   1.000  O
  O21      1.0000 0.06070  0.31480  0.81370  Biso   1.000  O
  O22      1.0000 0.73840  0.77130  0.53720  Biso   1.000  O
  O23      1.0000 0.66720  0.76000  0.58960  Biso   1.000  O
  O24      1.0000 0.79220  0.64910  0.55081  Biso   1.000  O
  O25      1.0000 0.38280  0.89920  0.46490  Biso   1.000  O
  O26      1.0000 0.27800  0.94520  0.46850  Biso   1.000  O
  O27      1.0000 0.31920  0.97840  0.55440  Biso   1.000  O
  O28      1.0000 0.64840  0.59440  0.73540  Biso   1.000  O
  O29      1.0000 0.61300  0.69960  0.74260  Biso   1.000  O
  O30      1.0000 0.57600  0.68300  0.82420  Biso   1.000  O
  O31      1.0000 0.80980  0.41880  0.86920  Biso   1.000  O
  O32      1.0000 0.70870  0.36320  0.87880  Biso   1.000  O
  O33      1.0000 0.62520  0.45780  0.83300  Biso   1.000  O
  O34      1.0000 0.72800  0.97390  0.81380  Biso   1.000  O
  O35      1.0000 0.78450  0.05400  0.84610  Biso   1.000  O
  O36      1.0000 0.59520  0.02540  0.81860  Biso   1.000  O
  C89      1.0000 0.96960  0.32630  0.86020  Biso   1.000  C
  C90      1.0000 0.04400  0.29870  0.85540  Biso   1.000  C
  H81      1.0000 0.07860  0.31920  0.87640  Biso   1.000  H
  C91      1.0000 0.04840  0.22060  0.85840  Biso   1.000  C
  H82      1.0000 0.09610  0.20640  0.85570  Biso   1.000  H
  H83      1.0000 0.01730  0.20100  0.83620  Biso   1.000  H
  H84      1.0000 0.03440  0.20630  0.88530  Biso   1.000  H
  C92      1.0000 0.09040  0.37400  0.80670  Biso   1.000  C
  C93      1.0000 0.08230  0.43210  0.83100  Biso   1.000  C
  H85      1.0000 0.05680  0.43060  0.85460  Biso   1.000  H
  C94      1.0000 0.11230  0.49050  0.81950  Biso   1.000  C
  C95      1.0000 0.14850  0.49300  0.78300  Biso   1.000  C
  C96      1.0000 0.15510  0.43630  0.75730  Biso   1.000  C
  C97      1.0000 0.12310  0.38040  0.76850  Biso   1.000  C
  H86      1.0000 0.12220  0.34370  0.75040  Biso   1.000  H
  C98      1.0000 0.11160  0.55370  0.84670  Biso   1.000  C
  H87      1.0000 0.15880  0.56340  0.85860  Biso   1.000  H
  H88      1.0000 0.08160  0.54660  0.86910  Biso   1.000  H
  H89      1.0000 0.09390  0.59080  0.82950  Biso   1.000  H
  C99      1.0000 0.19350  0.43640  0.71820  Biso   1.000  C
  H90      1.0000 0.19010  0.39270  0.70540  Biso   1.000  H
  H91      1.0000 0.24240  0.44730  0.72550  Biso   1.000  H
  H92      1.0000 0.17260  0.46910  0.69860  Biso   1.000  H
  C100     1.0000 0.63100  0.64930  0.75990  Biso   1.000  C
  C101     1.0000 0.62780  0.64040  0.80530  Biso   1.000  C
  H93      1.0000 0.61900  0.59310  0.81150  Biso   1.000  H
  C102     1.0000 0.70010  0.66100  0.82560  Biso   1.000  C
  H94      1.0000 0.73350  0.62560  0.82220  Biso   1.000  H
  H95      1.0000 0.69730  0.66930  0.85520  Biso   1.000  H
  H96      1.0000 0.71520  0.70110  0.81230  Biso   1.000  H
  C103     1.0000 0.50640  0.66260  0.81090  Biso   1.000  C
  C104     1.0000 0.49000  0.61030  0.78480  Biso   1.000  C
  H97      1.0000 0.52650  0.58500  0.77520  Biso   1.000  H
  C105     1.0000 0.41950  0.59260  0.77180  Biso   1.000  C
  C106     1.0000 0.36780  0.63760  0.78740  Biso   1.000  C
  C107     1.0000 0.38440  0.69210  0.81350  Biso   1.000  C
  C108     1.0000 0.45470  0.70250  0.82480  Biso   1.000  C
  H98      1.0000 0.46800  0.73810  0.84280  Biso   1.000  H
  C109     1.0000 0.40120  0.53560  0.74010  Biso   1.000  C
  H99      1.0000 0.35090  0.52900  0.73690  Biso   1.000  H
  H100     1.0000 0.42410  0.49500  0.75040  Biso   1.000  H
  H101     1.0000 0.41740  0.54720  0.71330  Biso   1.000  H
  C110     1.0000 0.32800  0.73350  0.82730  Biso   1.000  C
  H102     1.0000 0.34590  0.76000  0.85120  Biso   1.000  H
  H103     1.0000 0.29030  0.70530  0.83510  Biso   1.000  H
  H104     1.0000 0.31040  0.76260  0.80460  Biso   1.000  H
  C111     1.0000 0.33770  0.93340  0.48270  Biso   1.000  C
  C112     1.0000 0.37100  0.96530  0.52420  Biso   1.000  C
  H105     1.0000 0.40980  0.93750  0.53710  Biso   1.000  H
  C113     1.0000 0.28350  0.92400  0.57310  Biso   1.000  C
  C114     1.0000 0.29230  0.86300  0.55920  Biso   1.000  C
  H106     1.0000 0.32230  0.85420  0.53830  Biso   1.000  H
  C115     1.0000 0.25240  0.80880  0.57800  Biso   1.000  C
  C116     1.0000 0.20900  0.82500  0.60990  Biso   1.000  C
  C117     1.0000 0.20390  0.89090  0.62190  Biso   1.000  C
  C118     1.0000 0.24310  0.93610  0.60330  Biso   1.000  C
  H107     1.0000 0.24130  0.98020  0.61280  Biso   1.000  H
  C119     1.0000 0.25890  0.73390  0.56380  Biso   1.000  C
  H108     1.0000 0.25130  0.70480  0.58710  Biso   1.000  H
  H109     1.0000 0.30540  0.72630  0.55510  Biso   1.000  H
  H110     1.0000 0.22410  0.72480  0.54070  Biso   1.000  H
  C120     1.0000 0.16210  0.91050  0.65900  Biso   1.000  C
  H111     1.0000 0.16880  0.95750  0.66500  Biso   1.000  H
  H112     1.0000 0.17860  0.88470  0.68350  Biso   1.000  H
  H113     1.0000 0.11270  0.90180  0.65180  Biso   1.000  H
  C121     1.0000 0.70960  0.73960  0.56330  Biso   1.000  C
  C122     1.0000 0.72990  0.66770  0.56900  Biso   1.000  C
  H114     1.0000 0.73450  0.65650  0.59920  Biso   1.000  H
  C123     1.0000 0.67500  0.62170  0.54540  Biso   1.000  C
  H115     1.0000 0.62880  0.63210  0.55370  Biso   1.000  H
  H116     1.0000 0.68630  0.57570  0.55220  Biso   1.000  H
  H117     1.0000 0.67550  0.62830  0.51550  Biso   1.000  H
  C124     1.0000 0.85830  0.66430  0.57140  Biso   1.000  C
  C125     1.0000 0.91350  0.63830  0.55710  Biso   1.000  C
  H118     1.0000 0.90840  0.61140  0.53300  Biso   1.000  H
  C126     1.0000 0.97970  0.64970  0.57680  Biso   1.000  C
  C127     1.0000 0.98630  0.69460  0.61080  Biso   1.000  C
  C128     1.0000 0.92670  0.72190  0.62590  Biso   1.000  C
  C129     1.0000 0.86080  0.70560  0.60630  Biso   1.000  C
  H119     1.0000 0.81960  0.72210  0.61620  Biso   1.000  H
  C130     1.0000 0.04390  0.61750  0.55920  Biso   1.000  C
  H120     1.0000 0.07600  0.60150  0.58220  Biso   1.000  H
  H121     1.0000 0.06740  0.65020  0.54330  Biso   1.000  H
  H122     1.0000 0.02870  0.58060  0.54120  Biso   1.000  H
  C131     1.0000 0.93430  0.77140  0.66590  Biso   1.000  C
  H123     1.0000 0.90130  0.80780  0.66130  Biso   1.000  H
  H124     1.0000 0.98170  0.78900  0.66950  Biso   1.000  H
  H125     1.0000 0.92460  0.74720  0.69090  Biso   1.000  H
  C132     1.0000 0.18620  0.55960  0.76930  Biso   1.000  C
  C133     1.0000 0.25360  0.57310  0.78550  Biso   1.000  C
  H126     1.0000 0.27440  0.54780  0.80790  Biso   1.000  H
  C134     1.0000 0.29050  0.62390  0.76880  Biso   1.000  C
  C135     1.0000 0.26270  0.66510  0.73540  Biso   1.000  C
  C136     1.0000 0.30090  0.71340  0.71520  Biso   1.000  C
  H127     1.0000 0.34810  0.72050  0.72490  Biso   1.000  H
  C137     1.0000 0.27270  0.74950  0.68300  Biso   1.000  C
  H128     1.0000 0.29940  0.78290  0.67160  Biso   1.000  H
  C138     1.0000 0.20010  0.73740  0.66530  Biso   1.000  C
  C139     1.0000 0.16930  0.77370  0.62870  Biso   1.000  C
  C140     1.0000 0.10070  0.75870  0.61450  Biso   1.000  C
  H129     1.0000 0.07960  0.78350  0.59190  Biso   1.000  H
  C141     1.0000 0.05890  0.70730  0.63200  Biso   1.000  C
  C142     1.0000 0.08800  0.67370  0.66660  Biso   1.000  C
  C143     1.0000 0.05180  0.62220  0.68560  Biso   1.000  C
  H130     1.0000 0.00550  0.61280  0.67510  Biso   1.000  H
  C144     1.0000 0.08090  0.58560  0.71840  Biso   1.000  C
  H131     1.0000 0.05440  0.55240  0.73020  Biso   1.000  H
  C145     1.0000 0.15360  0.59790  0.73550  Biso   1.000  C
  C146     1.0000 0.19110  0.64670  0.71960  Biso   1.000  C
  C147     1.0000 0.15960  0.68880  0.68360  Biso   1.000  C
  C148     1.0000 0.74360  0.40690  0.86010  Biso   1.000  C
  C149     1.0000 0.70440  0.46010  0.82950  Biso   1.000  C
  H132     1.0000 0.72350  0.50530  0.83450  Biso   1.000  H
  C150     1.0000 0.71480  0.43500  0.78390  Biso   1.000  C
  H133     1.0000 0.76330  0.44100  0.77850  Biso   1.000  H
  H134     1.0000 0.68470  0.46030  0.76370  Biso   1.000  H
  H135     1.0000 0.70260  0.38830  0.78150  Biso   1.000  H
  C151     1.0000 0.60750  0.49430  0.86760  Biso   1.000  C
  C152     1.0000 0.65510  0.51760  0.89930  Biso   1.000  C
  H136     1.0000 0.70340  0.50950  0.89910  Biso   1.000  H
  C153     1.0000 0.62750  0.55490  0.93280  Biso   1.000  C
  C154     1.0000 0.55530  0.56730  0.93190  Biso   1.000  C
  C155     1.0000 0.50820  0.54090  0.89810  Biso   1.000  C
  C156     1.0000 0.53460  0.50320  0.86840  Biso   1.000  C
  H137     1.0000 0.50380  0.48240  0.84800  Biso   1.000  H
  C157     1.0000 0.52610  0.60680  0.96670  Biso   1.000  C
  C158     1.0000 0.43070  0.55610  0.89730  Biso   1.000  C
  H138     1.0000 0.40820  0.54800  0.86940  Biso   1.000  H
  H139     1.0000 0.42440  0.60230  0.90470  Biso   1.000  H
  H140     1.0000 0.40980  0.52770  0.91720  Biso   1.000  H
  C159     1.0000 0.68230  0.58460  0.96820  Biso   1.000  C
  H141     1.0000 0.65730  0.60750  0.98890  Biso   1.000  H
  H142     1.0000 0.71310  0.61560  0.95570  Biso   1.000  H
  H143     1.0000 0.70990  0.54880  0.98160  Biso   1.000  H
  C160     1.0000 0.52700  0.68000  0.96630  Biso   1.000  C
  C161     1.0000 0.52400  0.82140  0.96500  Biso   1.000  C
  C162     1.0000 0.54790  0.78000  0.93180  Biso   1.000  C
  H144     1.0000 0.56370  0.80210  0.90870  Biso   1.000  H
  C163     1.0000 0.54940  0.71470  0.93120  Biso   1.000  C
  H145     1.0000 0.56490  0.69170  0.90830  Biso   1.000  H
  C164     1.0000 0.52290  0.89140  0.96570  Biso   1.000  C
  C165     1.0000 0.54320  0.92620  0.92820  Biso   1.000  C
  C166     1.0000 0.49690  0.93490  0.89230  Biso   1.000  C
  C167     1.0000 0.51490  0.96370  0.85460  Biso   1.000  C
  H146     1.0000 0.48480  0.96030  0.82990  Biso   1.000  H
  C168     1.0000 0.57570  0.99570  0.85520  Biso   1.000  C
  C169     1.0000 0.62410  0.99400  0.89140  Biso   1.000  C
  H147     1.0000 0.66770  0.01500  0.89060  Biso   1.000  H
  C170     1.0000 0.60930  0.96260  0.92780  Biso   1.000  C
  C171     1.0000 0.66140  0.95650  0.96960  Biso   1.000  C
  H148     1.0000 0.70450  0.98010  0.96590  Biso   1.000  H
  H149     1.0000 0.67170  0.91000  0.97530  Biso   1.000  H
  H150     1.0000 0.63940  0.97560  0.99290  Biso   1.000  H
  C172     1.0000 0.42410  0.90220  0.89330  Biso   1.000  C
  H151     1.0000 0.38950  0.92820  0.87640  Biso   1.000  H
  H152     1.0000 0.41170  0.90060  0.92190  Biso   1.000  H
  H153     1.0000 0.42540  0.85750  0.88210  Biso   1.000  H
  C173     1.0000 0.39770  0.03890  0.51580  Biso   1.000  C
  H154     1.0000 0.40250  0.04440  0.48610  Biso   1.000  H
  H155     1.0000 0.44270  0.04610  0.53150  Biso   1.000  H
  H156     1.0000 0.36410  0.07080  0.52450  Biso   1.000  H
  C174     1.0000 0.65080  0.10520  0.77740  Biso   1.000  C
  H157     1.0000 0.63380  0.07560  0.75490  Biso   1.000  H
  H158     1.0000 0.69790  0.11970  0.77320  Biso   1.000  H
  H159     1.0000 0.62020  0.14360  0.77770  Biso   1.000  H
  C175     1.0000 0.71700  0.04000  0.82150  Biso   1.000  C
  C176     1.0000 0.65170  0.06930  0.81860  Biso   1.000  C
  H160     1.0000 0.64940  0.10200  0.84150  Biso   1.000  H
  Zn5      1.0000 0.64181  0.85897  0.59150  Biso   1.000  Zn
  Zn6      1.0000 0.85610  0.08890  0.82522  Biso   1.000  Zn
  O37      1.0000 0.57420  0.82240  0.66770  Biso   1.000  O
  O38      1.0000 0.53750  0.84130  0.60430  Biso   1.000  O
  O39      1.0000 0.43930  0.81480  0.68630  Biso   1.000  O
  O40      1.0000 0.76160  0.27130  0.96280  Biso   1.000  O
  O41      1.0000 0.83280  0.26000  0.91040  Biso   1.000  O
  O42      1.0000 0.70780  0.14910  0.94919  Biso   1.000  O
  O43      1.0000 0.11720  0.39920  0.03510  Biso   1.000  O
  O44      1.0000 0.22200  0.44520  0.03150  Biso   1.000  O
  O45      1.0000 0.18080  0.47840  0.94560  Biso   1.000  O
  O46      1.0000 0.85160  0.09440  0.76460  Biso   1.000  O
  O47      1.0000 0.88700  0.19960  0.75740  Biso   1.000  O
  O48      1.0000 0.92400  0.18300  0.67580  Biso   1.000  O
  O49      1.0000 0.69020  0.91880  0.63080  Biso   1.000  O
  O50      1.0000 0.79130  0.86320  0.62120  Biso   1.000  O
  O51      1.0000 0.87480  0.95780  0.66700  Biso   1.000  O
  O52      1.0000 0.77200  0.47390  0.68620  Biso   1.000  O
  O53      1.0000 0.71550  0.55400  0.65390  Biso   1.000  O
  O54      1.0000 0.90480  0.52540  0.68140  Biso   1.000  O
  C177     1.0000 0.53040  0.82630  0.63980  Biso   1.000  C
  C178     1.0000 0.45600  0.79870  0.64460  Biso   1.000  C
  H161     1.0000 0.42140  0.81920  0.62360  Biso   1.000  H
  C179     1.0000 0.45160  0.72060  0.64160  Biso   1.000  C
  H162     1.0000 0.40390  0.70640  0.64430  Biso   1.000  H
  H163     1.0000 0.48270  0.70100  0.66380  Biso   1.000  H
  H164     1.0000 0.46560  0.70630  0.61470  Biso   1.000  H
  C180     1.0000 0.40960  0.87400  0.69330  Biso   1.000  C
  C181     1.0000 0.41770  0.93210  0.66900  Biso   1.000  C
  H165     1.0000 0.44320  0.93060  0.64540  Biso   1.000  H
  C182     1.0000 0.38770  0.99050  0.68050  Biso   1.000  C
  C183     1.0000 0.35150  0.99300  0.71700  Biso   1.000  C
  C184     1.0000 0.34490  0.93630  0.74270  Biso   1.000  C
  C185     1.0000 0.37690  0.88040  0.73150  Biso   1.000  C
  H166     1.0000 0.37780  0.84370  0.74960  Biso   1.000  H
  C186     1.0000 0.38840  0.05370  0.65330  Biso   1.000  C
  H167     1.0000 0.34120  0.06340  0.64140  Biso   1.000  H
  H168     1.0000 0.41840  0.04660  0.63090  Biso   1.000  H
  H169     1.0000 0.40610  0.09080  0.67050  Biso   1.000  H
  C187     1.0000 0.30650  0.93640  0.78180  Biso   1.000  C
  H170     1.0000 0.30990  0.89270  0.79460  Biso   1.000  H
  H171     1.0000 0.25760  0.94730  0.77450  Biso   1.000  H
  H172     1.0000 0.32740  0.96910  0.80140  Biso   1.000  H
  C188     1.0000 0.86900  0.14930  0.74010  Biso   1.000  C
  C189     1.0000 0.87220  0.14040  0.69470  Biso   1.000  C
  H173     1.0000 0.88100  0.09310  0.68850  Biso   1.000  H
  C190     1.0000 0.79990  0.16100  0.67440  Biso   1.000  C
  H174     1.0000 0.76650  0.12560  0.67780  Biso   1.000  H
  H175     1.0000 0.80270  0.16930  0.64480  Biso   1.000  H
  H176     1.0000 0.78480  0.20110  0.68770  Biso   1.000  H
  C191     1.0000 0.99360  0.16260  0.68910  Biso   1.000  C
  C192     1.0000 0.01000  0.11030  0.71520  Biso   1.000  C
  H177     1.0000 0.97350  0.08500  0.72480  Biso   1.000  H
  C193     1.0000 0.08050  0.09260  0.72820  Biso   1.000  C
  C194     1.0000 0.13220  0.13760  0.71260  Biso   1.000  C
  C195     1.0000 0.11560  0.19210  0.68650  Biso   1.000  C
  C196     1.0000 0.04530  0.20250  0.67520  Biso   1.000  C
  H178     1.0000 0.03200  0.23810  0.65720  Biso   1.000  H
  C197     1.0000 0.09880  0.03560  0.75990  Biso   1.000  C
  H179     1.0000 0.14910  0.02900  0.76310  Biso   1.000  H
  H180     1.0000 0.07590  0.99500  0.74960  Biso   1.000  H
  H181     1.0000 0.08260  0.04720  0.78670  Biso   1.000  H
  C198     1.0000 0.17200  0.23350  0.67270  Biso   1.000  C
  H182     1.0000 0.15410  0.26000  0.64880  Biso   1.000  H
  H183     1.0000 0.20970  0.20530  0.66490  Biso   1.000  H
  H184     1.0000 0.18960  0.26260  0.69540  Biso   1.000  H
  C199     1.0000 0.16230  0.43340  0.01730  Biso   1.000  C
  C200     1.0000 0.12900  0.46530  0.97580  Biso   1.000  C
  H185     1.0000 0.09020  0.43750  0.96290  Biso   1.000  H
  C201     1.0000 0.21650  0.42400  0.92690  Biso   1.000  C
  C202     1.0000 0.20770  0.36300  0.94080  Biso   1.000  C
  H186     1.0000 0.17770  0.35420  0.96170  Biso   1.000  H
  C203     1.0000 0.24760  0.30880  0.92200  Biso   1.000  C
  C204     1.0000 0.29100  0.32500  0.89010  Biso   1.000  C
  C205     1.0000 0.29610  0.39090  0.87810  Biso   1.000  C
  C206     1.0000 0.25690  0.43610  0.89670  Biso   1.000  C
  H187     1.0000 0.25870  0.48020  0.88720  Biso   1.000  H
  C207     1.0000 0.24110  0.23390  0.93620  Biso   1.000  C
  H188     1.0000 0.24870  0.20480  0.91290  Biso   1.000  H
  H189     1.0000 0.19460  0.22630  0.94490  Biso   1.000  H
  H190     1.0000 0.27590  0.22480  0.95930  Biso   1.000  H
  C208     1.0000 0.33790  0.41050  0.84100  Biso   1.000  C
  H191     1.0000 0.33120  0.45750  0.83500  Biso   1.000  H
  H192     1.0000 0.32140  0.38470  0.81650  Biso   1.000  H
  H193     1.0000 0.38730  0.40180  0.84820  Biso   1.000  H
  C209     1.0000 0.79040  0.23960  0.93670  Biso   1.000  C
  C210     1.0000 0.77010  0.16770  0.93100  Biso   1.000  C
  H194     1.0000 0.76550  0.15650  0.90080  Biso   1.000  H
  C211     1.0000 0.82500  0.12170  0.95460  Biso   1.000  C
  H195     1.0000 0.87120  0.13210  0.94630  Biso   1.000  H
  H196     1.0000 0.81370  0.07570  0.94780  Biso   1.000  H
  H197     1.0000 0.82450  0.12830  0.98450  Biso   1.000  H
  C212     1.0000 0.64170  0.16430  0.92860  Biso   1.000  C
  C213     1.0000 0.58650  0.13830  0.94290  Biso   1.000  C
  H198     1.0000 0.59160  0.11140  0.96700  Biso   1.000  H
  C214     1.0000 0.52030  0.14970  0.92320  Biso   1.000  C
  C215     1.0000 0.51370  0.19460  0.88920  Biso   1.000  C
  C216     1.0000 0.57330  0.22190  0.87410  Biso   1.000  C
  C217     1.0000 0.63920  0.20560  0.89370  Biso   1.000  C
  H199     1.0000 0.68040  0.22210  0.88380  Biso   1.000  H
  C218     1.0000 0.45610  0.11750  0.94080  Biso   1.000  C
  H200     1.0000 0.42400  0.10150  0.91780  Biso   1.000  H
  H201     1.0000 0.43260  0.15020  0.95670  Biso   1.000  H
  H202     1.0000 0.47130  0.08060  0.95880  Biso   1.000  H
  C219     1.0000 0.56570  0.27140  0.83410  Biso   1.000  C
  H203     1.0000 0.59870  0.30780  0.83870  Biso   1.000  H
  H204     1.0000 0.51830  0.28900  0.83050  Biso   1.000  H
  H205     1.0000 0.57540  0.24720  0.80910  Biso   1.000  H
  C220     1.0000 0.31380  0.05960  0.73070  Biso   1.000  C
  C221     1.0000 0.24640  0.07310  0.71450  Biso   1.000  C
  H206     1.0000 0.22560  0.04780  0.69210  Biso   1.000  H
  C222     1.0000 0.20950  0.12390  0.73120  Biso   1.000  C
  C223     1.0000 0.23730  0.16510  0.76460  Biso   1.000  C
  C224     1.0000 0.19910  0.21340  0.78480  Biso   1.000  C
  H207     1.0000 0.15190  0.22050  0.77510  Biso   1.000  H
  C225     1.0000 0.22730  0.24950  0.81700  Biso   1.000  C
  H208     1.0000 0.20060  0.28290  0.82840  Biso   1.000  H
  C226     1.0000 0.29990  0.23740  0.83470  Biso   1.000  C
  C227     1.0000 0.33070  0.27370  0.87130  Biso   1.000  C
  C228     1.0000 0.39930  0.25870  0.88550  Biso   1.000  C
  H209     1.0000 0.42040  0.28350  0.90810  Biso   1.000  H
  C229     1.0000 0.44110  0.20730  0.86800  Biso   1.000  C
  C230     1.0000 0.41200  0.17370  0.83340  Biso   1.000  C
  C231     1.0000 0.44820  0.12220  0.81440  Biso   1.000  C
  H210     1.0000 0.49450  0.11280  0.82490  Biso   1.000  H
  C232     1.0000 0.41910  0.08560  0.78160  Biso   1.000  C
  H211     1.0000 0.44560  0.05240  0.76980  Biso   1.000  H
  C233     1.0000 0.34640  0.09790  0.76450  Biso   1.000  C
  C234     1.0000 0.30890  0.14670  0.78040  Biso   1.000  C
  C235     1.0000 0.34040  0.18880  0.81640  Biso   1.000  C
  C236     1.0000 0.75640  0.90690  0.63990  Biso   1.000  C
  C237     1.0000 0.79560  0.96010  0.67050  Biso   1.000  C
  H212     1.0000 0.77650  0.00530  0.66550  Biso   1.000  H
  C238     1.0000 0.78520  0.93500  0.71610  Biso   1.000  C
  H213     1.0000 0.73670  0.94100  0.72150  Biso   1.000  H
  H214     1.0000 0.81530  0.96030  0.73630  Biso   1.000  H
  H215     1.0000 0.79740  0.88830  0.71850  Biso   1.000  H
  C239     1.0000 0.89250  0.99430  0.63240  Biso   1.000  C
  C240     1.0000 0.84490  0.01760  0.60070  Biso   1.000  C
  H216     1.0000 0.79660  0.00950  0.60090  Biso   1.000  H
  C241     1.0000 0.87250  0.05490  0.56720  Biso   1.000  C
  C242     1.0000 0.94470  0.06730  0.56810  Biso   1.000  C
  C243     1.0000 0.99180  0.04090  0.60190  Biso   1.000  C
  C244     1.0000 0.96540  0.00320  0.63160  Biso   1.000  C
  H217     1.0000 0.99620  0.98240  0.65200  Biso   1.000  H
  C245     1.0000 0.97390  0.10680  0.53330  Biso   1.000  C
  C246     1.0000 0.06930  0.05610  0.60270  Biso   1.000  C
  H218     1.0000 0.09180  0.04800  0.63060  Biso   1.000  H
  H219     1.0000 0.07560  0.10230  0.59530  Biso   1.000  H
  H220     1.0000 0.09020  0.02770  0.58280  Biso   1.000  H
  C247     1.0000 0.81770  0.08460  0.53180  Biso   1.000  C
  H221     1.0000 0.84270  0.10750  0.51110  Biso   1.000  H
  H222     1.0000 0.78690  0.11560  0.54430  Biso   1.000  H
  H223     1.0000 0.79010  0.04880  0.51840  Biso   1.000  H
  C248     1.0000 0.97300  0.18000  0.53370  Biso   1.000  C
  C249     1.0000 0.97600  0.32140  0.53500  Biso   1.000  C
  C250     1.0000 0.95210  0.28000  0.56820  Biso   1.000  C
  H224     1.0000 0.93630  0.30210  0.59130  Biso   1.000  H
  C251     1.0000 0.95060  0.21470  0.56880  Biso   1.000  C
  H225     1.0000 0.93510  0.19170  0.59170  Biso   1.000  H
  C252     1.0000 0.97710  0.39140  0.53430  Biso   1.000  C
  C253     1.0000 0.95680  0.42620  0.57180  Biso   1.000  C
  C254     1.0000 0.00310  0.43490  0.60770  Biso   1.000  C
  C255     1.0000 0.98510  0.46370  0.64540  Biso   1.000  C
  H226     1.0000 0.01520  0.46030  0.67010  Biso   1.000  H
  C256     1.0000 0.92430  0.49570  0.64480  Biso   1.000  C
  C257     1.0000 0.87590  0.49400  0.60860  Biso   1.000  C
  H227     1.0000 0.83230  0.51500  0.60940  Biso   1.000  H
  C258     1.0000 0.89070  0.46260  0.57220  Biso   1.000  C
  C259     1.0000 0.83860  0.45650  0.53040  Biso   1.000  C
  H228     1.0000 0.79550  0.48010  0.53410  Biso   1.000  H
  H229     1.0000 0.82830  0.41000  0.52470  Biso   1.000  H
  H230     1.0000 0.86060  0.47560  0.50710  Biso   1.000  H
  C260     1.0000 0.07590  0.40220  0.60670  Biso   1.000  C
  H231     1.0000 0.11050  0.42820  0.62360  Biso   1.000  H
  H232     1.0000 0.08830  0.40060  0.57810  Biso   1.000  H
  H233     1.0000 0.07460  0.35750  0.61790  Biso   1.000  H
  C261     1.0000 0.10230  0.53890  0.98420  Biso   1.000  C
  H234     1.0000 0.09750  0.54440  0.01390  Biso   1.000  H
  H235     1.0000 0.05730  0.54610  0.96850  Biso   1.000  H
  H236     1.0000 0.13590  0.57080  0.97550  Biso   1.000  H
  C262     1.0000 0.84920  0.60520  0.72260  Biso   1.000  C
  H237     1.0000 0.86620  0.57560  0.74510  Biso   1.000  H
  H238     1.0000 0.80210  0.61970  0.72680  Biso   1.000  H
  H239     1.0000 0.87980  0.64360  0.72230  Biso   1.000  H
  C263     1.0000 0.78300  0.54000  0.67850  Biso   1.000  C
  C264     1.0000 0.84830  0.56930  0.68140  Biso   1.000  C
  H240     1.0000 0.85060  0.60200  0.65850  Biso   1.000  H
  Zn7      1.0000 0.14181  0.35897  0.09150  Biso   1.000  Zn
  Zn8      1.0000 0.35610  0.58890  0.32522  Biso   1.000  Zn
  O55      1.0000 0.07420  0.32240  0.16770  Biso   1.000  O
  O56      1.0000 0.03750  0.34130  0.10430  Biso   1.000  O
  O57      1.0000 0.93930  0.31480  0.18630  Biso   1.000  O
  O58      1.0000 0.26160  0.77130  0.46280  Biso   1.000  O
  O59      1.0000 0.33280  0.76000  0.41040  Biso   1.000  O
  O60      1.0000 0.20780  0.64910  0.44919  Biso   1.000  O
  O61      1.0000 0.61720  0.89920  0.53510  Biso   1.000  O
  O62      1.0000 0.72200  0.94520  0.53150  Biso   1.000  O
  O63      1.0000 0.68080  0.97840  0.44560  Biso   1.000  O
  O64      1.0000 0.35160  0.59440  0.26460  Biso   1.000  O
  O65      1.0000 0.38700  0.69960  0.25740  Biso   1.000  O
  O66      1.0000 0.42400  0.68300  0.17580  Biso   1.000  O
  O67      1.0000 0.19020  0.41880  0.13080  Biso   1.000  O
  O68      1.0000 0.29130  0.36320  0.12120  Biso   1.000  O
  O69      1.0000 0.37480  0.45780  0.16700  Biso   1.000  O
  O70      1.0000 0.27200  0.97390  0.18620  Biso   1.000  O
  O71      1.0000 0.21550  0.05400  0.15390  Biso   1.000  O
  O72      1.0000 0.40480  0.02540  0.18140  Biso   1.000  O
  C265     1.0000 0.03040  0.32630  0.13980  Biso   1.000  C
  C266     1.0000 0.95600  0.29870  0.14460  Biso   1.000  C
  H241     1.0000 0.92140  0.31920  0.12360  Biso   1.000  H
  C267     1.0000 0.95160  0.22060  0.14160  Biso   1.000  C
  H242     1.0000 0.90390  0.20640  0.14430  Biso   1.000  H
  H243     1.0000 0.98270  0.20100  0.16380  Biso   1.000  H
  H244     1.0000 0.96560  0.20630  0.11470  Biso   1.000  H
  C268     1.0000 0.90960  0.37400  0.19330  Biso   1.000  C
  C269     1.0000 0.91770  0.43210  0.16900  Biso   1.000  C
  H245     1.0000 0.94320  0.43060  0.14540  Biso   1.000  H
  C270     1.0000 0.88770  0.49050  0.18050  Biso   1.000  C
  C271     1.0000 0.85150  0.49300  0.21700  Biso   1.000  C
  C272     1.0000 0.84490  0.43630  0.24270  Biso   1.000  C
  C273     1.0000 0.87690  0.38040  0.23150  Biso   1.000  C
  H246     1.0000 0.87780  0.34370  0.24960  Biso   1.000  H
  C274     1.0000 0.88840  0.55370  0.15330  Biso   1.000  C
  H247     1.0000 0.84120  0.56340  0.14140  Biso   1.000  H
  H248     1.0000 0.91840  0.54660  0.13090  Biso   1.000  H
  H249     1.0000 0.90610  0.59080  0.17050  Biso   1.000  H
  C275     1.0000 0.80650  0.43640  0.28180  Biso   1.000  C
  H250     1.0000 0.80990  0.39270  0.29460  Biso   1.000  H
  H251     1.0000 0.75760  0.44730  0.27450  Biso   1.000  H
  H252     1.0000 0.82740  0.46910  0.30140  Biso   1.000  H
  C276     1.0000 0.36900  0.64930  0.24010  Biso   1.000  C
  C277     1.0000 0.37220  0.64040  0.19470  Biso   1.000  C
  H253     1.0000 0.38100  0.59310  0.18850  Biso   1.000  H
  C278     1.0000 0.29990  0.66100  0.17440  Biso   1.000  C
  H254     1.0000 0.26650  0.62560  0.17780  Biso   1.000  H
  H255     1.0000 0.30270  0.66930  0.14480  Biso   1.000  H
  H256     1.0000 0.28480  0.70110  0.18770  Biso   1.000  H
  C279     1.0000 0.49360  0.66260  0.18910  Biso   1.000  C
  C280     1.0000 0.51000  0.61030  0.21520  Biso   1.000  C
  H257     1.0000 0.47350  0.58500  0.22480  Biso   1.000  H
  C281     1.0000 0.58050  0.59260  0.22820  Biso   1.000  C
  C282     1.0000 0.63220  0.63760  0.21260  Biso   1.000  C
  C283     1.0000 0.61560  0.69210  0.18650  Biso   1.000  C
  C284     1.0000 0.54530  0.70250  0.17520  Biso   1.000  C
  H258     1.0000 0.53200  0.73810  0.15720  Biso   1.000  H
  C285     1.0000 0.59880  0.53560  0.25990  Biso   1.000  C
  H259     1.0000 0.64910  0.52900  0.26310  Biso   1.000  H
  H260     1.0000 0.57590  0.49500  0.24960  Biso   1.000  H
  H261     1.0000 0.58260  0.54720  0.28670  Biso   1.000  H
  C286     1.0000 0.67200  0.73350  0.17270  Biso   1.000  C
  H262     1.0000 0.65410  0.76000  0.14880  Biso   1.000  H
  H263     1.0000 0.70970  0.70530  0.16490  Biso   1.000  H
  H264     1.0000 0.68960  0.76260  0.19540  Biso   1.000  H
  C287     1.0000 0.66230  0.93340  0.51730  Biso   1.000  C
  C288     1.0000 0.62900  0.96530  0.47580  Biso   1.000  C
  H265     1.0000 0.59020  0.93750  0.46290  Biso   1.000  H
  C289     1.0000 0.71650  0.92400  0.42690  Biso   1.000  C
  C290     1.0000 0.70770  0.86300  0.44080  Biso   1.000  C
  H266     1.0000 0.67770  0.85420  0.46170  Biso   1.000  H
  C291     1.0000 0.74760  0.80880  0.42200  Biso   1.000  C
  C292     1.0000 0.79100  0.82500  0.39010  Biso   1.000  C
  C293     1.0000 0.79610  0.89090  0.37810  Biso   1.000  C
  C294     1.0000 0.75690  0.93610  0.39670  Biso   1.000  C
  H267     1.0000 0.75870  0.98020  0.38720  Biso   1.000  H
  C295     1.0000 0.74110  0.73390  0.43620  Biso   1.000  C
  H268     1.0000 0.74870  0.70480  0.41290  Biso   1.000  H
  H269     1.0000 0.69460  0.72630  0.44490  Biso   1.000  H
  H270     1.0000 0.77590  0.72480  0.45930  Biso   1.000  H
  C296     1.0000 0.83790  0.91050  0.34100  Biso   1.000  C
  H271     1.0000 0.83120  0.95750  0.33500  Biso   1.000  H
  H272     1.0000 0.82140  0.88470  0.31650  Biso   1.000  H
  H273     1.0000 0.88730  0.90180  0.34820  Biso   1.000  H
  C297     1.0000 0.29040  0.73960  0.43670  Biso   1.000  C
  C298     1.0000 0.27010  0.66770  0.43100  Biso   1.000  C
  H274     1.0000 0.26550  0.65650  0.40080  Biso   1.000  H
  C299     1.0000 0.32500  0.62170  0.45460  Biso   1.000  C
  H275     1.0000 0.37120  0.63210  0.44630  Biso   1.000  H
  H276     1.0000 0.31370  0.57570  0.44780  Biso   1.000  H
  H277     1.0000 0.32450  0.62830  0.48450  Biso   1.000  H
  C300     1.0000 0.14170  0.66430  0.42860  Biso   1.000  C
  C301     1.0000 0.08650  0.63830  0.44290  Biso   1.000  C
  H278     1.0000 0.09160  0.61140  0.46700  Biso   1.000  H
  C302     1.0000 0.02030  0.64970  0.42320  Biso   1.000  C
  C303     1.0000 0.01370  0.69460  0.38920  Biso   1.000  C
  C304     1.0000 0.07330  0.72190  0.37410  Biso   1.000  C
  C305     1.0000 0.13920  0.70560  0.39370  Biso   1.000  C
  H279     1.0000 0.18040  0.72210  0.38380  Biso   1.000  H
  C306     1.0000 0.95610  0.61750  0.44080  Biso   1.000  C
  H280     1.0000 0.92400  0.60150  0.41780  Biso   1.000  H
  H281     1.0000 0.93260  0.65020  0.45670  Biso   1.000  H
  H282     1.0000 0.97130  0.58060  0.45880  Biso   1.000  H
  C307     1.0000 0.06570  0.77140  0.33410  Biso   1.000  C
  H283     1.0000 0.09870  0.80780  0.33870  Biso   1.000  H
  H284     1.0000 0.01830  0.78900  0.33050  Biso   1.000  H
  H285     1.0000 0.07540  0.74720  0.30910  Biso   1.000  H
  C308     1.0000 0.81380  0.55960  0.23070  Biso   1.000  C
  C309     1.0000 0.74640  0.57310  0.21450  Biso   1.000  C
  H286     1.0000 0.72560  0.54780  0.19210  Biso   1.000  H
  C310     1.0000 0.70950  0.62390  0.23120  Biso   1.000  C
  C311     1.0000 0.73730  0.66510  0.26460  Biso   1.000  C
  C312     1.0000 0.69910  0.71340  0.28480  Biso   1.000  C
  H287     1.0000 0.65190  0.72050  0.27510  Biso   1.000  H
  C313     1.0000 0.72730  0.74950  0.31700  Biso   1.000  C
  H288     1.0000 0.70060  0.78290  0.32840  Biso   1.000  H
  C314     1.0000 0.79990  0.73740  0.33470  Biso   1.000  C
  C315     1.0000 0.83070  0.77370  0.37130  Biso   1.000  C
  C316     1.0000 0.89930  0.75870  0.38550  Biso   1.000  C
  H289     1.0000 0.92040  0.78350  0.40810  Biso   1.000  H
  C317     1.0000 0.94110  0.70730  0.36800  Biso   1.000  C
  C318     1.0000 0.91200  0.67370  0.33340  Biso   1.000  C
  C319     1.0000 0.94820  0.62220  0.31440  Biso   1.000  C
  H290     1.0000 0.99450  0.61280  0.32490  Biso   1.000  H
  C320     1.0000 0.91910  0.58560  0.28160  Biso   1.000  C
  H291     1.0000 0.94560  0.55240  0.26980  Biso   1.000  H
  C321     1.0000 0.84640  0.59790  0.26450  Biso   1.000  C
  C322     1.0000 0.80890  0.64670  0.28040  Biso   1.000  C
  C323     1.0000 0.84040  0.68880  0.31640  Biso   1.000  C
  C324     1.0000 0.25640  0.40690  0.13990  Biso   1.000  C
  C325     1.0000 0.29560  0.46010  0.17050  Biso   1.000  C
  H292     1.0000 0.27650  0.50530  0.16550  Biso   1.000  H
  C326     1.0000 0.28520  0.43500  0.21610  Biso   1.000  C
  H293     1.0000 0.23670  0.44100  0.22150  Biso   1.000  H
  H294     1.0000 0.31530  0.46030  0.23630  Biso   1.000  H
  H295     1.0000 0.29740  0.38830  0.21850  Biso   1.000  H
  C327     1.0000 0.39250  0.49430  0.13240  Biso   1.000  C
  C328     1.0000 0.34490  0.51760  0.10070  Biso   1.000  C
  H296     1.0000 0.29660  0.50950  0.10090  Biso   1.000  H
  C329     1.0000 0.37250  0.55490  0.06720  Biso   1.000  C
  C330     1.0000 0.44470  0.56730  0.06810  Biso   1.000  C
  C331     1.0000 0.49180  0.54090  0.10190  Biso   1.000  C
  C332     1.0000 0.46540  0.50320  0.13160  Biso   1.000  C
  H297     1.0000 0.49620  0.48240  0.15200  Biso   1.000  H
  C333     1.0000 0.47390  0.60680  0.03330  Biso   1.000  C
  C334     1.0000 0.56930  0.55610  0.10270  Biso   1.000  C
  H298     1.0000 0.59180  0.54800  0.13060  Biso   1.000  H
  H299     1.0000 0.57560  0.60230  0.09530  Biso   1.000  H
  H300     1.0000 0.59020  0.52770  0.08280  Biso   1.000  H
  C335     1.0000 0.31770  0.58460  0.03180  Biso   1.000  C
  H301     1.0000 0.34270  0.60750  0.01110  Biso   1.000  H
  H302     1.0000 0.28690  0.61560  0.04430  Biso   1.000  H
  H303     1.0000 0.29010  0.54880  0.01840  Biso   1.000  H
  C336     1.0000 0.47300  0.68000  0.03370  Biso   1.000  C
  C337     1.0000 0.47600  0.82140  0.03500  Biso   1.000  C
  C338     1.0000 0.45210  0.78000  0.06820  Biso   1.000  C
  H304     1.0000 0.43630  0.80210  0.09130  Biso   1.000  H
  C339     1.0000 0.45060  0.71470  0.06880  Biso   1.000  C
  H305     1.0000 0.43510  0.69170  0.09170  Biso   1.000  H
  C340     1.0000 0.47710  0.89140  0.03430  Biso   1.000  C
  C341     1.0000 0.45680  0.92620  0.07180  Biso   1.000  C
  C342     1.0000 0.50310  0.93490  0.10770  Biso   1.000  C
  C343     1.0000 0.48510  0.96370  0.14540  Biso   1.000  C
  H306     1.0000 0.51520  0.96030  0.17010  Biso   1.000  H
  C344     1.0000 0.42430  0.99570  0.14480  Biso   1.000  C
  C345     1.0000 0.37590  0.99400  0.10860  Biso   1.000  C
  H307     1.0000 0.33230  0.01500  0.10940  Biso   1.000  H
  C346     1.0000 0.39070  0.96260  0.07220  Biso   1.000  C
  C347     1.0000 0.33860  0.95650  0.03040  Biso   1.000  C
  H308     1.0000 0.29550  0.98010  0.03410  Biso   1.000  H
  H309     1.0000 0.32830  0.91000  0.02470  Biso   1.000  H
  H310     1.0000 0.36060  0.97560  0.00710  Biso   1.000  H
  C348     1.0000 0.57590  0.90220  0.10670  Biso   1.000  C
  H311     1.0000 0.61050  0.92820  0.12360  Biso   1.000  H
  H312     1.0000 0.58830  0.90060  0.07810  Biso   1.000  H
  H313     1.0000 0.57460  0.85750  0.11790  Biso   1.000  H
  C349     1.0000 0.60230  0.03890  0.48420  Biso   1.000  C
  H314     1.0000 0.59750  0.04440  0.51390  Biso   1.000  H
  H315     1.0000 0.55730  0.04610  0.46850  Biso   1.000  H
  H316     1.0000 0.63590  0.07080  0.47550  Biso   1.000  H
  C350     1.0000 0.34920  0.10520  0.22260  Biso   1.000  C
  H317     1.0000 0.36620  0.07560  0.24510  Biso   1.000  H
  H318     1.0000 0.30210  0.11970  0.22680  Biso   1.000  H
  H319     1.0000 0.37980  0.14360  0.22230  Biso   1.000  H
  C351     1.0000 0.28300  0.04000  0.17850  Biso   1.000  C
  C352     1.0000 0.34830  0.06930  0.18140  Biso   1.000  C
  H320     1.0000 0.35060  0.10200  0.15850  Biso   1.000  H
  C353     1.0000 0.00000  0.07210  0.50000  Biso   1.000  C
  H321     1.0000 0.00000  0.02540  0.50000  Biso   1.000  H
  C354     1.0000 0.00000  0.21160  0.50000  Biso   1.000  C
  C355     1.0000 0.00000  0.28350  0.50000  Biso   1.000  C
  C356     1.0000 0.00000  0.42080  0.50000  Biso   1.000  C
  H322     1.0000 0.00000  0.46740  0.50000  Biso   1.000  H
  C357     1.0000 0.50000  0.57210  0.00000  Biso   1.000  C
  H323     1.0000 0.50000  0.52540  0.00000  Biso   1.000  H
  C358     1.0000 0.50000  0.71160  0.00000  Biso   1.000  C
  C359     1.0000 0.50000  0.78350  0.00000  Biso   1.000  C
  C360     1.0000 0.50000  0.92080  0.00000  Biso   1.000  C
  H324     1.0000 0.50000  0.96740  0.00000  Biso   1.000  H
