data_image0
_cell_length_a       19.259
_cell_length_b       19.259
_cell_length_c       61.2256
_cell_angle_alpha    90
_cell_angle_beta     90
_cell_angle_gamma    90

_symmetry_space_group_name_H-M    "P 1"
_symmetry_int_tables_number       1

loop_
  _symmetry_equiv_pos_as_xyz
  'x, y, z'

loop_
  _atom_site_label
  _atom_site_occupancy
  _atom_site_fract_x
  _atom_site_fract_y
  _atom_site_fract_z
  _atom_site_thermal_displace_type
  _atom_site_B_iso_or_equiv
  _atom_site_type_symbol
  O1       1.0000 0.57032  0.44654  0.52481  Biso   1.000  O
  O2       1.0000 0.57110  0.56140  0.52058  Biso   1.000  O
  O3       1.0000 0.92880  0.67867  0.60665  Biso   1.000  O
  C1       1.0000 0.76203  0.54031  0.60621  Biso   1.000  C
  C2       1.0000 0.63632  0.51408  0.54928  Biso   1.000  C
  C3       1.0000 0.71907  0.53055  0.58638  Biso   1.000  C
  C4       1.0000 0.58946  0.50650  0.53008  Biso   1.000  C
  C5       1.0000 0.81398  0.59072  0.60625  Biso   1.000  C
  H1       1.0000 0.82280  0.61690  0.59340  Biso   1.000  H
  C6       1.0000 0.69809  0.58816  0.57440  Biso   1.000  C
  H2       1.0000 0.71200  0.63330  0.57890  Biso   1.000  H
  C7       1.0000 0.65668  0.58033  0.55579  Biso   1.000  C
  H3       1.0000 0.64250  0.61990  0.54770  Biso   1.000  H
  C8       1.0000 0.65769  0.45670  0.56098  Biso   1.000  C
  H4       1.0000 0.64440  0.41150  0.55630  Biso   1.000  H
  C9       1.0000 0.69861  0.46472  0.57953  Biso   1.000  C
  H5       1.0000 0.71270  0.42500  0.58760  Biso   1.000  H
  C10      1.0000 0.55804  0.71429  0.49624  Biso   1.000  C
  H6       1.0000 0.60110  0.69030  0.49610  Biso   1.000  H
  O4       1.0000 0.07032  0.94654  0.02481  Biso   1.000  O
  O5       1.0000 0.07110  0.06140  0.02058  Biso   1.000  O
  O6       1.0000 0.42880  0.17867  0.10665  Biso   1.000  O
  C11      1.0000 0.26203  0.04031  0.10621  Biso   1.000  C
  C12      1.0000 0.13632  0.01408  0.04928  Biso   1.000  C
  C13      1.0000 0.21907  0.03055  0.08638  Biso   1.000  C
  C14      1.0000 0.08946  0.00650  0.03008  Biso   1.000  C
  C15      1.0000 0.31398  0.09072  0.10625  Biso   1.000  C
  H7       1.0000 0.32280  0.11690  0.09340  Biso   1.000  H
  C16      1.0000 0.19809  0.08816  0.07440  Biso   1.000  C
  H8       1.0000 0.21200  0.13330  0.07890  Biso   1.000  H
  C17      1.0000 0.15668  0.08033  0.05579  Biso   1.000  C
  H9       1.0000 0.14250  0.11990  0.04770  Biso   1.000  H
  C18      1.0000 0.15769  0.95670  0.06098  Biso   1.000  C
  H10      1.0000 0.14440  0.91150  0.05630  Biso   1.000  H
  C19      1.0000 0.19861  0.96472  0.07953  Biso   1.000  C
  H11      1.0000 0.21270  0.92500  0.08760  Biso   1.000  H
  C20      1.0000 0.05804  0.21429  0.99624  Biso   1.000  C
  H12      1.0000 0.10110  0.19030  0.99610  Biso   1.000  H
  O7       1.0000 0.92968  0.55346  0.02481  Biso   1.000  O
  O8       1.0000 0.92890  0.43860  0.02058  Biso   1.000  O
  O9       1.0000 0.57120  0.32133  0.10665  Biso   1.000  O
  C21      1.0000 0.73797  0.45969  0.10621  Biso   1.000  C
  C22      1.0000 0.86368  0.48592  0.04928  Biso   1.000  C
  C23      1.0000 0.78093  0.46945  0.08638  Biso   1.000  C
  C24      1.0000 0.91054  0.49350  0.03008  Biso   1.000  C
  C25      1.0000 0.68602  0.40928  0.10625  Biso   1.000  C
  H13      1.0000 0.67720  0.38310  0.09340  Biso   1.000  H
  C26      1.0000 0.80191  0.41184  0.07440  Biso   1.000  C
  H14      1.0000 0.78800  0.36670  0.07890  Biso   1.000  H
  C27      1.0000 0.84332  0.41967  0.05579  Biso   1.000  C
  H15      1.0000 0.85750  0.38010  0.04770  Biso   1.000  H
  C28      1.0000 0.84231  0.54330  0.06098  Biso   1.000  C
  H16      1.0000 0.85560  0.58850  0.05630  Biso   1.000  H
  C29      1.0000 0.80139  0.53528  0.07953  Biso   1.000  C
  H17      1.0000 0.78730  0.57500  0.08760  Biso   1.000  H
  C30      1.0000 0.94196  0.28571  0.99624  Biso   1.000  C
  H18      1.0000 0.89890  0.30970  0.99610  Biso   1.000  H
  O10      1.0000 0.42968  0.05346  0.52481  Biso   1.000  O
  O11      1.0000 0.42890  0.93860  0.52058  Biso   1.000  O
  O12      1.0000 0.07120  0.82133  0.60665  Biso   1.000  O
  C31      1.0000 0.23797  0.95969  0.60621  Biso   1.000  C
  C32      1.0000 0.36368  0.98592  0.54928  Biso   1.000  C
  C33      1.0000 0.28093  0.96945  0.58638  Biso   1.000  C
  C34      1.0000 0.41054  0.99350  0.53008  Biso   1.000  C
  C35      1.0000 0.18602  0.90928  0.60625  Biso   1.000  C
  H19      1.0000 0.17720  0.88310  0.59340  Biso   1.000  H
  C36      1.0000 0.30191  0.91184  0.57440  Biso   1.000  C
  H20      1.0000 0.28800  0.86670  0.57890  Biso   1.000  H
  C37      1.0000 0.34332  0.91967  0.55579  Biso   1.000  C
  H21      1.0000 0.35750  0.88010  0.54770  Biso   1.000  H
  C38      1.0000 0.34231  0.04330  0.56098  Biso   1.000  C
  H22      1.0000 0.35560  0.08850  0.55630  Biso   1.000  H
  C39      1.0000 0.30139  0.03528  0.57953  Biso   1.000  C
  H23      1.0000 0.28730  0.07500  0.58760  Biso   1.000  H
  C40      1.0000 0.44196  0.78571  0.49624  Biso   1.000  C
  H24      1.0000 0.39890  0.80970  0.49610  Biso   1.000  H
  O13      1.0000 0.80346  0.32032  0.77481  Biso   1.000  O
  O14      1.0000 0.68860  0.32110  0.77058  Biso   1.000  O
  O15      1.0000 0.57133  0.67880  0.85665  Biso   1.000  O
  C41      1.0000 0.70969  0.51203  0.85621  Biso   1.000  C
  C42      1.0000 0.73592  0.38632  0.79928  Biso   1.000  C
  C43      1.0000 0.71945  0.46907  0.83638  Biso   1.000  C
  C44      1.0000 0.74350  0.33946  0.78008  Biso   1.000  C
  C45      1.0000 0.65928  0.56398  0.85625  Biso   1.000  C
  H25      1.0000 0.63310  0.57280  0.84340  Biso   1.000  H
  C46      1.0000 0.66184  0.44809  0.82440  Biso   1.000  C
  H26      1.0000 0.61670  0.46200  0.82890  Biso   1.000  H
  C47      1.0000 0.66967  0.40668  0.80579  Biso   1.000  C
  H27      1.0000 0.63010  0.39250  0.79770  Biso   1.000  H
  C48      1.0000 0.79330  0.40769  0.81098  Biso   1.000  C
  H28      1.0000 0.83850  0.39440  0.80630  Biso   1.000  H
  C49      1.0000 0.78528  0.44861  0.82953  Biso   1.000  C
  H29      1.0000 0.82500  0.46270  0.83760  Biso   1.000  H
  C50      1.0000 0.53571  0.30804  0.74624  Biso   1.000  C
  H30      1.0000 0.55970  0.35110  0.74610  Biso   1.000  H
  O16      1.0000 0.30346  0.82032  0.27481  Biso   1.000  O
  O17      1.0000 0.18860  0.82110  0.27058  Biso   1.000  O
  O18      1.0000 0.07133  0.17880  0.35665  Biso   1.000  O
  C51      1.0000 0.20969  0.01203  0.35621  Biso   1.000  C
  C52      1.0000 0.23592  0.88632  0.29928  Biso   1.000  C
  C53      1.0000 0.21945  0.96907  0.33638  Biso   1.000  C
  C54      1.0000 0.24350  0.83946  0.28008  Biso   1.000  C
  C55      1.0000 0.15928  0.06398  0.35625  Biso   1.000  C
  H31      1.0000 0.13310  0.07280  0.34340  Biso   1.000  H
  C56      1.0000 0.16184  0.94809  0.32440  Biso   1.000  C
  H32      1.0000 0.11670  0.96200  0.32890  Biso   1.000  H
  C57      1.0000 0.16967  0.90668  0.30579  Biso   1.000  C
  H33      1.0000 0.13010  0.89250  0.29770  Biso   1.000  H
  C58      1.0000 0.29330  0.90769  0.31098  Biso   1.000  C
  H34      1.0000 0.33850  0.89440  0.30630  Biso   1.000  H
  C59      1.0000 0.28528  0.94861  0.32953  Biso   1.000  C
  H35      1.0000 0.32500  0.96270  0.33760  Biso   1.000  H
  C60      1.0000 0.03571  0.80804  0.24624  Biso   1.000  C
  H36      1.0000 0.05970  0.85110  0.24610  Biso   1.000  H
  O19      1.0000 0.69654  0.67968  0.27481  Biso   1.000  O
  O20      1.0000 0.81140  0.67890  0.27058  Biso   1.000  O
  O21      1.0000 0.92867  0.32120  0.35665  Biso   1.000  O
  C61      1.0000 0.79031  0.48797  0.35621  Biso   1.000  C
  C62      1.0000 0.76408  0.61368  0.29928  Biso   1.000  C
  C63      1.0000 0.78055  0.53093  0.33638  Biso   1.000  C
  C64      1.0000 0.75650  0.66054  0.28008  Biso   1.000  C
  C65      1.0000 0.84072  0.43602  0.35625  Biso   1.000  C
  H37      1.0000 0.86690  0.42720  0.34340  Biso   1.000  H
  C66      1.0000 0.83816  0.55191  0.32440  Biso   1.000  C
  H38      1.0000 0.88330  0.53800  0.32890  Biso   1.000  H
  C67      1.0000 0.83033  0.59332  0.30579  Biso   1.000  C
  H39      1.0000 0.86990  0.60750  0.29770  Biso   1.000  H
  C68      1.0000 0.70670  0.59231  0.31098  Biso   1.000  C
  H40      1.0000 0.66150  0.60560  0.30630  Biso   1.000  H
  C69      1.0000 0.71472  0.55139  0.32953  Biso   1.000  C
  H41      1.0000 0.67500  0.53730  0.33760  Biso   1.000  H
  C70      1.0000 0.96429  0.69196  0.24624  Biso   1.000  C
  H42      1.0000 0.94030  0.64890  0.24610  Biso   1.000  H
  O22      1.0000 0.19654  0.17968  0.77481  Biso   1.000  O
  O23      1.0000 0.31140  0.17890  0.77058  Biso   1.000  O
  O24      1.0000 0.42867  0.82120  0.85665  Biso   1.000  O
  C71      1.0000 0.29031  0.98797  0.85621  Biso   1.000  C
  C72      1.0000 0.26408  0.11368  0.79928  Biso   1.000  C
  C73      1.0000 0.28055  0.03093  0.83638  Biso   1.000  C
  C74      1.0000 0.25650  0.16054  0.78008  Biso   1.000  C
  C75      1.0000 0.34072  0.93602  0.85625  Biso   1.000  C
  H43      1.0000 0.36690  0.92720  0.84340  Biso   1.000  H
  C76      1.0000 0.33816  0.05191  0.82440  Biso   1.000  C
  H44      1.0000 0.38330  0.03800  0.82890  Biso   1.000  H
  C77      1.0000 0.33033  0.09332  0.80579  Biso   1.000  C
  H45      1.0000 0.36990  0.10750  0.79770  Biso   1.000  H
  C78      1.0000 0.20670  0.09231  0.81098  Biso   1.000  C
  H46      1.0000 0.16150  0.10560  0.80630  Biso   1.000  H
  C79      1.0000 0.21472  0.05139  0.82953  Biso   1.000  C
  H47      1.0000 0.17500  0.03730  0.83760  Biso   1.000  H
  C80      1.0000 0.46429  0.19196  0.74624  Biso   1.000  C
  H48      1.0000 0.44030  0.14890  0.74610  Biso   1.000  H
  O25      1.0000 0.92968  0.44654  0.97519  Biso   1.000  O
  O26      1.0000 0.92890  0.56140  0.97942  Biso   1.000  O
  O27      1.0000 0.57120  0.67867  0.89335  Biso   1.000  O
  C81      1.0000 0.73797  0.54031  0.89379  Biso   1.000  C
  C82      1.0000 0.86368  0.51408  0.95072  Biso   1.000  C
  C83      1.0000 0.78093  0.53055  0.91362  Biso   1.000  C
  C84      1.0000 0.91054  0.50650  0.96992  Biso   1.000  C
  C85      1.0000 0.68602  0.59072  0.89375  Biso   1.000  C
  H49      1.0000 0.67720  0.61690  0.90660  Biso   1.000  H
  C86      1.0000 0.80191  0.58816  0.92560  Biso   1.000  C
  H50      1.0000 0.78800  0.63330  0.92110  Biso   1.000  H
  C87      1.0000 0.84332  0.58033  0.94421  Biso   1.000  C
  H51      1.0000 0.85750  0.61990  0.95230  Biso   1.000  H
  C88      1.0000 0.84231  0.45670  0.93902  Biso   1.000  C
  H52      1.0000 0.85560  0.41150  0.94370  Biso   1.000  H
  C89      1.0000 0.80139  0.46472  0.92047  Biso   1.000  C
  H53      1.0000 0.78730  0.42500  0.91240  Biso   1.000  H
  C90      1.0000 0.94196  0.71429  0.00376  Biso   1.000  C
  H54      1.0000 0.89890  0.69030  0.00390  Biso   1.000  H
  O28      1.0000 0.42968  0.94654  0.47519  Biso   1.000  O
  O29      1.0000 0.42890  0.06140  0.47942  Biso   1.000  O
  O30      1.0000 0.07120  0.17867  0.39335  Biso   1.000  O
  C91      1.0000 0.23797  0.04031  0.39379  Biso   1.000  C
  C92      1.0000 0.36368  0.01408  0.45072  Biso   1.000  C
  C93      1.0000 0.28093  0.03055  0.41362  Biso   1.000  C
  C94      1.0000 0.41054  0.00650  0.46992  Biso   1.000  C
  C95      1.0000 0.18602  0.09072  0.39375  Biso   1.000  C
  H55      1.0000 0.17720  0.11690  0.40660  Biso   1.000  H
  C96      1.0000 0.30191  0.08816  0.42560  Biso   1.000  C
  H56      1.0000 0.28800  0.13330  0.42110  Biso   1.000  H
  C97      1.0000 0.34332  0.08033  0.44421  Biso   1.000  C
  H57      1.0000 0.35750  0.11990  0.45230  Biso   1.000  H
  C98      1.0000 0.34231  0.95670  0.43902  Biso   1.000  C
  H58      1.0000 0.35560  0.91150  0.44370  Biso   1.000  H
  C99      1.0000 0.30139  0.96472  0.42047  Biso   1.000  C
  H59      1.0000 0.28730  0.92500  0.41240  Biso   1.000  H
  C100     1.0000 0.44196  0.21429  0.50376  Biso   1.000  C
  H60      1.0000 0.39890  0.19030  0.50390  Biso   1.000  H
  O31      1.0000 0.57032  0.55346  0.47519  Biso   1.000  O
  O32      1.0000 0.57110  0.43860  0.47942  Biso   1.000  O
  O33      1.0000 0.92880  0.32133  0.39335  Biso   1.000  O
  C101     1.0000 0.76203  0.45969  0.39379  Biso   1.000  C
  C102     1.0000 0.63632  0.48592  0.45072  Biso   1.000  C
  C103     1.0000 0.71907  0.46945  0.41362  Biso   1.000  C
  C104     1.0000 0.58946  0.49350  0.46992  Biso   1.000  C
  C105     1.0000 0.81398  0.40928  0.39375  Biso   1.000  C
  H61      1.0000 0.82280  0.38310  0.40660  Biso   1.000  H
  C106     1.0000 0.69809  0.41184  0.42560  Biso   1.000  C
  H62      1.0000 0.71200  0.36670  0.42110  Biso   1.000  H
  C107     1.0000 0.65668  0.41967  0.44421  Biso   1.000  C
  H63      1.0000 0.64250  0.38010  0.45230  Biso   1.000  H
  C108     1.0000 0.65769  0.54330  0.43902  Biso   1.000  C
  H64      1.0000 0.64440  0.58850  0.44370  Biso   1.000  H
  C109     1.0000 0.69861  0.53528  0.42047  Biso   1.000  C
  H65      1.0000 0.71270  0.57500  0.41240  Biso   1.000  H
  C110     1.0000 0.55804  0.28571  0.50376  Biso   1.000  C
  H66      1.0000 0.60110  0.30970  0.50390  Biso   1.000  H
  O34      1.0000 0.07032  0.05346  0.97519  Biso   1.000  O
  O35      1.0000 0.07110  0.93860  0.97942  Biso   1.000  O
  O36      1.0000 0.42880  0.82133  0.89335  Biso   1.000  O
  C111     1.0000 0.26203  0.95969  0.89379  Biso   1.000  C
  C112     1.0000 0.13632  0.98592  0.95072  Biso   1.000  C
  C113     1.0000 0.21907  0.96945  0.91362  Biso   1.000  C
  C114     1.0000 0.08946  0.99350  0.96992  Biso   1.000  C
  C115     1.0000 0.31398  0.90928  0.89375  Biso   1.000  C
  H67      1.0000 0.32280  0.88310  0.90660  Biso   1.000  H
  C116     1.0000 0.19809  0.91184  0.92560  Biso   1.000  C
  H68      1.0000 0.21200  0.86670  0.92110  Biso   1.000  H
  C117     1.0000 0.15668  0.91967  0.94421  Biso   1.000  C
  H69      1.0000 0.14250  0.88010  0.95230  Biso   1.000  H
  C118     1.0000 0.15769  0.04330  0.93902  Biso   1.000  C
  H70      1.0000 0.14440  0.08850  0.94370  Biso   1.000  H
  C119     1.0000 0.19861  0.03528  0.92047  Biso   1.000  C
  H71      1.0000 0.21270  0.07500  0.91240  Biso   1.000  H
  C120     1.0000 0.05804  0.78571  0.00376  Biso   1.000  C
  H72      1.0000 0.10110  0.80970  0.00390  Biso   1.000  H
  O37      1.0000 0.69654  0.32032  0.72519  Biso   1.000  O
  O38      1.0000 0.81140  0.32110  0.72942  Biso   1.000  O
  O39      1.0000 0.92867  0.67880  0.64335  Biso   1.000  O
  C121     1.0000 0.79031  0.51203  0.64379  Biso   1.000  C
  C122     1.0000 0.76408  0.38632  0.70072  Biso   1.000  C
  C123     1.0000 0.78055  0.46907  0.66362  Biso   1.000  C
  C124     1.0000 0.75650  0.33946  0.71992  Biso   1.000  C
  C125     1.0000 0.84072  0.56398  0.64375  Biso   1.000  C
  H73      1.0000 0.86690  0.57280  0.65660  Biso   1.000  H
  C126     1.0000 0.83816  0.44809  0.67560  Biso   1.000  C
  H74      1.0000 0.88330  0.46200  0.67110  Biso   1.000  H
  C127     1.0000 0.83033  0.40668  0.69421  Biso   1.000  C
  H75      1.0000 0.86990  0.39250  0.70230  Biso   1.000  H
  C128     1.0000 0.70670  0.40769  0.68902  Biso   1.000  C
  H76      1.0000 0.66150  0.39440  0.69370  Biso   1.000  H
  C129     1.0000 0.71472  0.44861  0.67047  Biso   1.000  C
  H77      1.0000 0.67500  0.46270  0.66240  Biso   1.000  H
  C130     1.0000 0.96429  0.30804  0.75376  Biso   1.000  C
  H78      1.0000 0.94030  0.35110  0.75390  Biso   1.000  H
  O40      1.0000 0.19654  0.82032  0.22519  Biso   1.000  O
  O41      1.0000 0.31140  0.82110  0.22942  Biso   1.000  O
  O42      1.0000 0.42867  0.17880  0.14335  Biso   1.000  O
  C131     1.0000 0.29031  0.01203  0.14379  Biso   1.000  C
  C132     1.0000 0.26408  0.88632  0.20072  Biso   1.000  C
  C133     1.0000 0.28055  0.96907  0.16362  Biso   1.000  C
  C134     1.0000 0.25650  0.83946  0.21992  Biso   1.000  C
  C135     1.0000 0.34072  0.06398  0.14375  Biso   1.000  C
  H79      1.0000 0.36690  0.07280  0.15660  Biso   1.000  H
  C136     1.0000 0.33816  0.94809  0.17560  Biso   1.000  C
  H80      1.0000 0.38330  0.96200  0.17110  Biso   1.000  H
  C137     1.0000 0.33033  0.90668  0.19421  Biso   1.000  C
  H81      1.0000 0.36990  0.89250  0.20230  Biso   1.000  H
  C138     1.0000 0.20670  0.90769  0.18902  Biso   1.000  C
  H82      1.0000 0.16150  0.89440  0.19370  Biso   1.000  H
  C139     1.0000 0.21472  0.94861  0.17047  Biso   1.000  C
  H83      1.0000 0.17500  0.96270  0.16240  Biso   1.000  H
  C140     1.0000 0.46429  0.80804  0.25376  Biso   1.000  C
  H84      1.0000 0.44030  0.85110  0.25390  Biso   1.000  H
  O43      1.0000 0.80346  0.67968  0.22519  Biso   1.000  O
  O44      1.0000 0.68860  0.67890  0.22942  Biso   1.000  O
  O45      1.0000 0.57133  0.32120  0.14335  Biso   1.000  O
  C141     1.0000 0.70969  0.48797  0.14379  Biso   1.000  C
  C142     1.0000 0.73592  0.61368  0.20072  Biso   1.000  C
  C143     1.0000 0.71945  0.53093  0.16362  Biso   1.000  C
  C144     1.0000 0.74350  0.66054  0.21992  Biso   1.000  C
  C145     1.0000 0.65928  0.43602  0.14375  Biso   1.000  C
  H85      1.0000 0.63310  0.42720  0.15660  Biso   1.000  H
  C146     1.0000 0.66184  0.55191  0.17560  Biso   1.000  C
  H86      1.0000 0.61670  0.53800  0.17110  Biso   1.000  H
  C147     1.0000 0.66967  0.59332  0.19421  Biso   1.000  C
  H87      1.0000 0.63010  0.60750  0.20230  Biso   1.000  H
  C148     1.0000 0.79330  0.59231  0.18902  Biso   1.000  C
  H88      1.0000 0.83850  0.60560  0.19370  Biso   1.000  H
  C149     1.0000 0.78528  0.55139  0.17047  Biso   1.000  C
  H89      1.0000 0.82500  0.53730  0.16240  Biso   1.000  H
  C150     1.0000 0.53571  0.69196  0.25376  Biso   1.000  C
  H90      1.0000 0.55970  0.64890  0.25390  Biso   1.000  H
  O46      1.0000 0.30346  0.17968  0.72519  Biso   1.000  O
  O47      1.0000 0.18860  0.17890  0.72942  Biso   1.000  O
  O48      1.0000 0.07133  0.82120  0.64335  Biso   1.000  O
  C151     1.0000 0.20969  0.98797  0.64379  Biso   1.000  C
  C152     1.0000 0.23592  0.11368  0.70072  Biso   1.000  C
  C153     1.0000 0.21945  0.03093  0.66362  Biso   1.000  C
  C154     1.0000 0.24350  0.16054  0.71992  Biso   1.000  C
  C155     1.0000 0.15928  0.93602  0.64375  Biso   1.000  C
  H91      1.0000 0.13310  0.92720  0.65660  Biso   1.000  H
  C156     1.0000 0.16184  0.05191  0.67560  Biso   1.000  C
  H92      1.0000 0.11670  0.03800  0.67110  Biso   1.000  H
  C157     1.0000 0.16967  0.09332  0.69421  Biso   1.000  C
  H93      1.0000 0.13010  0.10750  0.70230  Biso   1.000  H
  C158     1.0000 0.29330  0.09231  0.68902  Biso   1.000  C
  H94      1.0000 0.33850  0.10560  0.69370  Biso   1.000  H
  C159     1.0000 0.28528  0.05139  0.67047  Biso   1.000  C
  H95      1.0000 0.32500  0.03730  0.66240  Biso   1.000  H
  C160     1.0000 0.03571  0.19196  0.75376  Biso   1.000  C
  H96      1.0000 0.05970  0.14890  0.75390  Biso   1.000  H
  O49      1.0000 0.42968  0.55346  0.47519  Biso   1.000  O
  O50      1.0000 0.42890  0.43860  0.47942  Biso   1.000  O
  O51      1.0000 0.07120  0.32133  0.39335  Biso   1.000  O
  C161     1.0000 0.23797  0.45969  0.39379  Biso   1.000  C
  C162     1.0000 0.36368  0.48592  0.45072  Biso   1.000  C
  C163     1.0000 0.28093  0.46945  0.41362  Biso   1.000  C
  C164     1.0000 0.41054  0.49350  0.46992  Biso   1.000  C
  C165     1.0000 0.18602  0.40928  0.39375  Biso   1.000  C
  H97      1.0000 0.17720  0.38310  0.40660  Biso   1.000  H
  C166     1.0000 0.30191  0.41184  0.42560  Biso   1.000  C
  H98      1.0000 0.28800  0.36670  0.42110  Biso   1.000  H
  C167     1.0000 0.34332  0.41967  0.44421  Biso   1.000  C
  H99      1.0000 0.35750  0.38010  0.45230  Biso   1.000  H
  C168     1.0000 0.34231  0.54330  0.43902  Biso   1.000  C
  H100     1.0000 0.35560  0.58850  0.44370  Biso   1.000  H
  C169     1.0000 0.30139  0.53528  0.42047  Biso   1.000  C
  H101     1.0000 0.28730  0.57500  0.41240  Biso   1.000  H
  C170     1.0000 0.44196  0.28571  0.50376  Biso   1.000  C
  H102     1.0000 0.39890  0.30970  0.50390  Biso   1.000  H
  O52      1.0000 0.92968  0.05346  0.97519  Biso   1.000  O
  O53      1.0000 0.92890  0.93860  0.97942  Biso   1.000  O
  O54      1.0000 0.57120  0.82133  0.89335  Biso   1.000  O
  C171     1.0000 0.73797  0.95969  0.89379  Biso   1.000  C
  C172     1.0000 0.86368  0.98592  0.95072  Biso   1.000  C
  C173     1.0000 0.78093  0.96945  0.91362  Biso   1.000  C
  C174     1.0000 0.91054  0.99350  0.96992  Biso   1.000  C
  C175     1.0000 0.68602  0.90928  0.89375  Biso   1.000  C
  H103     1.0000 0.67720  0.88310  0.90660  Biso   1.000  H
  C176     1.0000 0.80191  0.91184  0.92560  Biso   1.000  C
  H104     1.0000 0.78800  0.86670  0.92110  Biso   1.000  H
  C177     1.0000 0.84332  0.91967  0.94421  Biso   1.000  C
  H105     1.0000 0.85750  0.88010  0.95230  Biso   1.000  H
  C178     1.0000 0.84231  0.04330  0.93902  Biso   1.000  C
  H106     1.0000 0.85560  0.08850  0.94370  Biso   1.000  H
  C179     1.0000 0.80139  0.03528  0.92047  Biso   1.000  C
  H107     1.0000 0.78730  0.07500  0.91240  Biso   1.000  H
  C180     1.0000 0.94196  0.78571  0.00376  Biso   1.000  C
  H108     1.0000 0.89890  0.80970  0.00390  Biso   1.000  H
  O55      1.0000 0.07032  0.44654  0.97519  Biso   1.000  O
  O56      1.0000 0.07110  0.56140  0.97942  Biso   1.000  O
  O57      1.0000 0.42880  0.67867  0.89335  Biso   1.000  O
  C181     1.0000 0.26203  0.54031  0.89379  Biso   1.000  C
  C182     1.0000 0.13632  0.51408  0.95072  Biso   1.000  C
  C183     1.0000 0.21907  0.53055  0.91362  Biso   1.000  C
  C184     1.0000 0.08946  0.50650  0.96992  Biso   1.000  C
  C185     1.0000 0.31398  0.59072  0.89375  Biso   1.000  C
  H109     1.0000 0.32280  0.61690  0.90660  Biso   1.000  H
  C186     1.0000 0.19809  0.58816  0.92560  Biso   1.000  C
  H110     1.0000 0.21200  0.63330  0.92110  Biso   1.000  H
  C187     1.0000 0.15668  0.58033  0.94421  Biso   1.000  C
  H111     1.0000 0.14250  0.61990  0.95230  Biso   1.000  H
  C188     1.0000 0.15769  0.45670  0.93902  Biso   1.000  C
  H112     1.0000 0.14440  0.41150  0.94370  Biso   1.000  H
  C189     1.0000 0.19861  0.46472  0.92047  Biso   1.000  C
  H113     1.0000 0.21270  0.42500  0.91240  Biso   1.000  H
  C190     1.0000 0.05804  0.71429  0.00376  Biso   1.000  C
  H114     1.0000 0.10110  0.69030  0.00390  Biso   1.000  H
  O58      1.0000 0.57032  0.94654  0.47519  Biso   1.000  O
  O59      1.0000 0.57110  0.06140  0.47942  Biso   1.000  O
  O60      1.0000 0.92880  0.17867  0.39335  Biso   1.000  O
  C191     1.0000 0.76203  0.04031  0.39379  Biso   1.000  C
  C192     1.0000 0.63632  0.01408  0.45072  Biso   1.000  C
  C193     1.0000 0.71907  0.03055  0.41362  Biso   1.000  C
  C194     1.0000 0.58946  0.00650  0.46992  Biso   1.000  C
  C195     1.0000 0.81398  0.09072  0.39375  Biso   1.000  C
  H115     1.0000 0.82280  0.11690  0.40660  Biso   1.000  H
  C196     1.0000 0.69809  0.08816  0.42560  Biso   1.000  C
  H116     1.0000 0.71200  0.13330  0.42110  Biso   1.000  H
  C197     1.0000 0.65668  0.08033  0.44421  Biso   1.000  C
  H117     1.0000 0.64250  0.11990  0.45230  Biso   1.000  H
  C198     1.0000 0.65769  0.95670  0.43902  Biso   1.000  C
  H118     1.0000 0.64440  0.91150  0.44370  Biso   1.000  H
  C199     1.0000 0.69861  0.96472  0.42047  Biso   1.000  C
  H119     1.0000 0.71270  0.92500  0.41240  Biso   1.000  H
  C200     1.0000 0.55804  0.21429  0.50376  Biso   1.000  C
  H120     1.0000 0.60110  0.19030  0.50390  Biso   1.000  H
  O61      1.0000 0.19654  0.67968  0.22519  Biso   1.000  O
  O62      1.0000 0.31140  0.67890  0.22942  Biso   1.000  O
  O63      1.0000 0.42867  0.32120  0.14335  Biso   1.000  O
  C201     1.0000 0.29031  0.48797  0.14379  Biso   1.000  C
  C202     1.0000 0.26408  0.61368  0.20072  Biso   1.000  C
  C203     1.0000 0.28055  0.53093  0.16362  Biso   1.000  C
  C204     1.0000 0.25650  0.66054  0.21992  Biso   1.000  C
  C205     1.0000 0.34072  0.43602  0.14375  Biso   1.000  C
  H121     1.0000 0.36690  0.42720  0.15660  Biso   1.000  H
  C206     1.0000 0.33816  0.55191  0.17560  Biso   1.000  C
  H122     1.0000 0.38330  0.53800  0.17110  Biso   1.000  H
  C207     1.0000 0.33033  0.59332  0.19421  Biso   1.000  C
  H123     1.0000 0.36990  0.60750  0.20230  Biso   1.000  H
  C208     1.0000 0.20670  0.59231  0.18902  Biso   1.000  C
  H124     1.0000 0.16150  0.60560  0.19370  Biso   1.000  H
  C209     1.0000 0.21472  0.55139  0.17047  Biso   1.000  C
  H125     1.0000 0.17500  0.53730  0.16240  Biso   1.000  H
  C210     1.0000 0.46429  0.69196  0.25376  Biso   1.000  C
  H126     1.0000 0.44030  0.64890  0.25390  Biso   1.000  H
  O64      1.0000 0.69654  0.17968  0.72519  Biso   1.000  O
  O65      1.0000 0.81140  0.17890  0.72942  Biso   1.000  O
  O66      1.0000 0.92867  0.82120  0.64335  Biso   1.000  O
  C211     1.0000 0.79031  0.98797  0.64379  Biso   1.000  C
  C212     1.0000 0.76408  0.11368  0.70072  Biso   1.000  C
  C213     1.0000 0.78055  0.03093  0.66362  Biso   1.000  C
  C214     1.0000 0.75650  0.16054  0.71992  Biso   1.000  C
  C215     1.0000 0.84072  0.93602  0.64375  Biso   1.000  C
  H127     1.0000 0.86690  0.92720  0.65660  Biso   1.000  H
  C216     1.0000 0.83816  0.05191  0.67560  Biso   1.000  C
  H128     1.0000 0.88330  0.03800  0.67110  Biso   1.000  H
  C217     1.0000 0.83033  0.09332  0.69421  Biso   1.000  C
  H129     1.0000 0.86990  0.10750  0.70230  Biso   1.000  H
  C218     1.0000 0.70670  0.09231  0.68902  Biso   1.000  C
  H130     1.0000 0.66150  0.10560  0.69370  Biso   1.000  H
  C219     1.0000 0.71472  0.05139  0.67047  Biso   1.000  C
  H131     1.0000 0.67500  0.03730  0.66240  Biso   1.000  H
  C220     1.0000 0.96429  0.19196  0.75376  Biso   1.000  C
  H132     1.0000 0.94030  0.14890  0.75390  Biso   1.000  H
  O67      1.0000 0.30346  0.32032  0.72519  Biso   1.000  O
  O68      1.0000 0.18860  0.32110  0.72942  Biso   1.000  O
  O69      1.0000 0.07133  0.67880  0.64335  Biso   1.000  O
  C221     1.0000 0.20969  0.51203  0.64379  Biso   1.000  C
  C222     1.0000 0.23592  0.38632  0.70072  Biso   1.000  C
  C223     1.0000 0.21945  0.46907  0.66362  Biso   1.000  C
  C224     1.0000 0.24350  0.33946  0.71992  Biso   1.000  C
  C225     1.0000 0.15928  0.56398  0.64375  Biso   1.000  C
  H133     1.0000 0.13310  0.57280  0.65660  Biso   1.000  H
  C226     1.0000 0.16184  0.44809  0.67560  Biso   1.000  C
  H134     1.0000 0.11670  0.46200  0.67110  Biso   1.000  H
  C227     1.0000 0.16967  0.40668  0.69421  Biso   1.000  C
  H135     1.0000 0.13010  0.39250  0.70230  Biso   1.000  H
  C228     1.0000 0.29330  0.40769  0.68902  Biso   1.000  C
  H136     1.0000 0.33850  0.39440  0.69370  Biso   1.000  H
  C229     1.0000 0.28528  0.44861  0.67047  Biso   1.000  C
  H137     1.0000 0.32500  0.46270  0.66240  Biso   1.000  H
  C230     1.0000 0.03571  0.30804  0.75376  Biso   1.000  C
  H138     1.0000 0.05970  0.35110  0.75390  Biso   1.000  H
  O70      1.0000 0.80346  0.82032  0.22519  Biso   1.000  O
  O71      1.0000 0.68860  0.82110  0.22942  Biso   1.000  O
  O72      1.0000 0.57133  0.17880  0.14335  Biso   1.000  O
  C231     1.0000 0.70969  0.01203  0.14379  Biso   1.000  C
  C232     1.0000 0.73592  0.88632  0.20072  Biso   1.000  C
  C233     1.0000 0.71945  0.96907  0.16362  Biso   1.000  C
  C234     1.0000 0.74350  0.83946  0.21992  Biso   1.000  C
  C235     1.0000 0.65928  0.06398  0.14375  Biso   1.000  C
  H139     1.0000 0.63310  0.07280  0.15660  Biso   1.000  H
  C236     1.0000 0.66184  0.94809  0.17560  Biso   1.000  C
  H140     1.0000 0.61670  0.96200  0.17110  Biso   1.000  H
  C237     1.0000 0.66967  0.90668  0.19421  Biso   1.000  C
  H141     1.0000 0.63010  0.89250  0.20230  Biso   1.000  H
  C238     1.0000 0.79330  0.90769  0.18902  Biso   1.000  C
  H142     1.0000 0.83850  0.89440  0.19370  Biso   1.000  H
  C239     1.0000 0.78528  0.94861  0.17047  Biso   1.000  C
  H143     1.0000 0.82500  0.96270  0.16240  Biso   1.000  H
  C240     1.0000 0.53571  0.80804  0.25376  Biso   1.000  C
  H144     1.0000 0.55970  0.85110  0.25390  Biso   1.000  H
  O73      1.0000 0.07032  0.55346  0.02481  Biso   1.000  O
  O74      1.0000 0.07110  0.43860  0.02058  Biso   1.000  O
  O75      1.0000 0.42880  0.32133  0.10665  Biso   1.000  O
  C241     1.0000 0.26203  0.45969  0.10621  Biso   1.000  C
  C242     1.0000 0.13632  0.48592  0.04928  Biso   1.000  C
  C243     1.0000 0.21907  0.46945  0.08638  Biso   1.000  C
  C244     1.0000 0.08946  0.49350  0.03008  Biso   1.000  C
  C245     1.0000 0.31398  0.40928  0.10625  Biso   1.000  C
  H145     1.0000 0.32280  0.38310  0.09340  Biso   1.000  H
  C246     1.0000 0.19809  0.41184  0.07440  Biso   1.000  C
  H146     1.0000 0.21200  0.36670  0.07890  Biso   1.000  H
  C247     1.0000 0.15668  0.41967  0.05579  Biso   1.000  C
  H147     1.0000 0.14250  0.38010  0.04770  Biso   1.000  H
  C248     1.0000 0.15769  0.54330  0.06098  Biso   1.000  C
  H148     1.0000 0.14440  0.58850  0.05630  Biso   1.000  H
  C249     1.0000 0.19861  0.53528  0.07953  Biso   1.000  C
  H149     1.0000 0.21270  0.57500  0.08760  Biso   1.000  H
  C250     1.0000 0.05804  0.28571  0.99624  Biso   1.000  C
  H150     1.0000 0.10110  0.30970  0.99610  Biso   1.000  H
  O76      1.0000 0.57032  0.05346  0.52481  Biso   1.000  O
  O77      1.0000 0.57110  0.93860  0.52058  Biso   1.000  O
  O78      1.0000 0.92880  0.82133  0.60665  Biso   1.000  O
  C251     1.0000 0.76203  0.95969  0.60621  Biso   1.000  C
  C252     1.0000 0.63632  0.98592  0.54928  Biso   1.000  C
  C253     1.0000 0.71907  0.96945  0.58638  Biso   1.000  C
  C254     1.0000 0.58946  0.99350  0.53008  Biso   1.000  C
  C255     1.0000 0.81398  0.90928  0.60625  Biso   1.000  C
  H151     1.0000 0.82280  0.88310  0.59340  Biso   1.000  H
  C256     1.0000 0.69809  0.91184  0.57440  Biso   1.000  C
  H152     1.0000 0.71200  0.86670  0.57890  Biso   1.000  H
  C257     1.0000 0.65668  0.91967  0.55579  Biso   1.000  C
  H153     1.0000 0.64250  0.88010  0.54770  Biso   1.000  H
  C258     1.0000 0.65769  0.04330  0.56098  Biso   1.000  C
  H154     1.0000 0.64440  0.08850  0.55630  Biso   1.000  H
  C259     1.0000 0.69861  0.03528  0.57953  Biso   1.000  C
  H155     1.0000 0.71270  0.07500  0.58760  Biso   1.000  H
  C260     1.0000 0.55804  0.78571  0.49624  Biso   1.000  C
  H156     1.0000 0.60110  0.80970  0.49610  Biso   1.000  H
  O79      1.0000 0.42968  0.44654  0.52481  Biso   1.000  O
  O80      1.0000 0.42890  0.56140  0.52058  Biso   1.000  O
  O81      1.0000 0.07120  0.67867  0.60665  Biso   1.000  O
  C261     1.0000 0.23797  0.54031  0.60621  Biso   1.000  C
  C262     1.0000 0.36368  0.51408  0.54928  Biso   1.000  C
  C263     1.0000 0.28093  0.53055  0.58638  Biso   1.000  C
  C264     1.0000 0.41054  0.50650  0.53008  Biso   1.000  C
  C265     1.0000 0.18602  0.59072  0.60625  Biso   1.000  C
  H157     1.0000 0.17720  0.61690  0.59340  Biso   1.000  H
  C266     1.0000 0.30191  0.58816  0.57440  Biso   1.000  C
  H158     1.0000 0.28800  0.63330  0.57890  Biso   1.000  H
  C267     1.0000 0.34332  0.58033  0.55579  Biso   1.000  C
  H159     1.0000 0.35750  0.61990  0.54770  Biso   1.000  H
  C268     1.0000 0.34231  0.45670  0.56098  Biso   1.000  C
  H160     1.0000 0.35560  0.41150  0.55630  Biso   1.000  H
  C269     1.0000 0.30139  0.46472  0.57953  Biso   1.000  C
  H161     1.0000 0.28730  0.42500  0.58760  Biso   1.000  H
  C270     1.0000 0.44196  0.71429  0.49624  Biso   1.000  C
  H162     1.0000 0.39890  0.69030  0.49610  Biso   1.000  H
  O82      1.0000 0.92968  0.94654  0.02481  Biso   1.000  O
  O83      1.0000 0.92890  0.06140  0.02058  Biso   1.000  O
  O84      1.0000 0.57120  0.17867  0.10665  Biso   1.000  O
  C271     1.0000 0.73797  0.04031  0.10621  Biso   1.000  C
  C272     1.0000 0.86368  0.01408  0.04928  Biso   1.000  C
  C273     1.0000 0.78093  0.03055  0.08638  Biso   1.000  C
  C274     1.0000 0.91054  0.00650  0.03008  Biso   1.000  C
  C275     1.0000 0.68602  0.09072  0.10625  Biso   1.000  C
  H163     1.0000 0.67720  0.11690  0.09340  Biso   1.000  H
  C276     1.0000 0.80191  0.08816  0.07440  Biso   1.000  C
  H164     1.0000 0.78800  0.13330  0.07890  Biso   1.000  H
  C277     1.0000 0.84332  0.08033  0.05579  Biso   1.000  C
  H165     1.0000 0.85750  0.11990  0.04770  Biso   1.000  H
  C278     1.0000 0.84231  0.95670  0.06098  Biso   1.000  C
  H166     1.0000 0.85560  0.91150  0.05630  Biso   1.000  H
  C279     1.0000 0.80139  0.96472  0.07953  Biso   1.000  C
  H167     1.0000 0.78730  0.92500  0.08760  Biso   1.000  H
  C280     1.0000 0.94196  0.21429  0.99624  Biso   1.000  C
  H168     1.0000 0.89890  0.19030  0.99610  Biso   1.000  H
  O85      1.0000 0.30346  0.67968  0.27481  Biso   1.000  O
  O86      1.0000 0.18860  0.67890  0.27058  Biso   1.000  O
  O87      1.0000 0.07133  0.32120  0.35665  Biso   1.000  O
  C281     1.0000 0.20969  0.48797  0.35621  Biso   1.000  C
  C282     1.0000 0.23592  0.61368  0.29928  Biso   1.000  C
  C283     1.0000 0.21945  0.53093  0.33638  Biso   1.000  C
  C284     1.0000 0.24350  0.66054  0.28008  Biso   1.000  C
  C285     1.0000 0.15928  0.43602  0.35625  Biso   1.000  C
  H169     1.0000 0.13310  0.42720  0.34340  Biso   1.000  H
  C286     1.0000 0.16184  0.55191  0.32440  Biso   1.000  C
  H170     1.0000 0.11670  0.53800  0.32890  Biso   1.000  H
  C287     1.0000 0.16967  0.59332  0.30579  Biso   1.000  C
  H171     1.0000 0.13010  0.60750  0.29770  Biso   1.000  H
  C288     1.0000 0.29330  0.59231  0.31098  Biso   1.000  C
  H172     1.0000 0.33850  0.60560  0.30630  Biso   1.000  H
  C289     1.0000 0.28528  0.55139  0.32953  Biso   1.000  C
  H173     1.0000 0.32500  0.53730  0.33760  Biso   1.000  H
  C290     1.0000 0.03571  0.69196  0.24624  Biso   1.000  C
  H174     1.0000 0.05970  0.64890  0.24610  Biso   1.000  H
  O88      1.0000 0.80346  0.17968  0.77481  Biso   1.000  O
  O89      1.0000 0.68860  0.17890  0.77058  Biso   1.000  O
  O90      1.0000 0.57133  0.82120  0.85665  Biso   1.000  O
  C291     1.0000 0.70969  0.98797  0.85621  Biso   1.000  C
  C292     1.0000 0.73592  0.11368  0.79928  Biso   1.000  C
  C293     1.0000 0.71945  0.03093  0.83638  Biso   1.000  C
  C294     1.0000 0.74350  0.16054  0.78008  Biso   1.000  C
  C295     1.0000 0.65928  0.93602  0.85625  Biso   1.000  C
  H175     1.0000 0.63310  0.92720  0.84340  Biso   1.000  H
  C296     1.0000 0.66184  0.05191  0.82440  Biso   1.000  C
  H176     1.0000 0.61670  0.03800  0.82890  Biso   1.000  H
  C297     1.0000 0.66967  0.09332  0.80579  Biso   1.000  C
  H177     1.0000 0.63010  0.10750  0.79770  Biso   1.000  H
  C298     1.0000 0.79330  0.09231  0.81098  Biso   1.000  C
  H178     1.0000 0.83850  0.10560  0.80630  Biso   1.000  H
  C299     1.0000 0.78528  0.05139  0.82953  Biso   1.000  C
  H179     1.0000 0.82500  0.03730  0.83760  Biso   1.000  H
  C300     1.0000 0.53571  0.19196  0.74624  Biso   1.000  C
  H180     1.0000 0.55970  0.14890  0.74610  Biso   1.000  H
  O91      1.0000 0.19654  0.32032  0.77481  Biso   1.000  O
  O92      1.0000 0.31140  0.32110  0.77058  Biso   1.000  O
  O93      1.0000 0.42867  0.67880  0.85665  Biso   1.000  O
  C301     1.0000 0.29031  0.51203  0.85621  Biso   1.000  C
  C302     1.0000 0.26408  0.38632  0.79928  Biso   1.000  C
  C303     1.0000 0.28055  0.46907  0.83638  Biso   1.000  C
  C304     1.0000 0.25650  0.33946  0.78008  Biso   1.000  C
  C305     1.0000 0.34072  0.56398  0.85625  Biso   1.000  C
  H181     1.0000 0.36690  0.57280  0.84340  Biso   1.000  H
  C306     1.0000 0.33816  0.44809  0.82440  Biso   1.000  C
  H182     1.0000 0.38330  0.46200  0.82890  Biso   1.000  H
  C307     1.0000 0.33033  0.40668  0.80579  Biso   1.000  C
  H183     1.0000 0.36990  0.39250  0.79770  Biso   1.000  H
  C308     1.0000 0.20670  0.40769  0.81098  Biso   1.000  C
  H184     1.0000 0.16150  0.39440  0.80630  Biso   1.000  H
  C309     1.0000 0.21472  0.44861  0.82953  Biso   1.000  C
  H185     1.0000 0.17500  0.46270  0.83760  Biso   1.000  H
  C310     1.0000 0.46429  0.30804  0.74624  Biso   1.000  C
  H186     1.0000 0.44030  0.35110  0.74610  Biso   1.000  H
  O94      1.0000 0.69654  0.82032  0.27481  Biso   1.000  O
  O95      1.0000 0.81140  0.82110  0.27058  Biso   1.000  O
  O96      1.0000 0.92867  0.17880  0.35665  Biso   1.000  O
  C311     1.0000 0.79031  0.01203  0.35621  Biso   1.000  C
  C312     1.0000 0.76408  0.88632  0.29928  Biso   1.000  C
  C313     1.0000 0.78055  0.96907  0.33638  Biso   1.000  C
  C314     1.0000 0.75650  0.83946  0.28008  Biso   1.000  C
  C315     1.0000 0.84072  0.06398  0.35625  Biso   1.000  C
  H187     1.0000 0.86690  0.07280  0.34340  Biso   1.000  H
  C316     1.0000 0.83816  0.94809  0.32440  Biso   1.000  C
  H188     1.0000 0.88330  0.96200  0.32890  Biso   1.000  H
  C317     1.0000 0.83033  0.90668  0.30579  Biso   1.000  C
  H189     1.0000 0.86990  0.89250  0.29770  Biso   1.000  H
  C318     1.0000 0.70670  0.90769  0.31098  Biso   1.000  C
  H190     1.0000 0.66150  0.89440  0.30630  Biso   1.000  H
  C319     1.0000 0.71472  0.94861  0.32953  Biso   1.000  C
  H191     1.0000 0.67500  0.96270  0.33760  Biso   1.000  H
  C320     1.0000 0.96429  0.80804  0.24624  Biso   1.000  C
  H192     1.0000 0.94030  0.85110  0.24610  Biso   1.000  H
  Cu1      1.0000 0.50000  0.56706  0.49777  Biso   1.000  Cu
  N1       1.0000 0.50000  0.67843  0.49643  Biso   1.000  N
  Cu2      1.0000 0.00000  0.06706  0.99777  Biso   1.000  Cu
  N2       1.0000 0.00000  0.17843  0.99643  Biso   1.000  N
  Cu3      1.0000 0.00000  0.43294  0.99777  Biso   1.000  Cu
  N3       1.0000 0.00000  0.32157  0.99643  Biso   1.000  N
  Cu4      1.0000 0.50000  0.93294  0.49777  Biso   1.000  Cu
  N4       1.0000 0.50000  0.82157  0.49643  Biso   1.000  N
  Cu5      1.0000 0.68294  0.25000  0.74777  Biso   1.000  Cu
  N5       1.0000 0.57157  0.25000  0.74643  Biso   1.000  N
  Cu6      1.0000 0.81706  0.75000  0.24777  Biso   1.000  Cu
  N6       1.0000 0.92843  0.75000  0.24643  Biso   1.000  N
  Cu7      1.0000 0.00000  0.56706  0.00223  Biso   1.000  Cu
  N7       1.0000 0.00000  0.67843  0.00357  Biso   1.000  N
  Cu8      1.0000 0.50000  0.06706  0.50223  Biso   1.000  Cu
  N8       1.0000 0.50000  0.17843  0.50357  Biso   1.000  N
  Cu9      1.0000 0.50000  0.43294  0.50223  Biso   1.000  Cu
  N9       1.0000 0.50000  0.32157  0.50357  Biso   1.000  N
  Cu10     1.0000 0.00000  0.93294  0.00223  Biso   1.000  Cu
  N10      1.0000 0.00000  0.82157  0.00357  Biso   1.000  N
  Cu11     1.0000 0.81706  0.25000  0.75223  Biso   1.000  Cu
  N11      1.0000 0.92843  0.25000  0.75357  Biso   1.000  N
  Cu12     1.0000 0.68294  0.75000  0.25223  Biso   1.000  Cu
  N12      1.0000 0.57157  0.75000  0.25357  Biso   1.000  N
  Cu13     1.0000 0.31706  0.75000  0.25223  Biso   1.000  Cu
  N13      1.0000 0.42843  0.75000  0.25357  Biso   1.000  N
  Cu14     1.0000 0.18294  0.25000  0.75223  Biso   1.000  Cu
  N14      1.0000 0.07157  0.25000  0.75357  Biso   1.000  N
  Cu15     1.0000 0.18294  0.75000  0.24777  Biso   1.000  Cu
  N15      1.0000 0.07157  0.75000  0.24643  Biso   1.000  N
  Cu16     1.0000 0.31706  0.25000  0.74777  Biso   1.000  Cu
  N16      1.0000 0.42843  0.25000  0.74643  Biso   1.000  N
  Cu17     1.0000 0.00000  0.75000  0.60329  Biso   1.000  Cu
  Cu18     1.0000 0.50000  0.25000  0.10329  Biso   1.000  Cu
  Cu19     1.0000 0.50000  0.75000  0.85329  Biso   1.000  Cu
  Cu20     1.0000 0.00000  0.25000  0.35329  Biso   1.000  Cu
  Cu21     1.0000 0.50000  0.75000  0.89671  Biso   1.000  Cu
  Cu22     1.0000 0.00000  0.25000  0.39671  Biso   1.000  Cu
  Cu23     1.0000 0.00000  0.75000  0.64671  Biso   1.000  Cu
  Cu24     1.0000 0.50000  0.25000  0.14671  Biso   1.000  Cu
  C321     1.0000 0.75129  0.50129  0.62500  Biso   1.000  C
  H193     1.0000 0.71640  0.46640  0.62500  Biso   1.000  H
  C322     1.0000 0.85301  0.60301  0.62500  Biso   1.000  C
  C323     1.0000 0.90759  0.65759  0.62500  Biso   1.000  C
  C324     1.0000 0.25129  0.00129  0.12500  Biso   1.000  C
  H194     1.0000 0.21640  0.96640  0.12500  Biso   1.000  H
  C325     1.0000 0.35301  0.10301  0.12500  Biso   1.000  C
  C326     1.0000 0.40759  0.15759  0.12500  Biso   1.000  C
  C327     1.0000 0.74871  0.49871  0.12500  Biso   1.000  C
  H195     1.0000 0.78360  0.53360  0.12500  Biso   1.000  H
  C328     1.0000 0.64699  0.39699  0.12500  Biso   1.000  C
  C329     1.0000 0.59241  0.34241  0.12500  Biso   1.000  C
  C330     1.0000 0.24871  0.99871  0.62500  Biso   1.000  C
  H196     1.0000 0.28360  0.03360  0.62500  Biso   1.000  H
  C331     1.0000 0.14699  0.89699  0.62500  Biso   1.000  C
  C332     1.0000 0.09241  0.84241  0.62500  Biso   1.000  C
  C333     1.0000 0.74871  0.50129  0.87500  Biso   1.000  C
  H197     1.0000 0.78360  0.46640  0.87500  Biso   1.000  H
  C334     1.0000 0.64699  0.60301  0.87500  Biso   1.000  C
  C335     1.0000 0.59241  0.65759  0.87500  Biso   1.000  C
  C336     1.0000 0.24871  0.00129  0.37500  Biso   1.000  C
  H198     1.0000 0.28360  0.96640  0.37500  Biso   1.000  H
  C337     1.0000 0.14699  0.10301  0.37500  Biso   1.000  C
  C338     1.0000 0.09241  0.15759  0.37500  Biso   1.000  C
  C339     1.0000 0.75129  0.49871  0.37500  Biso   1.000  C
  H199     1.0000 0.71640  0.53360  0.37500  Biso   1.000  H
  C340     1.0000 0.85301  0.39699  0.37500  Biso   1.000  C
  C341     1.0000 0.90759  0.34241  0.37500  Biso   1.000  C
  C342     1.0000 0.25129  0.99871  0.87500  Biso   1.000  C
  H200     1.0000 0.21640  0.03360  0.87500  Biso   1.000  H
  C343     1.0000 0.35301  0.89699  0.87500  Biso   1.000  C
  C344     1.0000 0.40759  0.84241  0.87500  Biso   1.000  C
  C345     1.0000 0.24871  0.49871  0.37500  Biso   1.000  C
  H201     1.0000 0.28360  0.53360  0.37500  Biso   1.000  H
  C346     1.0000 0.14699  0.39699  0.37500  Biso   1.000  C
  C347     1.0000 0.09241  0.34241  0.37500  Biso   1.000  C
  C348     1.0000 0.74871  0.99871  0.87500  Biso   1.000  C
  H202     1.0000 0.78360  0.03360  0.87500  Biso   1.000  H
  C349     1.0000 0.64699  0.89699  0.87500  Biso   1.000  C
  C350     1.0000 0.59241  0.84241  0.87500  Biso   1.000  C
  C351     1.0000 0.25129  0.50129  0.87500  Biso   1.000  C
  H203     1.0000 0.21640  0.46640  0.87500  Biso   1.000  H
  C352     1.0000 0.35301  0.60301  0.87500  Biso   1.000  C
  C353     1.0000 0.40759  0.65759  0.87500  Biso   1.000  C
  C354     1.0000 0.75129  0.00129  0.37500  Biso   1.000  C
  H204     1.0000 0.71640  0.96640  0.37500  Biso   1.000  H
  C355     1.0000 0.85301  0.10301  0.37500  Biso   1.000  C
  C356     1.0000 0.90759  0.15759  0.37500  Biso   1.000  C
  C357     1.0000 0.25129  0.49871  0.12500  Biso   1.000  C
  H205     1.0000 0.21640  0.53360  0.12500  Biso   1.000  H
  C358     1.0000 0.35301  0.39699  0.12500  Biso   1.000  C
  C359     1.0000 0.40759  0.34241  0.12500  Biso   1.000  C
  C360     1.0000 0.75129  0.99871  0.62500  Biso   1.000  C
  H206     1.0000 0.71640  0.03360  0.62500  Biso   1.000  H
  C361     1.0000 0.85301  0.89699  0.62500  Biso   1.000  C
  C362     1.0000 0.90759  0.84241  0.62500  Biso   1.000  C
  C363     1.0000 0.24871  0.50129  0.62500  Biso   1.000  C
  H207     1.0000 0.28360  0.46640  0.62500  Biso   1.000  H
  C364     1.0000 0.14699  0.60301  0.62500  Biso   1.000  C
  C365     1.0000 0.09241  0.65759  0.62500  Biso   1.000  C
  C366     1.0000 0.74871  0.00129  0.12500  Biso   1.000  C
  H208     1.0000 0.78360  0.96640  0.12500  Biso   1.000  H
  C367     1.0000 0.64699  0.10301  0.12500  Biso   1.000  C
  C368     1.0000 0.59241  0.15759  0.12500  Biso   1.000  C
