data_image0
_cell_length_a       26.0759
_cell_length_b       26.0759
_cell_length_c       26.0759
_cell_angle_alpha    90
_cell_angle_beta     90
_cell_angle_gamma    90

_symmetry_space_group_name_H-M    "P 1"
_symmetry_int_tables_number       1

loop_
  _symmetry_equiv_pos_as_xyz
  'x, y, z'

loop_
  _atom_site_label
  _atom_site_occupancy
  _atom_site_fract_x
  _atom_site_fract_y
  _atom_site_fract_z
  _atom_site_thermal_displace_type
  _atom_site_B_iso_or_equiv
  _atom_site_type_symbol
  O1       1.0000 0.61453  0.05841  0.55512  Biso   1.000  O
  C1       1.0000 0.60200  0.13890  0.66560  Biso   1.000  C
  H1       1.0000 0.57237  0.12513  0.68004  Biso   1.000  H
  C2       1.0000 0.62520  0.17930  0.68890  Biso   1.000  C
  H2       1.0000 0.61124  0.19256  0.71895  Biso   1.000  H
  O2       1.0000 0.38547  0.94159  0.55512  Biso   1.000  O
  C3       1.0000 0.39800  0.86110  0.66560  Biso   1.000  C
  H3       1.0000 0.42763  0.87487  0.68004  Biso   1.000  H
  C4       1.0000 0.37480  0.82070  0.68890  Biso   1.000  C
  H4       1.0000 0.38876  0.80744  0.71895  Biso   1.000  H
  O3       1.0000 0.38547  0.05841  0.44488  Biso   1.000  O
  C5       1.0000 0.39800  0.13890  0.33440  Biso   1.000  C
  H5       1.0000 0.42763  0.12513  0.31996  Biso   1.000  H
  C6       1.0000 0.37480  0.17930  0.31110  Biso   1.000  C
  H6       1.0000 0.38876  0.19256  0.28105  Biso   1.000  H
  O4       1.0000 0.61453  0.94159  0.44488  Biso   1.000  O
  C7       1.0000 0.60200  0.86110  0.33440  Biso   1.000  C
  H7       1.0000 0.57237  0.87487  0.31996  Biso   1.000  H
  C8       1.0000 0.62520  0.82070  0.31110  Biso   1.000  C
  H8       1.0000 0.61124  0.80744  0.28105  Biso   1.000  H
  O5       1.0000 0.55512  0.61453  0.05841  Biso   1.000  O
  C9       1.0000 0.66560  0.60200  0.13890  Biso   1.000  C
  H9       1.0000 0.68004  0.57237  0.12513  Biso   1.000  H
  C10      1.0000 0.68890  0.62520  0.17930  Biso   1.000  C
  H10      1.0000 0.71895  0.61124  0.19256  Biso   1.000  H
  O6       1.0000 0.55512  0.38547  0.94159  Biso   1.000  O
  C11      1.0000 0.66560  0.39800  0.86110  Biso   1.000  C
  H11      1.0000 0.68004  0.42763  0.87487  Biso   1.000  H
  C12      1.0000 0.68890  0.37480  0.82070  Biso   1.000  C
  H12      1.0000 0.71895  0.38876  0.80744  Biso   1.000  H
  O7       1.0000 0.44488  0.38547  0.05841  Biso   1.000  O
  C13      1.0000 0.33440  0.39800  0.13890  Biso   1.000  C
  H13      1.0000 0.31996  0.42763  0.12513  Biso   1.000  H
  C14      1.0000 0.31110  0.37480  0.17930  Biso   1.000  C
  H14      1.0000 0.28105  0.38876  0.19256  Biso   1.000  H
  O8       1.0000 0.44488  0.61453  0.94159  Biso   1.000  O
  C15      1.0000 0.33440  0.60200  0.86110  Biso   1.000  C
  H15      1.0000 0.31996  0.57237  0.87487  Biso   1.000  H
  C16      1.0000 0.31110  0.62520  0.82070  Biso   1.000  C
  H16      1.0000 0.28105  0.61124  0.80744  Biso   1.000  H
  O9       1.0000 0.05841  0.55512  0.61453  Biso   1.000  O
  C17      1.0000 0.13890  0.66560  0.60200  Biso   1.000  C
  H17      1.0000 0.12513  0.68004  0.57237  Biso   1.000  H
  C18      1.0000 0.17930  0.68890  0.62520  Biso   1.000  C
  H18      1.0000 0.19256  0.71895  0.61124  Biso   1.000  H
  O10      1.0000 0.94159  0.55512  0.38547  Biso   1.000  O
  C19      1.0000 0.86110  0.66560  0.39800  Biso   1.000  C
  H19      1.0000 0.87487  0.68004  0.42763  Biso   1.000  H
  C20      1.0000 0.82070  0.68890  0.37480  Biso   1.000  C
  H20      1.0000 0.80744  0.71895  0.38876  Biso   1.000  H
  O11      1.0000 0.05841  0.44488  0.38547  Biso   1.000  O
  C21      1.0000 0.13890  0.33440  0.39800  Biso   1.000  C
  H21      1.0000 0.12513  0.31996  0.42763  Biso   1.000  H
  C22      1.0000 0.17930  0.31110  0.37480  Biso   1.000  C
  H22      1.0000 0.19256  0.28105  0.38876  Biso   1.000  H
  O12      1.0000 0.94159  0.44488  0.61453  Biso   1.000  O
  C23      1.0000 0.86110  0.33440  0.60200  Biso   1.000  C
  H23      1.0000 0.87487  0.31996  0.57237  Biso   1.000  H
  C24      1.0000 0.82070  0.31110  0.62520  Biso   1.000  C
  H24      1.0000 0.80744  0.28105  0.61124  Biso   1.000  H
  O13      1.0000 0.05841  0.61453  0.44488  Biso   1.000  O
  C25      1.0000 0.13890  0.60200  0.33440  Biso   1.000  C
  H25      1.0000 0.12513  0.57237  0.31996  Biso   1.000  H
  C26      1.0000 0.17930  0.62520  0.31110  Biso   1.000  C
  H26      1.0000 0.19256  0.61124  0.28105  Biso   1.000  H
  O14      1.0000 0.94159  0.38547  0.44488  Biso   1.000  O
  C27      1.0000 0.86110  0.39800  0.33440  Biso   1.000  C
  H27      1.0000 0.87487  0.42763  0.31996  Biso   1.000  H
  C28      1.0000 0.82070  0.37480  0.31110  Biso   1.000  C
  H28      1.0000 0.80744  0.38876  0.28105  Biso   1.000  H
  O15      1.0000 0.05841  0.38547  0.55512  Biso   1.000  O
  C29      1.0000 0.13890  0.39800  0.66560  Biso   1.000  C
  H29      1.0000 0.12513  0.42763  0.68004  Biso   1.000  H
  C30      1.0000 0.17930  0.37480  0.68890  Biso   1.000  C
  H30      1.0000 0.19256  0.38876  0.71895  Biso   1.000  H
  O16      1.0000 0.94159  0.61453  0.55512  Biso   1.000  O
  C31      1.0000 0.86110  0.60200  0.66560  Biso   1.000  C
  H31      1.0000 0.87487  0.57237  0.68004  Biso   1.000  H
  C32      1.0000 0.82070  0.62520  0.68890  Biso   1.000  C
  H32      1.0000 0.80744  0.61124  0.71895  Biso   1.000  H
  O17      1.0000 0.61453  0.55512  0.94159  Biso   1.000  O
  C33      1.0000 0.60200  0.66560  0.86110  Biso   1.000  C
  H33      1.0000 0.57237  0.68004  0.87487  Biso   1.000  H
  C34      1.0000 0.62520  0.68890  0.82070  Biso   1.000  C
  H34      1.0000 0.61124  0.71895  0.80744  Biso   1.000  H
  O18      1.0000 0.38547  0.55512  0.05841  Biso   1.000  O
  C35      1.0000 0.39800  0.66560  0.13890  Biso   1.000  C
  H35      1.0000 0.42763  0.68004  0.12513  Biso   1.000  H
  C36      1.0000 0.37480  0.68890  0.17930  Biso   1.000  C
  H36      1.0000 0.38876  0.71895  0.19256  Biso   1.000  H
  O19      1.0000 0.38547  0.44488  0.94159  Biso   1.000  O
  C37      1.0000 0.39800  0.33440  0.86110  Biso   1.000  C
  H37      1.0000 0.42763  0.31996  0.87487  Biso   1.000  H
  C38      1.0000 0.37480  0.31110  0.82070  Biso   1.000  C
  H38      1.0000 0.38876  0.28105  0.80744  Biso   1.000  H
  O20      1.0000 0.61453  0.44488  0.05841  Biso   1.000  O
  C39      1.0000 0.60200  0.33440  0.13890  Biso   1.000  C
  H39      1.0000 0.57237  0.31996  0.12513  Biso   1.000  H
  C40      1.0000 0.62520  0.31110  0.17930  Biso   1.000  C
  H40      1.0000 0.61124  0.28105  0.19256  Biso   1.000  H
  O21      1.0000 0.55512  0.05841  0.38547  Biso   1.000  O
  C41      1.0000 0.66560  0.13890  0.39800  Biso   1.000  C
  H41      1.0000 0.68004  0.12513  0.42763  Biso   1.000  H
  C42      1.0000 0.68890  0.17930  0.37480  Biso   1.000  C
  H42      1.0000 0.71895  0.19256  0.38876  Biso   1.000  H
  O22      1.0000 0.55512  0.94159  0.61453  Biso   1.000  O
  C43      1.0000 0.66560  0.86110  0.60200  Biso   1.000  C
  H43      1.0000 0.68004  0.87487  0.57237  Biso   1.000  H
  C44      1.0000 0.68890  0.82070  0.62520  Biso   1.000  C
  H44      1.0000 0.71895  0.80744  0.61124  Biso   1.000  H
  O23      1.0000 0.44488  0.05841  0.61453  Biso   1.000  O
  C45      1.0000 0.33440  0.13890  0.60200  Biso   1.000  C
  H45      1.0000 0.31996  0.12513  0.57237  Biso   1.000  H
  C46      1.0000 0.31110  0.17930  0.62520  Biso   1.000  C
  H46      1.0000 0.28105  0.19256  0.61124  Biso   1.000  H
  O24      1.0000 0.44488  0.94159  0.38547  Biso   1.000  O
  C47      1.0000 0.33440  0.86110  0.39800  Biso   1.000  C
  H47      1.0000 0.31996  0.87487  0.42763  Biso   1.000  H
  C48      1.0000 0.31110  0.82070  0.37480  Biso   1.000  C
  H48      1.0000 0.28105  0.80744  0.38876  Biso   1.000  H
  O25      1.0000 0.38547  0.94159  0.44488  Biso   1.000  O
  C49      1.0000 0.39800  0.86110  0.33440  Biso   1.000  C
  H49      1.0000 0.42763  0.87487  0.31996  Biso   1.000  H
  C50      1.0000 0.37480  0.82070  0.31110  Biso   1.000  C
  H50      1.0000 0.38876  0.80744  0.28105  Biso   1.000  H
  O26      1.0000 0.61453  0.05841  0.44488  Biso   1.000  O
  C51      1.0000 0.60200  0.13890  0.33440  Biso   1.000  C
  H51      1.0000 0.57237  0.12513  0.31996  Biso   1.000  H
  C52      1.0000 0.62520  0.17930  0.31110  Biso   1.000  C
  H52      1.0000 0.61124  0.19256  0.28105  Biso   1.000  H
  O27      1.0000 0.61453  0.94159  0.55512  Biso   1.000  O
  C53      1.0000 0.60200  0.86110  0.66560  Biso   1.000  C
  H53      1.0000 0.57237  0.87487  0.68004  Biso   1.000  H
  C54      1.0000 0.62520  0.82070  0.68890  Biso   1.000  C
  H54      1.0000 0.61124  0.80744  0.71895  Biso   1.000  H
  O28      1.0000 0.38547  0.05841  0.55512  Biso   1.000  O
  C55      1.0000 0.39800  0.13890  0.66560  Biso   1.000  C
  H55      1.0000 0.42763  0.12513  0.68004  Biso   1.000  H
  C56      1.0000 0.37480  0.17930  0.68890  Biso   1.000  C
  H56      1.0000 0.38876  0.19256  0.71895  Biso   1.000  H
  O29      1.0000 0.44488  0.38547  0.94159  Biso   1.000  O
  C57      1.0000 0.33440  0.39800  0.86110  Biso   1.000  C
  H57      1.0000 0.31996  0.42763  0.87487  Biso   1.000  H
  C58      1.0000 0.31110  0.37480  0.82070  Biso   1.000  C
  H58      1.0000 0.28105  0.38876  0.80744  Biso   1.000  H
  O30      1.0000 0.44488  0.61453  0.05841  Biso   1.000  O
  C59      1.0000 0.33440  0.60200  0.13890  Biso   1.000  C
  H59      1.0000 0.31996  0.57237  0.12513  Biso   1.000  H
  C60      1.0000 0.31110  0.62520  0.17930  Biso   1.000  C
  H60      1.0000 0.28105  0.61124  0.19256  Biso   1.000  H
  O31      1.0000 0.55512  0.61453  0.94159  Biso   1.000  O
  C61      1.0000 0.66560  0.60200  0.86110  Biso   1.000  C
  H61      1.0000 0.68004  0.57237  0.87487  Biso   1.000  H
  C62      1.0000 0.68890  0.62520  0.82070  Biso   1.000  C
  H62      1.0000 0.71895  0.61124  0.80744  Biso   1.000  H
  O32      1.0000 0.55512  0.38547  0.05841  Biso   1.000  O
  C63      1.0000 0.66560  0.39800  0.13890  Biso   1.000  C
  H63      1.0000 0.68004  0.42763  0.12513  Biso   1.000  H
  C64      1.0000 0.68890  0.37480  0.17930  Biso   1.000  C
  H64      1.0000 0.71895  0.38876  0.19256  Biso   1.000  H
  O33      1.0000 0.94159  0.44488  0.38547  Biso   1.000  O
  C65      1.0000 0.86110  0.33440  0.39800  Biso   1.000  C
  H65      1.0000 0.87487  0.31996  0.42763  Biso   1.000  H
  C66      1.0000 0.82070  0.31110  0.37480  Biso   1.000  C
  H66      1.0000 0.80744  0.28105  0.38876  Biso   1.000  H
  O34      1.0000 0.05841  0.44488  0.61453  Biso   1.000  O
  C67      1.0000 0.13890  0.33440  0.60200  Biso   1.000  C
  H67      1.0000 0.12513  0.31996  0.57237  Biso   1.000  H
  C68      1.0000 0.17930  0.31110  0.62520  Biso   1.000  C
  H68      1.0000 0.19256  0.28105  0.61124  Biso   1.000  H
  O35      1.0000 0.94159  0.55512  0.61453  Biso   1.000  O
  C69      1.0000 0.86110  0.66560  0.60200  Biso   1.000  C
  H69      1.0000 0.87487  0.68004  0.57237  Biso   1.000  H
  C70      1.0000 0.82070  0.68890  0.62520  Biso   1.000  C
  H70      1.0000 0.80744  0.71895  0.61124  Biso   1.000  H
  O36      1.0000 0.05841  0.55512  0.38547  Biso   1.000  O
  C71      1.0000 0.13890  0.66560  0.39800  Biso   1.000  C
  H71      1.0000 0.12513  0.68004  0.42763  Biso   1.000  H
  C72      1.0000 0.17930  0.68890  0.37480  Biso   1.000  C
  H72      1.0000 0.19256  0.71895  0.38876  Biso   1.000  H
  O37      1.0000 0.94159  0.38547  0.55512  Biso   1.000  O
  C73      1.0000 0.86110  0.39800  0.66560  Biso   1.000  C
  H73      1.0000 0.87487  0.42763  0.68004  Biso   1.000  H
  C74      1.0000 0.82070  0.37480  0.68890  Biso   1.000  C
  H74      1.0000 0.80744  0.38876  0.71895  Biso   1.000  H
  O38      1.0000 0.05841  0.61453  0.55512  Biso   1.000  O
  C75      1.0000 0.13890  0.60200  0.66560  Biso   1.000  C
  H75      1.0000 0.12513  0.57237  0.68004  Biso   1.000  H
  C76      1.0000 0.17930  0.62520  0.68890  Biso   1.000  C
  H76      1.0000 0.19256  0.61124  0.71895  Biso   1.000  H
  O39      1.0000 0.94159  0.61453  0.44488  Biso   1.000  O
  C77      1.0000 0.86110  0.60200  0.33440  Biso   1.000  C
  H77      1.0000 0.87487  0.57237  0.31996  Biso   1.000  H
  C78      1.0000 0.82070  0.62520  0.31110  Biso   1.000  C
  H78      1.0000 0.80744  0.61124  0.28105  Biso   1.000  H
  O40      1.0000 0.05841  0.38547  0.44488  Biso   1.000  O
  C79      1.0000 0.13890  0.39800  0.33440  Biso   1.000  C
  H79      1.0000 0.12513  0.42763  0.31996  Biso   1.000  H
  C80      1.0000 0.17930  0.37480  0.31110  Biso   1.000  C
  H80      1.0000 0.19256  0.38876  0.28105  Biso   1.000  H
  O41      1.0000 0.38547  0.44488  0.05841  Biso   1.000  O
  C81      1.0000 0.39800  0.33440  0.13890  Biso   1.000  C
  H81      1.0000 0.42763  0.31996  0.12513  Biso   1.000  H
  C82      1.0000 0.37480  0.31110  0.17930  Biso   1.000  C
  H82      1.0000 0.38876  0.28105  0.19256  Biso   1.000  H
  O42      1.0000 0.61453  0.44488  0.94159  Biso   1.000  O
  C83      1.0000 0.60200  0.33440  0.86110  Biso   1.000  C
  H83      1.0000 0.57237  0.31996  0.87487  Biso   1.000  H
  C84      1.0000 0.62520  0.31110  0.82070  Biso   1.000  C
  H84      1.0000 0.61124  0.28105  0.80744  Biso   1.000  H
  O43      1.0000 0.61453  0.55512  0.05841  Biso   1.000  O
  C85      1.0000 0.60200  0.66560  0.13890  Biso   1.000  C
  H85      1.0000 0.57237  0.68004  0.12513  Biso   1.000  H
  C86      1.0000 0.62520  0.68890  0.17930  Biso   1.000  C
  H86      1.0000 0.61124  0.71895  0.19256  Biso   1.000  H
  O44      1.0000 0.38547  0.55512  0.94159  Biso   1.000  O
  C87      1.0000 0.39800  0.66560  0.86110  Biso   1.000  C
  H87      1.0000 0.42763  0.68004  0.87487  Biso   1.000  H
  C88      1.0000 0.37480  0.68890  0.82070  Biso   1.000  C
  H88      1.0000 0.38876  0.71895  0.80744  Biso   1.000  H
  O45      1.0000 0.44488  0.94159  0.61453  Biso   1.000  O
  C89      1.0000 0.33440  0.86110  0.60200  Biso   1.000  C
  H89      1.0000 0.31996  0.87487  0.57237  Biso   1.000  H
  C90      1.0000 0.31110  0.82070  0.62520  Biso   1.000  C
  H90      1.0000 0.28105  0.80744  0.61124  Biso   1.000  H
  O46      1.0000 0.44488  0.05841  0.38547  Biso   1.000  O
  C91      1.0000 0.33440  0.13890  0.39800  Biso   1.000  C
  H91      1.0000 0.31996  0.12513  0.42763  Biso   1.000  H
  C92      1.0000 0.31110  0.17930  0.37480  Biso   1.000  C
  H92      1.0000 0.28105  0.19256  0.38876  Biso   1.000  H
  O47      1.0000 0.55512  0.94159  0.38547  Biso   1.000  O
  C93      1.0000 0.66560  0.86110  0.39800  Biso   1.000  C
  H93      1.0000 0.68004  0.87487  0.42763  Biso   1.000  H
  C94      1.0000 0.68890  0.82070  0.37480  Biso   1.000  C
  H94      1.0000 0.71895  0.80744  0.38876  Biso   1.000  H
  O48      1.0000 0.55512  0.05841  0.61453  Biso   1.000  O
  C95      1.0000 0.66560  0.13890  0.60200  Biso   1.000  C
  H95      1.0000 0.68004  0.12513  0.57237  Biso   1.000  H
  C96      1.0000 0.68890  0.17930  0.62520  Biso   1.000  C
  H96      1.0000 0.71895  0.19256  0.61124  Biso   1.000  H
  Mn1      1.0000 0.60644  0.00000  0.50000  Biso   1.000  Mn
  Mn2      1.0000 0.39356  0.00000  0.50000  Biso   1.000  Mn
  Mn3      1.0000 0.50000  0.60644  0.00000  Biso   1.000  Mn
  Mn4      1.0000 0.50000  0.39356  0.00000  Biso   1.000  Mn
  Mn5      1.0000 0.00000  0.50000  0.60644  Biso   1.000  Mn
  Mn6      1.0000 0.00000  0.50000  0.39356  Biso   1.000  Mn
  Mn7      1.0000 0.00000  0.60644  0.50000  Biso   1.000  Mn
  Mn8      1.0000 0.00000  0.39356  0.50000  Biso   1.000  Mn
  Mn9      1.0000 0.60644  0.50000  0.00000  Biso   1.000  Mn
  Mn10     1.0000 0.39356  0.50000  0.00000  Biso   1.000  Mn
  Mn11     1.0000 0.50000  0.00000  0.39356  Biso   1.000  Mn
  Mn12     1.0000 0.50000  0.00000  0.60644  Biso   1.000  Mn
  C97      1.0000 0.62115  0.11770  0.62115  Biso   1.000  C
  C98      1.0000 0.59514  0.07404  0.59514  Biso   1.000  C
  C99      1.0000 0.66880  0.20080  0.66880  Biso   1.000  C
  C100     1.0000 0.69290  0.24570  0.69290  Biso   1.000  C
  C101     1.0000 0.37885  0.88230  0.62115  Biso   1.000  C
  C102     1.0000 0.40486  0.92596  0.59514  Biso   1.000  C
  C103     1.0000 0.33120  0.79920  0.66880  Biso   1.000  C
  C104     1.0000 0.30710  0.75430  0.69290  Biso   1.000  C
  C105     1.0000 0.37885  0.11770  0.37885  Biso   1.000  C
  C106     1.0000 0.40486  0.07404  0.40486  Biso   1.000  C
  C107     1.0000 0.33120  0.20080  0.33120  Biso   1.000  C
  C108     1.0000 0.30710  0.24570  0.30710  Biso   1.000  C
  C109     1.0000 0.62115  0.88230  0.37885  Biso   1.000  C
  C110     1.0000 0.59514  0.92596  0.40486  Biso   1.000  C
  C111     1.0000 0.66880  0.79920  0.33120  Biso   1.000  C
  C112     1.0000 0.69290  0.75430  0.30710  Biso   1.000  C
  C113     1.0000 0.62115  0.62115  0.11770  Biso   1.000  C
  C114     1.0000 0.59514  0.59514  0.07404  Biso   1.000  C
  C115     1.0000 0.66880  0.66880  0.20080  Biso   1.000  C
  C116     1.0000 0.69290  0.69290  0.24570  Biso   1.000  C
  C117     1.0000 0.62115  0.37885  0.88230  Biso   1.000  C
  C118     1.0000 0.59514  0.40486  0.92596  Biso   1.000  C
  C119     1.0000 0.66880  0.33120  0.79920  Biso   1.000  C
  C120     1.0000 0.69290  0.30710  0.75430  Biso   1.000  C
  C121     1.0000 0.37885  0.37885  0.11770  Biso   1.000  C
  C122     1.0000 0.40486  0.40486  0.07404  Biso   1.000  C
  C123     1.0000 0.33120  0.33120  0.20080  Biso   1.000  C
  C124     1.0000 0.30710  0.30710  0.24570  Biso   1.000  C
  C125     1.0000 0.37885  0.62115  0.88230  Biso   1.000  C
  C126     1.0000 0.40486  0.59514  0.92596  Biso   1.000  C
  C127     1.0000 0.33120  0.66880  0.79920  Biso   1.000  C
  C128     1.0000 0.30710  0.69290  0.75430  Biso   1.000  C
  C129     1.0000 0.11770  0.62115  0.62115  Biso   1.000  C
  C130     1.0000 0.07404  0.59514  0.59514  Biso   1.000  C
  C131     1.0000 0.20080  0.66880  0.66880  Biso   1.000  C
  C132     1.0000 0.24570  0.69290  0.69290  Biso   1.000  C
  C133     1.0000 0.88230  0.62115  0.37885  Biso   1.000  C
  C134     1.0000 0.92596  0.59514  0.40486  Biso   1.000  C
  C135     1.0000 0.79920  0.66880  0.33120  Biso   1.000  C
  C136     1.0000 0.75430  0.69290  0.30710  Biso   1.000  C
  C137     1.0000 0.11770  0.37885  0.37885  Biso   1.000  C
  C138     1.0000 0.07404  0.40486  0.40486  Biso   1.000  C
  C139     1.0000 0.20080  0.33120  0.33120  Biso   1.000  C
  C140     1.0000 0.24570  0.30710  0.30710  Biso   1.000  C
  C141     1.0000 0.88230  0.37885  0.62115  Biso   1.000  C
  C142     1.0000 0.92596  0.40486  0.59514  Biso   1.000  C
  C143     1.0000 0.79920  0.33120  0.66880  Biso   1.000  C
  C144     1.0000 0.75430  0.30710  0.69290  Biso   1.000  C
  C145     1.0000 0.11770  0.62115  0.37885  Biso   1.000  C
  C146     1.0000 0.07404  0.59514  0.40486  Biso   1.000  C
  C147     1.0000 0.20080  0.66880  0.33120  Biso   1.000  C
  C148     1.0000 0.24570  0.69290  0.30710  Biso   1.000  C
  C149     1.0000 0.88230  0.37885  0.37885  Biso   1.000  C
  C150     1.0000 0.92596  0.40486  0.40486  Biso   1.000  C
  C151     1.0000 0.79920  0.33120  0.33120  Biso   1.000  C
  C152     1.0000 0.75430  0.30710  0.30710  Biso   1.000  C
  C153     1.0000 0.11770  0.37885  0.62115  Biso   1.000  C
  C154     1.0000 0.07404  0.40486  0.59514  Biso   1.000  C
  C155     1.0000 0.20080  0.33120  0.66880  Biso   1.000  C
  C156     1.0000 0.24570  0.30710  0.69290  Biso   1.000  C
  C157     1.0000 0.88230  0.62115  0.62115  Biso   1.000  C
  C158     1.0000 0.92596  0.59514  0.59514  Biso   1.000  C
  C159     1.0000 0.79920  0.66880  0.66880  Biso   1.000  C
  C160     1.0000 0.75430  0.69290  0.69290  Biso   1.000  C
  C161     1.0000 0.62115  0.62115  0.88230  Biso   1.000  C
  C162     1.0000 0.59514  0.59514  0.92596  Biso   1.000  C
  C163     1.0000 0.66880  0.66880  0.79920  Biso   1.000  C
  C164     1.0000 0.69290  0.69290  0.75430  Biso   1.000  C
  C165     1.0000 0.37885  0.62115  0.11770  Biso   1.000  C
  C166     1.0000 0.40486  0.59514  0.07404  Biso   1.000  C
  C167     1.0000 0.33120  0.66880  0.20080  Biso   1.000  C
  C168     1.0000 0.30710  0.69290  0.24570  Biso   1.000  C
  C169     1.0000 0.37885  0.37885  0.88230  Biso   1.000  C
  C170     1.0000 0.40486  0.40486  0.92596  Biso   1.000  C
  C171     1.0000 0.33120  0.33120  0.79920  Biso   1.000  C
  C172     1.0000 0.30710  0.30710  0.75430  Biso   1.000  C
  C173     1.0000 0.62115  0.37885  0.11770  Biso   1.000  C
  C174     1.0000 0.59514  0.40486  0.07404  Biso   1.000  C
  C175     1.0000 0.66880  0.33120  0.20080  Biso   1.000  C
  C176     1.0000 0.69290  0.30710  0.24570  Biso   1.000  C
  C177     1.0000 0.62115  0.11770  0.37885  Biso   1.000  C
  C178     1.0000 0.59514  0.07404  0.40486  Biso   1.000  C
  C179     1.0000 0.66880  0.20080  0.33120  Biso   1.000  C
  C180     1.0000 0.69290  0.24570  0.30710  Biso   1.000  C
  C181     1.0000 0.62115  0.88230  0.62115  Biso   1.000  C
  C182     1.0000 0.59514  0.92596  0.59514  Biso   1.000  C
  C183     1.0000 0.66880  0.79920  0.66880  Biso   1.000  C
  C184     1.0000 0.69290  0.75430  0.69290  Biso   1.000  C
  C185     1.0000 0.37885  0.11770  0.62115  Biso   1.000  C
  C186     1.0000 0.40486  0.07404  0.59514  Biso   1.000  C
  C187     1.0000 0.33120  0.20080  0.66880  Biso   1.000  C
  C188     1.0000 0.30710  0.24570  0.69290  Biso   1.000  C
  C189     1.0000 0.37885  0.88230  0.37885  Biso   1.000  C
  C190     1.0000 0.40486  0.92596  0.40486  Biso   1.000  C
  C191     1.0000 0.33120  0.79920  0.33120  Biso   1.000  C
  C192     1.0000 0.30710  0.75430  0.30710  Biso   1.000  C
  C193     1.0000 0.73457  0.26543  0.67040  Biso   1.000  C
  C194     1.0000 0.26543  0.73457  0.67040  Biso   1.000  C
  C195     1.0000 0.26543  0.26543  0.32960  Biso   1.000  C
  C196     1.0000 0.73457  0.73457  0.32960  Biso   1.000  C
  C197     1.0000 0.67040  0.73457  0.26543  Biso   1.000  C
  C198     1.0000 0.67040  0.26543  0.73457  Biso   1.000  C
  C199     1.0000 0.32960  0.26543  0.26543  Biso   1.000  C
  C200     1.0000 0.32960  0.73457  0.73457  Biso   1.000  C
  C201     1.0000 0.26543  0.67040  0.73457  Biso   1.000  C
  C202     1.0000 0.73457  0.67040  0.26543  Biso   1.000  C
  C203     1.0000 0.26543  0.32960  0.26543  Biso   1.000  C
  C204     1.0000 0.73457  0.32960  0.73457  Biso   1.000  C
  C205     1.0000 0.26543  0.73457  0.32960  Biso   1.000  C
  C206     1.0000 0.73457  0.26543  0.32960  Biso   1.000  C
  C207     1.0000 0.26543  0.26543  0.67040  Biso   1.000  C
  C208     1.0000 0.73457  0.73457  0.67040  Biso   1.000  C
  C209     1.0000 0.73457  0.67040  0.73457  Biso   1.000  C
  C210     1.0000 0.26543  0.67040  0.26543  Biso   1.000  C
  C211     1.0000 0.26543  0.32960  0.73457  Biso   1.000  C
  C212     1.0000 0.73457  0.32960  0.26543  Biso   1.000  C
  C213     1.0000 0.67040  0.26543  0.26543  Biso   1.000  C
  C214     1.0000 0.67040  0.73457  0.73457  Biso   1.000  C
  C215     1.0000 0.32960  0.26543  0.73457  Biso   1.000  C
  C216     1.0000 0.32960  0.73457  0.26543  Biso   1.000  C
  O49      1.0000 0.11453  0.55841  0.05512  Biso   1.000  O
  C217     1.0000 0.10200  0.63890  0.16560  Biso   1.000  C
  H97      1.0000 0.07237  0.62513  0.18004  Biso   1.000  H
  C218     1.0000 0.12520  0.67930  0.18890  Biso   1.000  C
  H98      1.0000 0.11124  0.69256  0.21895  Biso   1.000  H
  O50      1.0000 0.88547  0.44159  0.05512  Biso   1.000  O
  C219     1.0000 0.89800  0.36110  0.16560  Biso   1.000  C
  H99      1.0000 0.92763  0.37487  0.18004  Biso   1.000  H
  C220     1.0000 0.87480  0.32070  0.18890  Biso   1.000  C
  H100     1.0000 0.88876  0.30744  0.21895  Biso   1.000  H
  O51      1.0000 0.88547  0.55841  0.94488  Biso   1.000  O
  C221     1.0000 0.89800  0.63890  0.83440  Biso   1.000  C
  H101     1.0000 0.92763  0.62513  0.81996  Biso   1.000  H
  C222     1.0000 0.87480  0.67930  0.81110  Biso   1.000  C
  H102     1.0000 0.88876  0.69256  0.78105  Biso   1.000  H
  O52      1.0000 0.11453  0.44159  0.94488  Biso   1.000  O
  C223     1.0000 0.10200  0.36110  0.83440  Biso   1.000  C
  H103     1.0000 0.07237  0.37487  0.81996  Biso   1.000  H
  C224     1.0000 0.12520  0.32070  0.81110  Biso   1.000  C
  H104     1.0000 0.11124  0.30744  0.78105  Biso   1.000  H
  O53      1.0000 0.05512  0.11453  0.55841  Biso   1.000  O
  C225     1.0000 0.16560  0.10200  0.63890  Biso   1.000  C
  H105     1.0000 0.18004  0.07237  0.62513  Biso   1.000  H
  C226     1.0000 0.18890  0.12520  0.67930  Biso   1.000  C
  H106     1.0000 0.21895  0.11124  0.69256  Biso   1.000  H
  O54      1.0000 0.05512  0.88547  0.44159  Biso   1.000  O
  C227     1.0000 0.16560  0.89800  0.36110  Biso   1.000  C
  H107     1.0000 0.18004  0.92763  0.37487  Biso   1.000  H
  C228     1.0000 0.18890  0.87480  0.32070  Biso   1.000  C
  H108     1.0000 0.21895  0.88876  0.30744  Biso   1.000  H
  O55      1.0000 0.94488  0.88547  0.55841  Biso   1.000  O
  C229     1.0000 0.83440  0.89800  0.63890  Biso   1.000  C
  H109     1.0000 0.81996  0.92763  0.62513  Biso   1.000  H
  C230     1.0000 0.81110  0.87480  0.67930  Biso   1.000  C
  H110     1.0000 0.78105  0.88876  0.69256  Biso   1.000  H
  O56      1.0000 0.94488  0.11453  0.44159  Biso   1.000  O
  C231     1.0000 0.83440  0.10200  0.36110  Biso   1.000  C
  H111     1.0000 0.81996  0.07237  0.37487  Biso   1.000  H
  C232     1.0000 0.81110  0.12520  0.32070  Biso   1.000  C
  H112     1.0000 0.78105  0.11124  0.30744  Biso   1.000  H
  O57      1.0000 0.55841  0.05512  0.11453  Biso   1.000  O
  C233     1.0000 0.63890  0.16560  0.10200  Biso   1.000  C
  H113     1.0000 0.62513  0.18004  0.07237  Biso   1.000  H
  C234     1.0000 0.67930  0.18890  0.12520  Biso   1.000  C
  H114     1.0000 0.69256  0.21895  0.11124  Biso   1.000  H
  O58      1.0000 0.44159  0.05512  0.88547  Biso   1.000  O
  C235     1.0000 0.36110  0.16560  0.89800  Biso   1.000  C
  H115     1.0000 0.37487  0.18004  0.92763  Biso   1.000  H
  C236     1.0000 0.32070  0.18890  0.87480  Biso   1.000  C
  H116     1.0000 0.30744  0.21895  0.88876  Biso   1.000  H
  O59      1.0000 0.55841  0.94488  0.88547  Biso   1.000  O
  C237     1.0000 0.63890  0.83440  0.89800  Biso   1.000  C
  H117     1.0000 0.62513  0.81996  0.92763  Biso   1.000  H
  C238     1.0000 0.67930  0.81110  0.87480  Biso   1.000  C
  H118     1.0000 0.69256  0.78105  0.88876  Biso   1.000  H
  O60      1.0000 0.44159  0.94488  0.11453  Biso   1.000  O
  C239     1.0000 0.36110  0.83440  0.10200  Biso   1.000  C
  H119     1.0000 0.37487  0.81996  0.07237  Biso   1.000  H
  C240     1.0000 0.32070  0.81110  0.12520  Biso   1.000  C
  H120     1.0000 0.30744  0.78105  0.11124  Biso   1.000  H
  O61      1.0000 0.55841  0.11453  0.94488  Biso   1.000  O
  C241     1.0000 0.63890  0.10200  0.83440  Biso   1.000  C
  H121     1.0000 0.62513  0.07237  0.81996  Biso   1.000  H
  C242     1.0000 0.67930  0.12520  0.81110  Biso   1.000  C
  H122     1.0000 0.69256  0.11124  0.78105  Biso   1.000  H
  O62      1.0000 0.44159  0.88547  0.94488  Biso   1.000  O
  C243     1.0000 0.36110  0.89800  0.83440  Biso   1.000  C
  H123     1.0000 0.37487  0.92763  0.81996  Biso   1.000  H
  C244     1.0000 0.32070  0.87480  0.81110  Biso   1.000  C
  H124     1.0000 0.30744  0.88876  0.78105  Biso   1.000  H
  O63      1.0000 0.55841  0.88547  0.05512  Biso   1.000  O
  C245     1.0000 0.63890  0.89800  0.16560  Biso   1.000  C
  H125     1.0000 0.62513  0.92763  0.18004  Biso   1.000  H
  C246     1.0000 0.67930  0.87480  0.18890  Biso   1.000  C
  H126     1.0000 0.69256  0.88876  0.21895  Biso   1.000  H
  O64      1.0000 0.44159  0.11453  0.05512  Biso   1.000  O
  C247     1.0000 0.36110  0.10200  0.16560  Biso   1.000  C
  H127     1.0000 0.37487  0.07237  0.18004  Biso   1.000  H
  C248     1.0000 0.32070  0.12520  0.18890  Biso   1.000  C
  H128     1.0000 0.30744  0.11124  0.21895  Biso   1.000  H
  O65      1.0000 0.11453  0.05512  0.44159  Biso   1.000  O
  C249     1.0000 0.10200  0.16560  0.36110  Biso   1.000  C
  H129     1.0000 0.07237  0.18004  0.37487  Biso   1.000  H
  C250     1.0000 0.12520  0.18890  0.32070  Biso   1.000  C
  H130     1.0000 0.11124  0.21895  0.30744  Biso   1.000  H
  O66      1.0000 0.88547  0.05512  0.55841  Biso   1.000  O
  C251     1.0000 0.89800  0.16560  0.63890  Biso   1.000  C
  H131     1.0000 0.92763  0.18004  0.62513  Biso   1.000  H
  C252     1.0000 0.87480  0.18890  0.67930  Biso   1.000  C
  H132     1.0000 0.88876  0.21895  0.69256  Biso   1.000  H
  O67      1.0000 0.88547  0.94488  0.44159  Biso   1.000  O
  C253     1.0000 0.89800  0.83440  0.36110  Biso   1.000  C
  H133     1.0000 0.92763  0.81996  0.37487  Biso   1.000  H
  C254     1.0000 0.87480  0.81110  0.32070  Biso   1.000  C
  H134     1.0000 0.88876  0.78105  0.30744  Biso   1.000  H
  O68      1.0000 0.11453  0.94488  0.55841  Biso   1.000  O
  C255     1.0000 0.10200  0.83440  0.63890  Biso   1.000  C
  H135     1.0000 0.07237  0.81996  0.62513  Biso   1.000  H
  C256     1.0000 0.12520  0.81110  0.67930  Biso   1.000  C
  H136     1.0000 0.11124  0.78105  0.69256  Biso   1.000  H
  O69      1.0000 0.05512  0.55841  0.88547  Biso   1.000  O
  C257     1.0000 0.16560  0.63890  0.89800  Biso   1.000  C
  H137     1.0000 0.18004  0.62513  0.92763  Biso   1.000  H
  C258     1.0000 0.18890  0.67930  0.87480  Biso   1.000  C
  H138     1.0000 0.21895  0.69256  0.88876  Biso   1.000  H
  O70      1.0000 0.05512  0.44159  0.11453  Biso   1.000  O
  C259     1.0000 0.16560  0.36110  0.10200  Biso   1.000  C
  H139     1.0000 0.18004  0.37487  0.07237  Biso   1.000  H
  C260     1.0000 0.18890  0.32070  0.12520  Biso   1.000  C
  H140     1.0000 0.21895  0.30744  0.11124  Biso   1.000  H
  O71      1.0000 0.94488  0.55841  0.11453  Biso   1.000  O
  C261     1.0000 0.83440  0.63890  0.10200  Biso   1.000  C
  H141     1.0000 0.81996  0.62513  0.07237  Biso   1.000  H
  C262     1.0000 0.81110  0.67930  0.12520  Biso   1.000  C
  H142     1.0000 0.78105  0.69256  0.11124  Biso   1.000  H
  O72      1.0000 0.94488  0.44159  0.88547  Biso   1.000  O
  C263     1.0000 0.83440  0.36110  0.89800  Biso   1.000  C
  H143     1.0000 0.81996  0.37487  0.92763  Biso   1.000  H
  C264     1.0000 0.81110  0.32070  0.87480  Biso   1.000  C
  H144     1.0000 0.78105  0.30744  0.88876  Biso   1.000  H
  O73      1.0000 0.88547  0.44159  0.94488  Biso   1.000  O
  C265     1.0000 0.89800  0.36110  0.83440  Biso   1.000  C
  H145     1.0000 0.92763  0.37487  0.81996  Biso   1.000  H
  C266     1.0000 0.87480  0.32070  0.81110  Biso   1.000  C
  H146     1.0000 0.88876  0.30744  0.78105  Biso   1.000  H
  O74      1.0000 0.11453  0.55841  0.94488  Biso   1.000  O
  C267     1.0000 0.10200  0.63890  0.83440  Biso   1.000  C
  H147     1.0000 0.07237  0.62513  0.81996  Biso   1.000  H
  C268     1.0000 0.12520  0.67930  0.81110  Biso   1.000  C
  H148     1.0000 0.11124  0.69256  0.78105  Biso   1.000  H
  O75      1.0000 0.11453  0.44159  0.05512  Biso   1.000  O
  C269     1.0000 0.10200  0.36110  0.16560  Biso   1.000  C
  H149     1.0000 0.07237  0.37487  0.18004  Biso   1.000  H
  C270     1.0000 0.12520  0.32070  0.18890  Biso   1.000  C
  H150     1.0000 0.11124  0.30744  0.21895  Biso   1.000  H
  O76      1.0000 0.88547  0.55841  0.05512  Biso   1.000  O
  C271     1.0000 0.89800  0.63890  0.16560  Biso   1.000  C
  H151     1.0000 0.92763  0.62513  0.18004  Biso   1.000  H
  C272     1.0000 0.87480  0.67930  0.18890  Biso   1.000  C
  H152     1.0000 0.88876  0.69256  0.21895  Biso   1.000  H
  O77      1.0000 0.94488  0.88547  0.44159  Biso   1.000  O
  C273     1.0000 0.83440  0.89800  0.36110  Biso   1.000  C
  H153     1.0000 0.81996  0.92763  0.37487  Biso   1.000  H
  C274     1.0000 0.81110  0.87480  0.32070  Biso   1.000  C
  H154     1.0000 0.78105  0.88876  0.30744  Biso   1.000  H
  O78      1.0000 0.94488  0.11453  0.55841  Biso   1.000  O
  C275     1.0000 0.83440  0.10200  0.63890  Biso   1.000  C
  H155     1.0000 0.81996  0.07237  0.62513  Biso   1.000  H
  C276     1.0000 0.81110  0.12520  0.67930  Biso   1.000  C
  H156     1.0000 0.78105  0.11124  0.69256  Biso   1.000  H
  O79      1.0000 0.05512  0.11453  0.44159  Biso   1.000  O
  C277     1.0000 0.16560  0.10200  0.36110  Biso   1.000  C
  H157     1.0000 0.18004  0.07237  0.37487  Biso   1.000  H
  C278     1.0000 0.18890  0.12520  0.32070  Biso   1.000  C
  H158     1.0000 0.21895  0.11124  0.30744  Biso   1.000  H
  O80      1.0000 0.05512  0.88547  0.55841  Biso   1.000  O
  C279     1.0000 0.16560  0.89800  0.63890  Biso   1.000  C
  H159     1.0000 0.18004  0.92763  0.62513  Biso   1.000  H
  C280     1.0000 0.18890  0.87480  0.67930  Biso   1.000  C
  H160     1.0000 0.21895  0.88876  0.69256  Biso   1.000  H
  O81      1.0000 0.44159  0.94488  0.88547  Biso   1.000  O
  C281     1.0000 0.36110  0.83440  0.89800  Biso   1.000  C
  H161     1.0000 0.37487  0.81996  0.92763  Biso   1.000  H
  C282     1.0000 0.32070  0.81110  0.87480  Biso   1.000  C
  H162     1.0000 0.30744  0.78105  0.88876  Biso   1.000  H
  O82      1.0000 0.55841  0.94488  0.11453  Biso   1.000  O
  C283     1.0000 0.63890  0.83440  0.10200  Biso   1.000  C
  H163     1.0000 0.62513  0.81996  0.07237  Biso   1.000  H
  C284     1.0000 0.67930  0.81110  0.12520  Biso   1.000  C
  H164     1.0000 0.69256  0.78105  0.11124  Biso   1.000  H
  O83      1.0000 0.44159  0.05512  0.11453  Biso   1.000  O
  C285     1.0000 0.36110  0.16560  0.10200  Biso   1.000  C
  H165     1.0000 0.37487  0.18004  0.07237  Biso   1.000  H
  C286     1.0000 0.32070  0.18890  0.12520  Biso   1.000  C
  H166     1.0000 0.30744  0.21895  0.11124  Biso   1.000  H
  O84      1.0000 0.55841  0.05512  0.88547  Biso   1.000  O
  C287     1.0000 0.63890  0.16560  0.89800  Biso   1.000  C
  H167     1.0000 0.62513  0.18004  0.92763  Biso   1.000  H
  C288     1.0000 0.67930  0.18890  0.87480  Biso   1.000  C
  H168     1.0000 0.69256  0.21895  0.88876  Biso   1.000  H
  O85      1.0000 0.44159  0.88547  0.05512  Biso   1.000  O
  C289     1.0000 0.36110  0.89800  0.16560  Biso   1.000  C
  H169     1.0000 0.37487  0.92763  0.18004  Biso   1.000  H
  C290     1.0000 0.32070  0.87480  0.18890  Biso   1.000  C
  H170     1.0000 0.30744  0.88876  0.21895  Biso   1.000  H
  O86      1.0000 0.55841  0.11453  0.05512  Biso   1.000  O
  C291     1.0000 0.63890  0.10200  0.16560  Biso   1.000  C
  H171     1.0000 0.62513  0.07237  0.18004  Biso   1.000  H
  C292     1.0000 0.67930  0.12520  0.18890  Biso   1.000  C
  H172     1.0000 0.69256  0.11124  0.21895  Biso   1.000  H
  O87      1.0000 0.44159  0.11453  0.94488  Biso   1.000  O
  C293     1.0000 0.36110  0.10200  0.83440  Biso   1.000  C
  H173     1.0000 0.37487  0.07237  0.81996  Biso   1.000  H
  C294     1.0000 0.32070  0.12520  0.81110  Biso   1.000  C
  H174     1.0000 0.30744  0.11124  0.78105  Biso   1.000  H
  O88      1.0000 0.55841  0.88547  0.94488  Biso   1.000  O
  C295     1.0000 0.63890  0.89800  0.83440  Biso   1.000  C
  H175     1.0000 0.62513  0.92763  0.81996  Biso   1.000  H
  C296     1.0000 0.67930  0.87480  0.81110  Biso   1.000  C
  H176     1.0000 0.69256  0.88876  0.78105  Biso   1.000  H
  O89      1.0000 0.88547  0.94488  0.55841  Biso   1.000  O
  C297     1.0000 0.89800  0.83440  0.63890  Biso   1.000  C
  H177     1.0000 0.92763  0.81996  0.62513  Biso   1.000  H
  C298     1.0000 0.87480  0.81110  0.67930  Biso   1.000  C
  H178     1.0000 0.88876  0.78105  0.69256  Biso   1.000  H
  O90      1.0000 0.11453  0.94488  0.44159  Biso   1.000  O
  C299     1.0000 0.10200  0.83440  0.36110  Biso   1.000  C
  H179     1.0000 0.07237  0.81996  0.37487  Biso   1.000  H
  C300     1.0000 0.12520  0.81110  0.32070  Biso   1.000  C
  H180     1.0000 0.11124  0.78105  0.30744  Biso   1.000  H
  O91      1.0000 0.11453  0.05512  0.55841  Biso   1.000  O
  C301     1.0000 0.10200  0.16560  0.63890  Biso   1.000  C
  H181     1.0000 0.07237  0.18004  0.62513  Biso   1.000  H
  C302     1.0000 0.12520  0.18890  0.67930  Biso   1.000  C
  H182     1.0000 0.11124  0.21895  0.69256  Biso   1.000  H
  O92      1.0000 0.88547  0.05512  0.44159  Biso   1.000  O
  C303     1.0000 0.89800  0.16560  0.36110  Biso   1.000  C
  H183     1.0000 0.92763  0.18004  0.37487  Biso   1.000  H
  C304     1.0000 0.87480  0.18890  0.32070  Biso   1.000  C
  H184     1.0000 0.88876  0.21895  0.30744  Biso   1.000  H
  O93      1.0000 0.94488  0.44159  0.11453  Biso   1.000  O
  C305     1.0000 0.83440  0.36110  0.10200  Biso   1.000  C
  H185     1.0000 0.81996  0.37487  0.07237  Biso   1.000  H
  C306     1.0000 0.81110  0.32070  0.12520  Biso   1.000  C
  H186     1.0000 0.78105  0.30744  0.11124  Biso   1.000  H
  O94      1.0000 0.94488  0.55841  0.88547  Biso   1.000  O
  C307     1.0000 0.83440  0.63890  0.89800  Biso   1.000  C
  H187     1.0000 0.81996  0.62513  0.92763  Biso   1.000  H
  C308     1.0000 0.81110  0.67930  0.87480  Biso   1.000  C
  H188     1.0000 0.78105  0.69256  0.88876  Biso   1.000  H
  O95      1.0000 0.05512  0.44159  0.88547  Biso   1.000  O
  C309     1.0000 0.16560  0.36110  0.89800  Biso   1.000  C
  H189     1.0000 0.18004  0.37487  0.92763  Biso   1.000  H
  C310     1.0000 0.18890  0.32070  0.87480  Biso   1.000  C
  H190     1.0000 0.21895  0.30744  0.88876  Biso   1.000  H
  O96      1.0000 0.05512  0.55841  0.11453  Biso   1.000  O
  C311     1.0000 0.16560  0.63890  0.10200  Biso   1.000  C
  H191     1.0000 0.18004  0.62513  0.07237  Biso   1.000  H
  C312     1.0000 0.18890  0.67930  0.12520  Biso   1.000  C
  H192     1.0000 0.21895  0.69256  0.11124  Biso   1.000  H
  Mn13     1.0000 0.10644  0.50000  0.00000  Biso   1.000  Mn
  Mn14     1.0000 0.89356  0.50000  0.00000  Biso   1.000  Mn
  Mn15     1.0000 0.00000  0.10644  0.50000  Biso   1.000  Mn
  Mn16     1.0000 0.00000  0.89356  0.50000  Biso   1.000  Mn
  Mn17     1.0000 0.50000  0.00000  0.10644  Biso   1.000  Mn
  Mn18     1.0000 0.50000  0.00000  0.89356  Biso   1.000  Mn
  Mn19     1.0000 0.50000  0.10644  0.00000  Biso   1.000  Mn
  Mn20     1.0000 0.50000  0.89356  0.00000  Biso   1.000  Mn
  Mn21     1.0000 0.10644  0.00000  0.50000  Biso   1.000  Mn
  Mn22     1.0000 0.89356  0.00000  0.50000  Biso   1.000  Mn
  Mn23     1.0000 0.00000  0.50000  0.89356  Biso   1.000  Mn
  Mn24     1.0000 0.00000  0.50000  0.10644  Biso   1.000  Mn
  C313     1.0000 0.12115  0.61770  0.12115  Biso   1.000  C
  C314     1.0000 0.09514  0.57404  0.09514  Biso   1.000  C
  C315     1.0000 0.16880  0.70080  0.16880  Biso   1.000  C
  C316     1.0000 0.19290  0.74570  0.19290  Biso   1.000  C
  C317     1.0000 0.87885  0.38230  0.12115  Biso   1.000  C
  C318     1.0000 0.90486  0.42596  0.09514  Biso   1.000  C
  C319     1.0000 0.83120  0.29920  0.16880  Biso   1.000  C
  C320     1.0000 0.80710  0.25430  0.19290  Biso   1.000  C
  C321     1.0000 0.87885  0.61770  0.87885  Biso   1.000  C
  C322     1.0000 0.90486  0.57404  0.90486  Biso   1.000  C
  C323     1.0000 0.83120  0.70080  0.83120  Biso   1.000  C
  C324     1.0000 0.80710  0.74570  0.80710  Biso   1.000  C
  C325     1.0000 0.12115  0.38230  0.87885  Biso   1.000  C
  C326     1.0000 0.09514  0.42596  0.90486  Biso   1.000  C
  C327     1.0000 0.16880  0.29920  0.83120  Biso   1.000  C
  C328     1.0000 0.19290  0.25430  0.80710  Biso   1.000  C
  C329     1.0000 0.12115  0.12115  0.61770  Biso   1.000  C
  C330     1.0000 0.09514  0.09514  0.57404  Biso   1.000  C
  C331     1.0000 0.16880  0.16880  0.70080  Biso   1.000  C
  C332     1.0000 0.19290  0.19290  0.74570  Biso   1.000  C
  C333     1.0000 0.12115  0.87885  0.38230  Biso   1.000  C
  C334     1.0000 0.09514  0.90486  0.42596  Biso   1.000  C
  C335     1.0000 0.16880  0.83120  0.29920  Biso   1.000  C
  C336     1.0000 0.19290  0.80710  0.25430  Biso   1.000  C
  C337     1.0000 0.87885  0.87885  0.61770  Biso   1.000  C
  C338     1.0000 0.90486  0.90486  0.57404  Biso   1.000  C
  C339     1.0000 0.83120  0.83120  0.70080  Biso   1.000  C
  C340     1.0000 0.80710  0.80710  0.74570  Biso   1.000  C
  C341     1.0000 0.87885  0.12115  0.38230  Biso   1.000  C
  C342     1.0000 0.90486  0.09514  0.42596  Biso   1.000  C
  C343     1.0000 0.83120  0.16880  0.29920  Biso   1.000  C
  C344     1.0000 0.80710  0.19290  0.25430  Biso   1.000  C
  C345     1.0000 0.61770  0.12115  0.12115  Biso   1.000  C
  C346     1.0000 0.57404  0.09514  0.09514  Biso   1.000  C
  C347     1.0000 0.70080  0.16880  0.16880  Biso   1.000  C
  C348     1.0000 0.74570  0.19290  0.19290  Biso   1.000  C
  C349     1.0000 0.38230  0.12115  0.87885  Biso   1.000  C
  C350     1.0000 0.42596  0.09514  0.90486  Biso   1.000  C
  C351     1.0000 0.29920  0.16880  0.83120  Biso   1.000  C
  C352     1.0000 0.25430  0.19290  0.80710  Biso   1.000  C
  C353     1.0000 0.61770  0.87885  0.87885  Biso   1.000  C
  C354     1.0000 0.57404  0.90486  0.90486  Biso   1.000  C
  C355     1.0000 0.70080  0.83120  0.83120  Biso   1.000  C
  C356     1.0000 0.74570  0.80710  0.80710  Biso   1.000  C
  C357     1.0000 0.38230  0.87885  0.12115  Biso   1.000  C
  C358     1.0000 0.42596  0.90486  0.09514  Biso   1.000  C
  C359     1.0000 0.29920  0.83120  0.16880  Biso   1.000  C
  C360     1.0000 0.25430  0.80710  0.19290  Biso   1.000  C
  C361     1.0000 0.61770  0.12115  0.87885  Biso   1.000  C
  C362     1.0000 0.57404  0.09514  0.90486  Biso   1.000  C
  C363     1.0000 0.70080  0.16880  0.83120  Biso   1.000  C
  C364     1.0000 0.74570  0.19290  0.80710  Biso   1.000  C
  C365     1.0000 0.38230  0.87885  0.87885  Biso   1.000  C
  C366     1.0000 0.42596  0.90486  0.90486  Biso   1.000  C
  C367     1.0000 0.29920  0.83120  0.83120  Biso   1.000  C
  C368     1.0000 0.25430  0.80710  0.80710  Biso   1.000  C
  C369     1.0000 0.61770  0.87885  0.12115  Biso   1.000  C
  C370     1.0000 0.57404  0.90486  0.09514  Biso   1.000  C
  C371     1.0000 0.70080  0.83120  0.16880  Biso   1.000  C
  C372     1.0000 0.74570  0.80710  0.19290  Biso   1.000  C
  C373     1.0000 0.38230  0.12115  0.12115  Biso   1.000  C
  C374     1.0000 0.42596  0.09514  0.09514  Biso   1.000  C
  C375     1.0000 0.29920  0.16880  0.16880  Biso   1.000  C
  C376     1.0000 0.25430  0.19290  0.19290  Biso   1.000  C
  C377     1.0000 0.12115  0.12115  0.38230  Biso   1.000  C
  C378     1.0000 0.09514  0.09514  0.42596  Biso   1.000  C
  C379     1.0000 0.16880  0.16880  0.29920  Biso   1.000  C
  C380     1.0000 0.19290  0.19290  0.25430  Biso   1.000  C
  C381     1.0000 0.87885  0.12115  0.61770  Biso   1.000  C
  C382     1.0000 0.90486  0.09514  0.57404  Biso   1.000  C
  C383     1.0000 0.83120  0.16880  0.70080  Biso   1.000  C
  C384     1.0000 0.80710  0.19290  0.74570  Biso   1.000  C
  C385     1.0000 0.87885  0.87885  0.38230  Biso   1.000  C
  C386     1.0000 0.90486  0.90486  0.42596  Biso   1.000  C
  C387     1.0000 0.83120  0.83120  0.29920  Biso   1.000  C
  C388     1.0000 0.80710  0.80710  0.25430  Biso   1.000  C
  C389     1.0000 0.12115  0.87885  0.61770  Biso   1.000  C
  C390     1.0000 0.09514  0.90486  0.57404  Biso   1.000  C
  C391     1.0000 0.16880  0.83120  0.70080  Biso   1.000  C
  C392     1.0000 0.19290  0.80710  0.74570  Biso   1.000  C
  C393     1.0000 0.12115  0.61770  0.87885  Biso   1.000  C
  C394     1.0000 0.09514  0.57404  0.90486  Biso   1.000  C
  C395     1.0000 0.16880  0.70080  0.83120  Biso   1.000  C
  C396     1.0000 0.19290  0.74570  0.80710  Biso   1.000  C
  C397     1.0000 0.12115  0.38230  0.12115  Biso   1.000  C
  C398     1.0000 0.09514  0.42596  0.09514  Biso   1.000  C
  C399     1.0000 0.16880  0.29920  0.16880  Biso   1.000  C
  C400     1.0000 0.19290  0.25430  0.19290  Biso   1.000  C
  C401     1.0000 0.87885  0.61770  0.12115  Biso   1.000  C
  C402     1.0000 0.90486  0.57404  0.09514  Biso   1.000  C
  C403     1.0000 0.83120  0.70080  0.16880  Biso   1.000  C
  C404     1.0000 0.80710  0.74570  0.19290  Biso   1.000  C
  C405     1.0000 0.87885  0.38230  0.87885  Biso   1.000  C
  C406     1.0000 0.90486  0.42596  0.90486  Biso   1.000  C
  C407     1.0000 0.83120  0.29920  0.83120  Biso   1.000  C
  C408     1.0000 0.80710  0.25430  0.80710  Biso   1.000  C
  C409     1.0000 0.23457  0.76543  0.17040  Biso   1.000  C
  C410     1.0000 0.76543  0.23457  0.17040  Biso   1.000  C
  C411     1.0000 0.76543  0.76543  0.82960  Biso   1.000  C
  C412     1.0000 0.23457  0.23457  0.82960  Biso   1.000  C
  C413     1.0000 0.17040  0.23457  0.76543  Biso   1.000  C
  C414     1.0000 0.17040  0.76543  0.23457  Biso   1.000  C
  C415     1.0000 0.82960  0.76543  0.76543  Biso   1.000  C
  C416     1.0000 0.82960  0.23457  0.23457  Biso   1.000  C
  C417     1.0000 0.76543  0.17040  0.23457  Biso   1.000  C
  C418     1.0000 0.23457  0.17040  0.76543  Biso   1.000  C
  C419     1.0000 0.76543  0.82960  0.76543  Biso   1.000  C
  C420     1.0000 0.23457  0.82960  0.23457  Biso   1.000  C
  C421     1.0000 0.76543  0.23457  0.82960  Biso   1.000  C
  C422     1.0000 0.23457  0.76543  0.82960  Biso   1.000  C
  C423     1.0000 0.76543  0.76543  0.17040  Biso   1.000  C
  C424     1.0000 0.23457  0.23457  0.17040  Biso   1.000  C
  C425     1.0000 0.23457  0.17040  0.23457  Biso   1.000  C
  C426     1.0000 0.76543  0.17040  0.76543  Biso   1.000  C
  C427     1.0000 0.76543  0.82960  0.23457  Biso   1.000  C
  C428     1.0000 0.23457  0.82960  0.76543  Biso   1.000  C
  C429     1.0000 0.17040  0.76543  0.76543  Biso   1.000  C
  C430     1.0000 0.17040  0.23457  0.23457  Biso   1.000  C
  C431     1.0000 0.82960  0.76543  0.23457  Biso   1.000  C
  C432     1.0000 0.82960  0.23457  0.76543  Biso   1.000  C
