data_image0
_cell_length_a       18.4059
_cell_length_b       18.7645
_cell_length_c       34.5211
_cell_angle_alpha    90
_cell_angle_beta     90
_cell_angle_gamma    90

_symmetry_space_group_name_H-M    "P 1"
_symmetry_int_tables_number       1

loop_
  _symmetry_equiv_pos_as_xyz
  'x, y, z'

loop_
  _atom_site_label
  _atom_site_occupancy
  _atom_site_fract_x
  _atom_site_fract_y
  _atom_site_fract_z
  _atom_site_thermal_displace_type
  _atom_site_B_iso_or_equiv
  _atom_site_type_symbol
  Cu1      1.0000 0.88221  0.27105  0.96863  Biso   1.000  Cu
  Cu2      1.0000 0.61843  0.22853  0.53168  Biso   1.000  Cu
  Cu3      1.0000 0.54518  0.28958  0.47455  Biso   1.000  Cu
  Cu4      1.0000 0.95555  0.21061  0.02575  Biso   1.000  Cu
  O1       1.0000 0.85710  0.18850  0.04790  Biso   1.000  O
  O2       1.0000 0.55800  0.87700  0.49350  Biso   1.000  O
  O3       1.0000 0.37420  0.82670  0.94536  Biso   1.000  O
  O4       1.0000 0.13570  0.18960  0.55020  Biso   1.000  O
  O5       1.0000 0.45220  0.19490  0.95070  Biso   1.000  O
  O6       1.0000 0.20450  0.24570  0.50195  Biso   1.000  O
  O7       1.0000 0.44690  0.87230  0.99283  Biso   1.000  O
  O8       1.0000 0.55160  0.19680  0.44766  Biso   1.000  O
  O9       1.0000 0.47770  0.21390  0.05517  Biso   1.000  O
  O10      1.0000 0.46310  0.25700  0.50574  Biso   1.000  O
  O11      1.0000 0.40130  0.14070  0.00095  Biso   1.000  O
  O12      1.0000 0.80530  0.25080  0.00361  Biso   1.000  O
  O13      1.0000 0.62030  0.82380  0.44690  Biso   1.000  O
  O14      1.0000 0.60310  0.14290  0.50090  Biso   1.000  O
  O15      1.0000 0.52450  0.21860  0.55738  Biso   1.000  O
  O16      1.0000 0.53970  0.25880  0.00455  Biso   1.000  O
  C1       1.0000 0.46770  0.22590  0.53770  Biso   1.000  C
  C2       1.0000 0.71300  0.06550  0.15790  Biso   1.000  C
  H1       1.0000 0.74090  0.04650  0.13790  Biso   1.000  H
  C3       1.0000 0.61980  0.11280  0.21540  Biso   1.000  C
  C4       1.0000 0.73570  0.20000  0.05420  Biso   1.000  C
  C5       1.0000 0.41170  0.07450  0.94430  Biso   1.000  C
  C6       1.0000 0.42500  0.13100  0.74970  Biso   1.000  C
  C7       1.0000 0.39550  0.17820  0.59520  Biso   1.000  C
  H2       1.0000 0.43870  0.17390  0.60900  Biso   1.000  H
  C8       1.0000 0.39560  0.21240  0.55590  Biso   1.000  C
  C9       1.0000 0.67120  0.22150  0.03760  Biso   1.000  C
  H3       1.0000 0.67070  0.24390  0.01360  Biso   1.000  H
  C10      1.0000 0.67140  0.15930  0.11180  Biso   1.000  C
  C11      1.0000 0.58940  0.94900  0.44200  Biso   1.000  C
  C12      1.0000 0.66900  0.05790  0.22420  Biso   1.000  C
  C13      1.0000 0.60690  0.01850  0.38390  Biso   1.000  C
  C14      1.0000 0.67000  0.12780  0.15000  Biso   1.000  C
  C15      1.0000 0.41260  0.87490  0.96150  Biso   1.000  C
  C16      1.0000 0.57940  0.06950  0.31610  Biso   1.000  C
  H4       1.0000 0.54140  0.09700  0.32570  Biso   1.000  H
  C17      1.0000 0.71510  0.03070  0.19540  Biso   1.000  C
  H5       1.0000 0.74560  0.99220  0.20010  Biso   1.000  H
  C18      1.0000 0.41010  0.00910  0.96310  Biso   1.000  C
  H6       1.0000 0.41450  0.00750  0.98990  Biso   1.000  H
  C19      1.0000 0.39720  0.07860  0.77890  Biso   1.000  C
  C20      1.0000 0.33890  0.03370  0.76320  Biso   1.000  C
  C21      1.0000 0.61340  0.01790  0.33880  Biso   1.000  C
  C22      1.0000 0.80620  0.21490  0.03510  Biso   1.000  C
  C23      1.0000 0.26770  0.20150  0.55560  Biso   1.000  C
  C24      1.0000 0.57590  0.00890  0.46240  Biso   1.000  C
  H7       1.0000 0.56540  0.00600  0.48870  Biso   1.000  H
  C25      1.0000 0.33640  0.05440  0.72050  Biso   1.000  C
  C26      1.0000 0.33420  0.15410  0.61030  Biso   1.000  C
  C27      1.0000 0.60400  0.07770  0.27980  Biso   1.000  C
  C28      1.0000 0.69150  0.98240  0.28420  Biso   1.000  C
  H8       1.0000 0.72650  0.95320  0.27310  Biso   1.000  H
  C29      1.0000 0.40200  0.94510  0.94220  Biso   1.000  C
  C30      1.0000 0.37900  0.14430  0.67930  Biso   1.000  C
  H9       1.0000 0.40820  0.18380  0.67440  Biso   1.000  H
  C31      1.0000 0.62140  0.14800  0.17800  Biso   1.000  C
  H10      1.0000 0.58890  0.18480  0.17290  Biso   1.000  H
  C32      1.0000 0.39720  0.01140  0.88180  Biso   1.000  C
  C33      1.0000 0.60420  0.95180  0.40150  Biso   1.000  C
  H11      1.0000 0.61180  0.91030  0.38720  Biso   1.000  H
  C34      1.0000 0.59620  0.07880  0.40380  Biso   1.000  C
  H12      1.0000 0.60080  0.12260  0.39140  Biso   1.000  H
  C35      1.0000 0.33360  0.22420  0.53830  Biso   1.000  C
  H13      1.0000 0.33290  0.24750  0.51450  Biso   1.000  H
  C36      1.0000 0.26570  0.16920  0.59070  Biso   1.000  C
  H14      1.0000 0.22160  0.15700  0.60200  Biso   1.000  H
  C37      1.0000 0.19560  0.21180  0.53270  Biso   1.000  C
  C38      1.0000 0.28720  0.03070  0.69180  Biso   1.000  C
  H15      1.0000 0.25580  0.99320  0.69720  Biso   1.000  H
  C39      1.0000 0.33350  0.11590  0.64930  Biso   1.000  C
  C40      1.0000 0.57960  0.21020  0.26330  Biso   1.000  C
  H16      1.0000 0.55790  0.24090  0.24390  Biso   1.000  H
  H17      1.0000 0.55130  0.21570  0.28690  Biso   1.000  H
  C41      1.0000 0.41550  0.20990  0.76150  Biso   1.000  C
  H18      1.0000 0.44660  0.21820  0.78370  Biso   1.000  H
  H19      1.0000 0.43460  0.23860  0.74040  Biso   1.000  H
  C42      1.0000 0.42500  0.14110  0.96650  Biso   1.000  C
  C43      1.0000 0.60260  0.20810  0.05890  Biso   1.000  C
  C44      1.0000 0.60460  0.17870  0.09250  Biso   1.000  C
  H20      1.0000 0.56090  0.16940  0.10500  Biso   1.000  H
  C45      1.0000 0.67370  0.97950  0.32430  Biso   1.000  C
  H21      1.0000 0.70180  0.95210  0.34110  Biso   1.000  H
  C46      1.0000 0.41160  0.07770  0.90430  Biso   1.000  C
  H22      1.0000 0.42030  0.12050  0.89160  Biso   1.000  H
  C47      1.0000 0.64980  0.03560  0.26160  Biso   1.000  C
  C48      1.0000 0.28530  0.06180  0.65690  Biso   1.000  C
  H23      1.0000 0.25210  0.04710  0.63820  Biso   1.000  H
  C49      1.0000 0.32710  0.97220  0.82260  Biso   1.000  C
  H24      1.0000 0.30740  0.93410  0.83630  Biso   1.000  H
  C50      1.0000 0.39010  0.94920  0.90290  Biso   1.000  C
  H25      1.0000 0.37650  0.90790  0.88980  Biso   1.000  H
  C51      1.0000 0.41030  0.07170  0.81900  Biso   1.000  C
  H26      1.0000 0.44290  0.10300  0.83060  Biso   1.000  H
  C52      1.0000 0.57090  0.13220  0.24940  Biso   1.000  C
  C53      1.0000 0.37720  0.02110  0.84160  Biso   1.000  C
  C54      1.0000 0.57800  0.14370  0.46610  Biso   1.000  C
  C55      1.0000 0.49010  0.12300  0.24140  Biso   1.000  C
  H27      1.0000 0.46250  0.13840  0.26380  Biso   1.000  H
  H28      1.0000 0.47630  0.15280  0.21960  Biso   1.000  H
  C56      1.0000 0.50580  0.11610  0.74220  Biso   1.000  C
  H29      1.0000 0.53100  0.12700  0.76620  Biso   1.000  H
  H30      1.0000 0.52160  0.15120  0.72340  Biso   1.000  H
  C57      1.0000 0.37960  0.11500  0.71330  Biso   1.000  C
  C58      1.0000 0.53560  0.23270  0.03880  Biso   1.000  C
  C59      1.0000 0.57750  0.07600  0.44410  Biso   1.000  C
  C60      1.0000 0.30930  0.98250  0.78480  Biso   1.000  C
  H31      1.0000 0.27500  0.95260  0.77360  Biso   1.000  H
  C61      1.0000 0.47160  0.04590  0.23230  Biso   1.000  C
  H32      1.0000 0.51410  0.01910  0.24140  Biso   1.000  H
  C62      1.0000 0.53570  0.04420  0.72830  Biso   1.000  C
  H33      1.0000 0.50400  0.00300  0.73290  Biso   1.000  H
  C63      1.0000 0.59280  0.87750  0.46260  Biso   1.000  C
  C64      1.0000 0.61340  0.03760  0.74480  Biso   1.000  C
  H34      1.0000 0.63680  0.08390  0.74530  Biso   1.000  H
  H35      1.0000 0.64230  0.00590  0.72880  Biso   1.000  H
  C65      1.0000 0.56240  0.05290  0.68680  Biso   1.000  C
  H36      1.0000 0.58140  0.00830  0.67770  Biso   1.000  H
  H37      1.0000 0.52280  0.06760  0.67060  Biso   1.000  H
  H38      1.0000 0.60000  0.08840  0.68610  Biso   1.000  H
  C66      1.0000 0.40890  0.01270  0.25360  Biso   1.000  C
  H39      1.0000 0.41250  0.02360  0.28070  Biso   1.000  H
  H40      1.0000 0.36410  0.03140  0.24360  Biso   1.000  H
  H41      1.0000 0.40990  0.96200  0.25010  Biso   1.000  H
  C67      1.0000 0.46900  0.03070  0.18950  Biso   1.000  C
  H42      1.0000 0.51600  0.00900  0.18470  Biso   1.000  H
  H43      1.0000 0.43450  0.99170  0.18790  Biso   1.000  H
  C68      1.0000 0.30160  0.20220  0.80420  Biso   1.000  C
  H44      1.0000 0.25430  0.22500  0.80390  Biso   1.000  H
  H45      1.0000 0.32560  0.22060  0.82710  Biso   1.000  H
  C69      1.0000 0.30820  0.24040  0.73100  Biso   1.000  C
  C70      1.0000 0.65610  0.23810  0.27150  Biso   1.000  C
  H46      1.0000 0.68870  0.21770  0.25200  Biso   1.000  H
  C71      1.0000 0.68850  0.22220  0.31130  Biso   1.000  C
  H47      1.0000 0.69580  0.17130  0.31420  Biso   1.000  H
  H48      1.0000 0.73530  0.24550  0.31380  Biso   1.000  H
  C72      1.0000 0.65760  0.32020  0.26680  Biso   1.000  C
  H49      1.0000 0.63770  0.33280  0.24200  Biso   1.000  H
  H50      1.0000 0.62930  0.34180  0.28690  Biso   1.000  H
  H51      1.0000 0.70690  0.33680  0.26840  Biso   1.000  H
  C73      1.0000 0.63840  0.24850  0.34190  Biso   1.000  C
  H52      1.0000 0.65870  0.23850  0.36690  Biso   1.000  H
  H53      1.0000 0.63170  0.29890  0.33910  Biso   1.000  H
  H54      1.0000 0.59230  0.22490  0.33950  Biso   1.000  H
  C74      1.0000 0.60670  0.00730  0.78650  Biso   1.000  C
  H55      1.0000 0.65420  0.00250  0.79770  Biso   1.000  H
  H56      1.0000 0.57810  0.03920  0.80210  Biso   1.000  H
  H57      1.0000 0.58350  0.96140  0.78560  Biso   1.000  H
  C75      1.0000 0.45520  0.07040  0.15280  Biso   1.000  C
  H58      1.0000 0.45920  0.03840  0.13120  Biso   1.000  H
  H59      1.0000 0.40720  0.09040  0.15350  Biso   1.000  H
  H60      1.0000 0.49020  0.10800  0.15020  Biso   1.000  H
  C76      1.0000 0.28340  0.12460  0.81570  Biso   1.000  C
  H61      1.0000 0.25620  0.12450  0.83940  Biso   1.000  H
  H62      1.0000 0.25520  0.10280  0.79550  Biso   1.000  H
  H63      1.0000 0.32770  0.09830  0.81920  Biso   1.000  H
  C77      1.0000 0.34170  0.23920  0.77130  Biso   1.000  C
  H64      1.0000 0.34870  0.28890  0.77920  Biso   1.000  H
  C78      1.0000 0.73380  0.16540  0.09200  Biso   1.000  C
  H65      1.0000 0.77650  0.14740  0.10260  Biso   1.000  H
  Cu5      1.0000 0.61779  0.72895  0.46863  Biso   1.000  Cu
  Cu6      1.0000 0.88157  0.77147  0.03168  Biso   1.000  Cu
  Cu7      1.0000 0.95482  0.71042  0.97455  Biso   1.000  Cu
  Cu8      1.0000 0.54445  0.78939  0.52575  Biso   1.000  Cu
  O17      1.0000 0.64290  0.81150  0.54790  Biso   1.000  O
  O18      1.0000 0.94200  0.12300  0.99350  Biso   1.000  O
  O19      1.0000 0.12580  0.17330  0.44536  Biso   1.000  O
  O20      1.0000 0.36430  0.81040  0.05020  Biso   1.000  O
  O21      1.0000 0.04780  0.80510  0.45070  Biso   1.000  O
  O22      1.0000 0.29550  0.75430  0.00195  Biso   1.000  O
  O23      1.0000 0.05310  0.12770  0.49283  Biso   1.000  O
  O24      1.0000 0.94840  0.80320  0.94766  Biso   1.000  O
  O25      1.0000 0.02230  0.78610  0.55517  Biso   1.000  O
  O26      1.0000 0.03690  0.74300  0.00574  Biso   1.000  O
  O27      1.0000 0.09870  0.85930  0.50095  Biso   1.000  O
  O28      1.0000 0.69470  0.74920  0.50361  Biso   1.000  O
  O29      1.0000 0.87970  0.17620  0.94690  Biso   1.000  O
  O30      1.0000 0.89690  0.85710  0.00090  Biso   1.000  O
  O31      1.0000 0.97550  0.78140  0.05738  Biso   1.000  O
  O32      1.0000 0.96030  0.74120  0.50455  Biso   1.000  O
  C79      1.0000 0.03230  0.77410  0.03770  Biso   1.000  C
  C80      1.0000 0.78700  0.93450  0.65790  Biso   1.000  C
  H66      1.0000 0.75910  0.95350  0.63790  Biso   1.000  H
  C81      1.0000 0.88020  0.88720  0.71540  Biso   1.000  C
  C82      1.0000 0.76430  0.80000  0.55420  Biso   1.000  C
  C83      1.0000 0.08830  0.92550  0.44430  Biso   1.000  C
  C84      1.0000 0.07500  0.86900  0.24970  Biso   1.000  C
  C85      1.0000 0.10450  0.82180  0.09520  Biso   1.000  C
  H67      1.0000 0.06130  0.82610  0.10900  Biso   1.000  H
  C86      1.0000 0.10440  0.78760  0.05590  Biso   1.000  C
  C87      1.0000 0.82880  0.77850  0.53760  Biso   1.000  C
  H68      1.0000 0.82930  0.75610  0.51360  Biso   1.000  H
  C88      1.0000 0.82860  0.84070  0.61180  Biso   1.000  C
  C89      1.0000 0.91060  0.05100  0.94200  Biso   1.000  C
  C90      1.0000 0.83100  0.94210  0.72420  Biso   1.000  C
  C91      1.0000 0.89310  0.98150  0.88390  Biso   1.000  C
  C92      1.0000 0.83000  0.87220  0.65000  Biso   1.000  C
  C93      1.0000 0.08740  0.12510  0.46150  Biso   1.000  C
  C94      1.0000 0.92060  0.93050  0.81610  Biso   1.000  C
  H69      1.0000 0.95860  0.90300  0.82570  Biso   1.000  H
  C95      1.0000 0.78490  0.96930  0.69540  Biso   1.000  C
  H70      1.0000 0.75440  0.00780  0.70010  Biso   1.000  H
  C96      1.0000 0.08990  0.99090  0.46310  Biso   1.000  C
  H71      1.0000 0.08550  0.99250  0.48990  Biso   1.000  H
  C97      1.0000 0.10280  0.92140  0.27890  Biso   1.000  C
  C98      1.0000 0.16110  0.96630  0.26320  Biso   1.000  C
  C99      1.0000 0.88660  0.98210  0.83880  Biso   1.000  C
  C100     1.0000 0.69380  0.78510  0.53510  Biso   1.000  C
  C101     1.0000 0.23230  0.79850  0.05560  Biso   1.000  C
  C102     1.0000 0.92410  0.99110  0.96240  Biso   1.000  C
  H72      1.0000 0.93460  0.99400  0.98870  Biso   1.000  H
  C103     1.0000 0.16360  0.94560  0.22050  Biso   1.000  C
  C104     1.0000 0.16580  0.84590  0.11030  Biso   1.000  C
  C105     1.0000 0.89600  0.92230  0.77980  Biso   1.000  C
  C106     1.0000 0.80850  0.01760  0.78420  Biso   1.000  C
  H73      1.0000 0.77350  0.04680  0.77310  Biso   1.000  H
  C107     1.0000 0.09800  0.05490  0.44220  Biso   1.000  C
  C108     1.0000 0.12100  0.85570  0.17930  Biso   1.000  C
  H74      1.0000 0.09180  0.81620  0.17440  Biso   1.000  H
  C109     1.0000 0.87860  0.85200  0.67800  Biso   1.000  C
  H75      1.0000 0.91110  0.81520  0.67290  Biso   1.000  H
  C110     1.0000 0.10280  0.98860  0.38180  Biso   1.000  C
  C111     1.0000 0.89580  0.04820  0.90150  Biso   1.000  C
  H76      1.0000 0.88820  0.08970  0.88720  Biso   1.000  H
  C112     1.0000 0.90380  0.92120  0.90380  Biso   1.000  C
  H77      1.0000 0.89920  0.87740  0.89140  Biso   1.000  H
  C113     1.0000 0.16640  0.77580  0.03830  Biso   1.000  C
  H78      1.0000 0.16710  0.75250  0.01450  Biso   1.000  H
  C114     1.0000 0.23430  0.83080  0.09070  Biso   1.000  C
  H79      1.0000 0.27840  0.84300  0.10200  Biso   1.000  H
  C115     1.0000 0.30440  0.78820  0.03270  Biso   1.000  C
  C116     1.0000 0.21280  0.96930  0.19180  Biso   1.000  C
  H80      1.0000 0.24420  0.00680  0.19720  Biso   1.000  H
  C117     1.0000 0.16650  0.88410  0.14930  Biso   1.000  C
  C118     1.0000 0.92040  0.78980  0.76330  Biso   1.000  C
  H81      1.0000 0.94210  0.75910  0.74390  Biso   1.000  H
  H82      1.0000 0.94870  0.78430  0.78690  Biso   1.000  H
  C119     1.0000 0.08450  0.79010  0.26150  Biso   1.000  C
  H83      1.0000 0.05340  0.78180  0.28370  Biso   1.000  H
  H84      1.0000 0.06540  0.76140  0.24040  Biso   1.000  H
  C120     1.0000 0.07500  0.85890  0.46650  Biso   1.000  C
  C121     1.0000 0.89740  0.79190  0.55890  Biso   1.000  C
  C122     1.0000 0.89540  0.82130  0.59250  Biso   1.000  C
  H85      1.0000 0.93910  0.83060  0.60500  Biso   1.000  H
  C123     1.0000 0.82630  0.02050  0.82430  Biso   1.000  C
  H86      1.0000 0.79820  0.04790  0.84110  Biso   1.000  H
  C124     1.0000 0.08840  0.92230  0.40430  Biso   1.000  C
  H87      1.0000 0.07970  0.87950  0.39160  Biso   1.000  H
  C125     1.0000 0.85020  0.96440  0.76160  Biso   1.000  C
  C126     1.0000 0.21470  0.93820  0.15690  Biso   1.000  C
  H88      1.0000 0.24790  0.95290  0.13820  Biso   1.000  H
  C127     1.0000 0.17290  0.02780  0.32260  Biso   1.000  C
  H89      1.0000 0.19260  0.06590  0.33630  Biso   1.000  H
  C128     1.0000 0.10990  0.05080  0.40290  Biso   1.000  C
  H90      1.0000 0.12350  0.09210  0.38980  Biso   1.000  H
  C129     1.0000 0.08970  0.92830  0.31900  Biso   1.000  C
  H91      1.0000 0.05710  0.89700  0.33060  Biso   1.000  H
  C130     1.0000 0.92910  0.86780  0.74940  Biso   1.000  C
  C131     1.0000 0.12280  0.97890  0.34160  Biso   1.000  C
  C132     1.0000 0.92200  0.85630  0.96610  Biso   1.000  C
  C133     1.0000 0.00990  0.87700  0.74140  Biso   1.000  C
  H92      1.0000 0.03750  0.86160  0.76380  Biso   1.000  H
  H93      1.0000 0.02370  0.84720  0.71960  Biso   1.000  H
  C134     1.0000 0.99420  0.88390  0.24220  Biso   1.000  C
  H94      1.0000 0.96900  0.87300  0.26620  Biso   1.000  H
  H95      1.0000 0.97840  0.84880  0.22340  Biso   1.000  H
  C135     1.0000 0.12040  0.88500  0.21330  Biso   1.000  C
  C136     1.0000 0.96440  0.76730  0.53880  Biso   1.000  C
  C137     1.0000 0.92250  0.92400  0.94410  Biso   1.000  C
  C138     1.0000 0.19070  0.01750  0.28480  Biso   1.000  C
  H96      1.0000 0.22500  0.04740  0.27360  Biso   1.000  H
  C139     1.0000 0.02840  0.95410  0.73230  Biso   1.000  C
  H97      1.0000 0.98590  0.98090  0.74140  Biso   1.000  H
  C140     1.0000 0.96430  0.95580  0.22830  Biso   1.000  C
  H98      1.0000 0.99600  0.99700  0.23290  Biso   1.000  H
  C141     1.0000 0.90720  0.12250  0.96260  Biso   1.000  C
  C142     1.0000 0.88660  0.96240  0.24480  Biso   1.000  C
  H99      1.0000 0.86320  0.91610  0.24530  Biso   1.000  H
  H100     1.0000 0.85770  0.99410  0.22880  Biso   1.000  H
  C143     1.0000 0.93760  0.94710  0.18680  Biso   1.000  C
  H101     1.0000 0.91860  0.99170  0.17770  Biso   1.000  H
  H102     1.0000 0.97720  0.93240  0.17060  Biso   1.000  H
  H103     1.0000 0.90000  0.91160  0.18610  Biso   1.000  H
  C144     1.0000 0.09110  0.98730  0.75360  Biso   1.000  C
  H104     1.0000 0.08750  0.97640  0.78070  Biso   1.000  H
  H105     1.0000 0.13590  0.96860  0.74360  Biso   1.000  H
  H106     1.0000 0.09010  0.03800  0.75010  Biso   1.000  H
  C145     1.0000 0.03100  0.96930  0.68950  Biso   1.000  C
  H107     1.0000 0.98400  0.99100  0.68470  Biso   1.000  H
  H108     1.0000 0.06550  0.00830  0.68790  Biso   1.000  H
  C146     1.0000 0.19840  0.79780  0.30420  Biso   1.000  C
  H109     1.0000 0.24570  0.77500  0.30390  Biso   1.000  H
  H110     1.0000 0.17440  0.77940  0.32710  Biso   1.000  H
  C147     1.0000 0.19180  0.75960  0.23100  Biso   1.000  C
  C148     1.0000 0.84390  0.76190  0.77150  Biso   1.000  C
  H111     1.0000 0.81130  0.78230  0.75200  Biso   1.000  H
  C149     1.0000 0.81150  0.77780  0.81130  Biso   1.000  C
  H112     1.0000 0.80420  0.82870  0.81420  Biso   1.000  H
  H113     1.0000 0.76470  0.75450  0.81380  Biso   1.000  H
  C150     1.0000 0.84240  0.67980  0.76680  Biso   1.000  C
  H114     1.0000 0.86230  0.66720  0.74200  Biso   1.000  H
  H115     1.0000 0.87070  0.65820  0.78690  Biso   1.000  H
  H116     1.0000 0.79310  0.66320  0.76840  Biso   1.000  H
  C151     1.0000 0.86160  0.75150  0.84190  Biso   1.000  C
  H117     1.0000 0.84130  0.76150  0.86690  Biso   1.000  H
  H118     1.0000 0.86830  0.70110  0.83910  Biso   1.000  H
  H119     1.0000 0.90770  0.77510  0.83950  Biso   1.000  H
  C152     1.0000 0.89330  0.99270  0.28650  Biso   1.000  C
  H120     1.0000 0.84580  0.99750  0.29770  Biso   1.000  H
  H121     1.0000 0.92190  0.96080  0.30210  Biso   1.000  H
  H122     1.0000 0.91650  0.03860  0.28560  Biso   1.000  H
  C153     1.0000 0.04480  0.92960  0.65280  Biso   1.000  C
  H123     1.0000 0.04080  0.96160  0.63120  Biso   1.000  H
  H124     1.0000 0.09280  0.90960  0.65350  Biso   1.000  H
  H125     1.0000 0.00980  0.89200  0.65020  Biso   1.000  H
  C154     1.0000 0.21660  0.87540  0.31570  Biso   1.000  C
  H126     1.0000 0.24380  0.87550  0.33940  Biso   1.000  H
  H127     1.0000 0.24480  0.89720  0.29550  Biso   1.000  H
  H128     1.0000 0.17230  0.90170  0.31920  Biso   1.000  H
  C155     1.0000 0.15830  0.76080  0.27130  Biso   1.000  C
  H129     1.0000 0.15130  0.71110  0.27920  Biso   1.000  H
  C156     1.0000 0.76620  0.83460  0.59200  Biso   1.000  C
  H130     1.0000 0.72350  0.85260  0.60260  Biso   1.000  H
  Cu9      1.0000 0.11779  0.77105  0.53137  Biso   1.000  Cu
  Cu10     1.0000 0.38157  0.72853  0.96832  Biso   1.000  Cu
  Cu11     1.0000 0.45482  0.78958  0.02545  Biso   1.000  Cu
  Cu12     1.0000 0.04445  0.71061  0.47425  Biso   1.000  Cu
  O33      1.0000 0.14290  0.68850  0.45210  Biso   1.000  O
  O34      1.0000 0.44200  0.37700  0.00650  Biso   1.000  O
  O35      1.0000 0.62580  0.32670  0.55464  Biso   1.000  O
  O36      1.0000 0.86430  0.68960  0.94980  Biso   1.000  O
  O37      1.0000 0.54780  0.69490  0.54930  Biso   1.000  O
  O38      1.0000 0.79550  0.74570  0.99805  Biso   1.000  O
  O39      1.0000 0.55310  0.37230  0.50717  Biso   1.000  O
  O40      1.0000 0.44840  0.69680  0.05234  Biso   1.000  O
  O41      1.0000 0.52230  0.71390  0.44483  Biso   1.000  O
  O42      1.0000 0.53690  0.75700  0.99426  Biso   1.000  O
  O43      1.0000 0.59870  0.64070  0.49905  Biso   1.000  O
  O44      1.0000 0.19470  0.75080  0.49639  Biso   1.000  O
  O45      1.0000 0.37970  0.32380  0.05310  Biso   1.000  O
  O46      1.0000 0.39690  0.64290  0.99910  Biso   1.000  O
  O47      1.0000 0.47550  0.71860  0.94262  Biso   1.000  O
  O48      1.0000 0.46030  0.75880  0.49545  Biso   1.000  O
  C157     1.0000 0.53230  0.72590  0.96230  Biso   1.000  C
  C158     1.0000 0.28700  0.56550  0.34210  Biso   1.000  C
  H131     1.0000 0.25910  0.54650  0.36210  Biso   1.000  H
  C159     1.0000 0.38020  0.61280  0.28460  Biso   1.000  C
  C160     1.0000 0.26430  0.70000  0.44580  Biso   1.000  C
  C161     1.0000 0.58830  0.57450  0.55570  Biso   1.000  C
  C162     1.0000 0.57500  0.63100  0.75030  Biso   1.000  C
  C163     1.0000 0.60450  0.67820  0.90480  Biso   1.000  C
  H132     1.0000 0.56130  0.67390  0.89100  Biso   1.000  H
  C164     1.0000 0.60440  0.71240  0.94410  Biso   1.000  C
  C165     1.0000 0.32880  0.72150  0.46240  Biso   1.000  C
  H133     1.0000 0.32930  0.74390  0.48640  Biso   1.000  H
  C166     1.0000 0.32860  0.65930  0.38820  Biso   1.000  C
  C167     1.0000 0.41060  0.44900  0.05800  Biso   1.000  C
  C168     1.0000 0.33100  0.55790  0.27580  Biso   1.000  C
  C169     1.0000 0.39310  0.51850  0.11610  Biso   1.000  C
  C170     1.0000 0.33000  0.62780  0.35000  Biso   1.000  C
  C171     1.0000 0.58740  0.37490  0.53850  Biso   1.000  C
  C172     1.0000 0.42060  0.56950  0.18390  Biso   1.000  C
  H134     1.0000 0.45860  0.59700  0.17430  Biso   1.000  H
  C173     1.0000 0.28490  0.53070  0.30460  Biso   1.000  C
  H135     1.0000 0.25440  0.49220  0.29990  Biso   1.000  H
  C174     1.0000 0.58990  0.50910  0.53690  Biso   1.000  C
  H136     1.0000 0.58550  0.50750  0.51010  Biso   1.000  H
  C175     1.0000 0.60280  0.57860  0.72110  Biso   1.000  C
  C176     1.0000 0.66110  0.53370  0.73680  Biso   1.000  C
  C177     1.0000 0.38660  0.51790  0.16120  Biso   1.000  C
  C178     1.0000 0.19380  0.71490  0.46490  Biso   1.000  C
  C179     1.0000 0.73230  0.70150  0.94440  Biso   1.000  C
  C180     1.0000 0.42410  0.50890  0.03760  Biso   1.000  C
  H137     1.0000 0.43460  0.50600  0.01130  Biso   1.000  H
  C181     1.0000 0.66360  0.55440  0.77950  Biso   1.000  C
  C182     1.0000 0.66580  0.65410  0.88970  Biso   1.000  C
  C183     1.0000 0.39600  0.57770  0.22020  Biso   1.000  C
  C184     1.0000 0.30850  0.48240  0.21580  Biso   1.000  C
  H138     1.0000 0.27350  0.45320  0.22690  Biso   1.000  H
  C185     1.0000 0.59800  0.44510  0.55780  Biso   1.000  C
  C186     1.0000 0.62100  0.64430  0.82070  Biso   1.000  C
  H139     1.0000 0.59180  0.68380  0.82560  Biso   1.000  H
  C187     1.0000 0.37860  0.64800  0.32200  Biso   1.000  C
  H140     1.0000 0.41110  0.68480  0.32710  Biso   1.000  H
  C188     1.0000 0.60280  0.51140  0.61820  Biso   1.000  C
  C189     1.0000 0.39580  0.45180  0.09850  Biso   1.000  C
  H141     1.0000 0.38820  0.41030  0.11280  Biso   1.000  H
  C190     1.0000 0.40380  0.57880  0.09620  Biso   1.000  C
  H142     1.0000 0.39920  0.62260  0.10860  Biso   1.000  H
  C191     1.0000 0.66640  0.72420  0.96170  Biso   1.000  C
  H143     1.0000 0.66710  0.74750  0.98550  Biso   1.000  H
  C192     1.0000 0.73430  0.66920  0.90930  Biso   1.000  C
  H144     1.0000 0.77840  0.65700  0.89800  Biso   1.000  H
  C193     1.0000 0.80440  0.71180  0.96730  Biso   1.000  C
  C194     1.0000 0.71280  0.53070  0.80820  Biso   1.000  C
  H145     1.0000 0.74420  0.49320  0.80280  Biso   1.000  H
  C195     1.0000 0.66650  0.61590  0.85070  Biso   1.000  C
  C196     1.0000 0.42040  0.71020  0.23670  Biso   1.000  C
  H146     1.0000 0.44210  0.74090  0.25610  Biso   1.000  H
  H147     1.0000 0.44870  0.71570  0.21310  Biso   1.000  H
  C197     1.0000 0.58450  0.70990  0.73850  Biso   1.000  C
  H148     1.0000 0.55340  0.71820  0.71630  Biso   1.000  H
  H149     1.0000 0.56540  0.73860  0.75960  Biso   1.000  H
  C198     1.0000 0.57500  0.64110  0.53350  Biso   1.000  C
  C199     1.0000 0.39740  0.70810  0.44110  Biso   1.000  C
  C200     1.0000 0.39540  0.67870  0.40750  Biso   1.000  C
  H150     1.0000 0.43910  0.66940  0.39500  Biso   1.000  H
  C201     1.0000 0.32630  0.47950  0.17570  Biso   1.000  C
  H151     1.0000 0.29820  0.45210  0.15890  Biso   1.000  H
  C202     1.0000 0.58840  0.57770  0.59570  Biso   1.000  C
  H152     1.0000 0.57970  0.62050  0.60840  Biso   1.000  H
  C203     1.0000 0.35020  0.53560  0.23840  Biso   1.000  C
  C204     1.0000 0.71470  0.56180  0.84310  Biso   1.000  C
  H153     1.0000 0.74790  0.54710  0.86180  Biso   1.000  H
  C205     1.0000 0.67290  0.47220  0.67740  Biso   1.000  C
  H154     1.0000 0.69260  0.43410  0.66370  Biso   1.000  H
  C206     1.0000 0.60990  0.44920  0.59710  Biso   1.000  C
  H155     1.0000 0.62350  0.40790  0.61020  Biso   1.000  H
  C207     1.0000 0.58970  0.57170  0.68100  Biso   1.000  C
  H156     1.0000 0.55710  0.60300  0.66940  Biso   1.000  H
  C208     1.0000 0.42910  0.63220  0.25060  Biso   1.000  C
  C209     1.0000 0.62280  0.52110  0.65840  Biso   1.000  C
  C210     1.0000 0.42200  0.64370  0.03390  Biso   1.000  C
  C211     1.0000 0.50990  0.62300  0.25860  Biso   1.000  C
  H157     1.0000 0.53750  0.63840  0.23620  Biso   1.000  H
  H158     1.0000 0.52370  0.65280  0.28040  Biso   1.000  H
  C212     1.0000 0.49420  0.61610  0.75780  Biso   1.000  C
  H159     1.0000 0.46900  0.62700  0.73380  Biso   1.000  H
  H160     1.0000 0.47840  0.65120  0.77660  Biso   1.000  H
  C213     1.0000 0.62040  0.61500  0.78670  Biso   1.000  C
  C214     1.0000 0.46440  0.73270  0.46120  Biso   1.000  C
  C215     1.0000 0.42250  0.57600  0.05590  Biso   1.000  C
  C216     1.0000 0.69070  0.48250  0.71520  Biso   1.000  C
  H161     1.0000 0.72500  0.45260  0.72640  Biso   1.000  H
  C217     1.0000 0.52840  0.54590  0.26770  Biso   1.000  C
  H162     1.0000 0.48590  0.51910  0.25860  Biso   1.000  H
  C218     1.0000 0.46430  0.54420  0.77170  Biso   1.000  C
  H163     1.0000 0.49600  0.50300  0.76710  Biso   1.000  H
  C219     1.0000 0.40720  0.37750  0.03740  Biso   1.000  C
  C220     1.0000 0.38660  0.53760  0.75520  Biso   1.000  C
  H164     1.0000 0.36320  0.58390  0.75470  Biso   1.000  H
  H165     1.0000 0.35770  0.50590  0.77120  Biso   1.000  H
  C221     1.0000 0.43760  0.55290  0.81320  Biso   1.000  C
  H166     1.0000 0.41860  0.50830  0.82230  Biso   1.000  H
  H167     1.0000 0.47720  0.56760  0.82940  Biso   1.000  H
  H168     1.0000 0.40000  0.58840  0.81390  Biso   1.000  H
  C222     1.0000 0.59110  0.51270  0.24640  Biso   1.000  C
  H169     1.0000 0.58750  0.52360  0.21930  Biso   1.000  H
  H170     1.0000 0.63590  0.53140  0.25640  Biso   1.000  H
  H171     1.0000 0.59010  0.46200  0.24990  Biso   1.000  H
  C223     1.0000 0.53100  0.53070  0.31050  Biso   1.000  C
  H172     1.0000 0.48400  0.50900  0.31530  Biso   1.000  H
  H173     1.0000 0.56550  0.49170  0.31210  Biso   1.000  H
  C224     1.0000 0.69840  0.70220  0.69580  Biso   1.000  C
  H174     1.0000 0.74570  0.72500  0.69610  Biso   1.000  H
  H175     1.0000 0.67440  0.72060  0.67290  Biso   1.000  H
  C225     1.0000 0.69180  0.74040  0.76900  Biso   1.000  C
  C226     1.0000 0.34390  0.73810  0.22850  Biso   1.000  C
  H176     1.0000 0.31130  0.71770  0.24800  Biso   1.000  H
  C227     1.0000 0.31150  0.72220  0.18870  Biso   1.000  C
  H177     1.0000 0.30420  0.67130  0.18580  Biso   1.000  H
  H178     1.0000 0.26470  0.74550  0.18620  Biso   1.000  H
  C228     1.0000 0.34240  0.82020  0.23320  Biso   1.000  C
  H179     1.0000 0.36230  0.83280  0.25800  Biso   1.000  H
  H180     1.0000 0.37070  0.84180  0.21310  Biso   1.000  H
  H181     1.0000 0.29310  0.83680  0.23160  Biso   1.000  H
  C229     1.0000 0.36160  0.74850  0.15810  Biso   1.000  C
  H182     1.0000 0.34130  0.73850  0.13310  Biso   1.000  H
  H183     1.0000 0.36830  0.79890  0.16090  Biso   1.000  H
  H184     1.0000 0.40770  0.72490  0.16050  Biso   1.000  H
  C230     1.0000 0.39330  0.50730  0.71350  Biso   1.000  C
  H185     1.0000 0.34580  0.50250  0.70230  Biso   1.000  H
  H186     1.0000 0.42190  0.53920  0.69790  Biso   1.000  H
  H187     1.0000 0.41650  0.46140  0.71440  Biso   1.000  H
  C231     1.0000 0.54480  0.57040  0.34720  Biso   1.000  C
  H188     1.0000 0.54080  0.53840  0.36880  Biso   1.000  H
  H189     1.0000 0.59280  0.59040  0.34650  Biso   1.000  H
  H190     1.0000 0.50980  0.60800  0.34980  Biso   1.000  H
  C232     1.0000 0.71660  0.62460  0.68430  Biso   1.000  C
  H191     1.0000 0.74380  0.62450  0.66060  Biso   1.000  H
  H192     1.0000 0.74480  0.60280  0.70450  Biso   1.000  H
  H193     1.0000 0.67230  0.59830  0.68080  Biso   1.000  H
  C233     1.0000 0.65830  0.73920  0.72870  Biso   1.000  C
  H194     1.0000 0.65130  0.78890  0.72080  Biso   1.000  H
  C234     1.0000 0.26620  0.66540  0.40800  Biso   1.000  C
  H195     1.0000 0.22350  0.64740  0.39740  Biso   1.000  H
  Cu13     1.0000 0.38221  0.22895  0.03137  Biso   1.000  Cu
  Cu14     1.0000 0.11843  0.27147  0.46832  Biso   1.000  Cu
  Cu15     1.0000 0.04518  0.21042  0.52545  Biso   1.000  Cu
  Cu16     1.0000 0.45555  0.28939  0.97425  Biso   1.000  Cu
  O49      1.0000 0.35710  0.31150  0.95210  Biso   1.000  O
  O50      1.0000 0.05800  0.62300  0.50650  Biso   1.000  O
  O51      1.0000 0.87420  0.67330  0.05464  Biso   1.000  O
  O52      1.0000 0.63570  0.31040  0.44980  Biso   1.000  O
  O53      1.0000 0.95220  0.30510  0.04930  Biso   1.000  O
  O54      1.0000 0.70450  0.25430  0.49805  Biso   1.000  O
  O55      1.0000 0.94690  0.62770  0.00717  Biso   1.000  O
  O56      1.0000 0.05160  0.30320  0.55234  Biso   1.000  O
  O57      1.0000 0.97770  0.28610  0.94483  Biso   1.000  O
  O58      1.0000 0.96310  0.24300  0.49426  Biso   1.000  O
  O59      1.0000 0.90130  0.35930  0.99905  Biso   1.000  O
  O60      1.0000 0.30530  0.24920  0.99639  Biso   1.000  O
  O61      1.0000 0.12030  0.67620  0.55310  Biso   1.000  O
  O62      1.0000 0.10310  0.35710  0.49910  Biso   1.000  O
  O63      1.0000 0.02450  0.28140  0.44262  Biso   1.000  O
  O64      1.0000 0.03970  0.24120  0.99545  Biso   1.000  O
  C235     1.0000 0.96770  0.27410  0.46230  Biso   1.000  C
  C236     1.0000 0.21300  0.43450  0.84210  Biso   1.000  C
  H196     1.0000 0.24090  0.45350  0.86210  Biso   1.000  H
  C237     1.0000 0.11980  0.38720  0.78460  Biso   1.000  C
  C238     1.0000 0.23570  0.30000  0.94580  Biso   1.000  C
  C239     1.0000 0.91170  0.42550  0.05570  Biso   1.000  C
  C240     1.0000 0.92500  0.36900  0.25030  Biso   1.000  C
  C241     1.0000 0.89550  0.32180  0.40480  Biso   1.000  C
  H197     1.0000 0.93870  0.32610  0.39100  Biso   1.000  H
  C242     1.0000 0.89560  0.28760  0.44410  Biso   1.000  C
  C243     1.0000 0.17120  0.27850  0.96240  Biso   1.000  C
  H198     1.0000 0.17070  0.25610  0.98640  Biso   1.000  H
  C244     1.0000 0.17140  0.34070  0.88820  Biso   1.000  C
  C245     1.0000 0.08940  0.55100  0.55800  Biso   1.000  C
  C246     1.0000 0.16900  0.44210  0.77580  Biso   1.000  C
  C247     1.0000 0.10690  0.48150  0.61610  Biso   1.000  C
  C248     1.0000 0.17000  0.37220  0.85000  Biso   1.000  C
  C249     1.0000 0.91260  0.62510  0.03850  Biso   1.000  C
  C250     1.0000 0.07940  0.43050  0.68390  Biso   1.000  C
  H199     1.0000 0.04140  0.40300  0.67430  Biso   1.000  H
  C251     1.0000 0.21510  0.46930  0.80460  Biso   1.000  C
  H200     1.0000 0.24560  0.50780  0.79990  Biso   1.000  H
  C252     1.0000 0.91010  0.49090  0.03690  Biso   1.000  C
  H201     1.0000 0.91450  0.49250  0.01010  Biso   1.000  H
  C253     1.0000 0.89720  0.42140  0.22110  Biso   1.000  C
  C254     1.0000 0.83890  0.46630  0.23680  Biso   1.000  C
  C255     1.0000 0.11340  0.48210  0.66120  Biso   1.000  C
  C256     1.0000 0.30620  0.28510  0.96490  Biso   1.000  C
  C257     1.0000 0.76770  0.29850  0.44440  Biso   1.000  C
  C258     1.0000 0.07590  0.49110  0.53760  Biso   1.000  C
  H202     1.0000 0.06540  0.49400  0.51130  Biso   1.000  H
  C259     1.0000 0.83640  0.44560  0.27950  Biso   1.000  C
  C260     1.0000 0.83420  0.34590  0.38970  Biso   1.000  C
  C261     1.0000 0.10400  0.42230  0.72020  Biso   1.000  C
  C262     1.0000 0.19150  0.51760  0.71580  Biso   1.000  C
  H203     1.0000 0.22650  0.54680  0.72690  Biso   1.000  H
  C263     1.0000 0.90200  0.55490  0.05780  Biso   1.000  C
  C264     1.0000 0.87900  0.35570  0.32070  Biso   1.000  C
  H204     1.0000 0.90820  0.31620  0.32560  Biso   1.000  H
  C265     1.0000 0.12140  0.35200  0.82200  Biso   1.000  C
  H205     1.0000 0.08890  0.31520  0.82710  Biso   1.000  H
  C266     1.0000 0.89720  0.48860  0.11820  Biso   1.000  C
  C267     1.0000 0.10420  0.54820  0.59850  Biso   1.000  C
  H206     1.0000 0.11180  0.58970  0.61280  Biso   1.000  H
  C268     1.0000 0.09620  0.42120  0.59620  Biso   1.000  C
  H207     1.0000 0.10080  0.37740  0.60860  Biso   1.000  H
  C269     1.0000 0.83360  0.27580  0.46170  Biso   1.000  C
  H208     1.0000 0.83290  0.25250  0.48550  Biso   1.000  H
  C270     1.0000 0.76570  0.33080  0.40930  Biso   1.000  C
  H209     1.0000 0.72160  0.34300  0.39800  Biso   1.000  H
  C271     1.0000 0.69560  0.28820  0.46730  Biso   1.000  C
  C272     1.0000 0.78720  0.46930  0.30820  Biso   1.000  C
  H210     1.0000 0.75580  0.50680  0.30280  Biso   1.000  H
  C273     1.0000 0.83350  0.38410  0.35070  Biso   1.000  C
  C274     1.0000 0.07960  0.28980  0.73670  Biso   1.000  C
  H211     1.0000 0.05790  0.25910  0.75610  Biso   1.000  H
  H212     1.0000 0.05130  0.28430  0.71310  Biso   1.000  H
  C275     1.0000 0.91550  0.29010  0.23850  Biso   1.000  C
  H213     1.0000 0.94660  0.28180  0.21630  Biso   1.000  H
  H214     1.0000 0.93460  0.26140  0.25960  Biso   1.000  H
  C276     1.0000 0.92500  0.35890  0.03350  Biso   1.000  C
  C277     1.0000 0.10260  0.29190  0.94110  Biso   1.000  C
  C278     1.0000 0.10460  0.32130  0.90750  Biso   1.000  C
  H215     1.0000 0.06090  0.33060  0.89500  Biso   1.000  H
  C279     1.0000 0.17370  0.52050  0.67570  Biso   1.000  C
  H216     1.0000 0.20180  0.54790  0.65890  Biso   1.000  H
  C280     1.0000 0.91160  0.42230  0.09570  Biso   1.000  C
  H217     1.0000 0.92030  0.37950  0.10840  Biso   1.000  H
  C281     1.0000 0.14980  0.46440  0.73840  Biso   1.000  C
  C282     1.0000 0.78530  0.43820  0.34310  Biso   1.000  C
  H218     1.0000 0.75210  0.45290  0.36180  Biso   1.000  H
  C283     1.0000 0.82710  0.52780  0.17740  Biso   1.000  C
  H219     1.0000 0.80740  0.56590  0.16370  Biso   1.000  H
  C284     1.0000 0.89010  0.55080  0.09710  Biso   1.000  C
  H220     1.0000 0.87650  0.59210  0.11020  Biso   1.000  H
  C285     1.0000 0.91030  0.42830  0.18100  Biso   1.000  C
  H221     1.0000 0.94290  0.39700  0.16940  Biso   1.000  H
  C286     1.0000 0.07090  0.36780  0.75060  Biso   1.000  C
  C287     1.0000 0.87720  0.47890  0.15840  Biso   1.000  C
  C288     1.0000 0.07800  0.35630  0.53390  Biso   1.000  C
  C289     1.0000 0.99010  0.37700  0.75860  Biso   1.000  C
  H222     1.0000 0.96250  0.36160  0.73620  Biso   1.000  H
  H223     1.0000 0.97630  0.34720  0.78040  Biso   1.000  H
  C290     1.0000 0.00580  0.38390  0.25780  Biso   1.000  C
  H224     1.0000 0.03100  0.37300  0.23380  Biso   1.000  H
  H225     1.0000 0.02160  0.34880  0.27660  Biso   1.000  H
  C291     1.0000 0.87960  0.38500  0.28670  Biso   1.000  C
  C292     1.0000 0.03560  0.26730  0.96120  Biso   1.000  C
  C293     1.0000 0.07750  0.42400  0.55590  Biso   1.000  C
  C294     1.0000 0.80930  0.51750  0.21520  Biso   1.000  C
  H226     1.0000 0.77500  0.54740  0.22640  Biso   1.000  H
  C295     1.0000 0.97160  0.45410  0.76770  Biso   1.000  C
  H227     1.0000 0.01410  0.48090  0.75860  Biso   1.000  H
  C296     1.0000 0.03570  0.45580  0.27170  Biso   1.000  C
  H228     1.0000 0.00400  0.49700  0.26710  Biso   1.000  H
  C297     1.0000 0.09280  0.62250  0.53740  Biso   1.000  C
  C298     1.0000 0.11340  0.46240  0.25520  Biso   1.000  C
  H229     1.0000 0.13680  0.41610  0.25470  Biso   1.000  H
  H230     1.0000 0.14230  0.49410  0.27120  Biso   1.000  H
  C299     1.0000 0.06240  0.44710  0.31320  Biso   1.000  C
  H231     1.0000 0.08140  0.49170  0.32230  Biso   1.000  H
  H232     1.0000 0.02280  0.43240  0.32940  Biso   1.000  H
  H233     1.0000 0.10000  0.41160  0.31390  Biso   1.000  H
  C300     1.0000 0.90890  0.48730  0.74640  Biso   1.000  C
  H234     1.0000 0.91250  0.47640  0.71930  Biso   1.000  H
  H235     1.0000 0.86410  0.46860  0.75640  Biso   1.000  H
  H236     1.0000 0.90990  0.53800  0.74990  Biso   1.000  H
  C301     1.0000 0.96900  0.46930  0.81050  Biso   1.000  C
  H237     1.0000 0.01600  0.49100  0.81530  Biso   1.000  H
  H238     1.0000 0.93450  0.50830  0.81210  Biso   1.000  H
  C302     1.0000 0.80160  0.29780  0.19580  Biso   1.000  C
  H239     1.0000 0.75430  0.27500  0.19610  Biso   1.000  H
  H240     1.0000 0.82560  0.27940  0.17290  Biso   1.000  H
  C303     1.0000 0.80820  0.25960  0.26900  Biso   1.000  C
  C304     1.0000 0.15610  0.26190  0.72850  Biso   1.000  C
  H241     1.0000 0.18870  0.28230  0.74800  Biso   1.000  H
  C305     1.0000 0.18850  0.27780  0.68870  Biso   1.000  C
  H242     1.0000 0.19580  0.32870  0.68580  Biso   1.000  H
  H243     1.0000 0.23530  0.25450  0.68620  Biso   1.000  H
  C306     1.0000 0.15760  0.17980  0.73320  Biso   1.000  C
  H244     1.0000 0.13770  0.16720  0.75800  Biso   1.000  H
  H245     1.0000 0.12930  0.15820  0.71310  Biso   1.000  H
  H246     1.0000 0.20690  0.16320  0.73160  Biso   1.000  H
  C307     1.0000 0.13840  0.25150  0.65810  Biso   1.000  C
  H247     1.0000 0.15870  0.26150  0.63310  Biso   1.000  H
  H248     1.0000 0.13170  0.20110  0.66090  Biso   1.000  H
  H249     1.0000 0.09230  0.27510  0.66050  Biso   1.000  H
  C308     1.0000 0.10670  0.49270  0.21350  Biso   1.000  C
  H250     1.0000 0.15420  0.49750  0.20230  Biso   1.000  H
  H251     1.0000 0.07810  0.46080  0.19790  Biso   1.000  H
  H252     1.0000 0.08350  0.53860  0.21440  Biso   1.000  H
  C309     1.0000 0.95520  0.42960  0.84720  Biso   1.000  C
  H253     1.0000 0.95920  0.46160  0.86880  Biso   1.000  H
  H254     1.0000 0.90720  0.40960  0.84650  Biso   1.000  H
  H255     1.0000 0.99020  0.39200  0.84980  Biso   1.000  H
  C310     1.0000 0.78340  0.37540  0.18430  Biso   1.000  C
  H256     1.0000 0.75620  0.37550  0.16060  Biso   1.000  H
  H257     1.0000 0.75520  0.39720  0.20450  Biso   1.000  H
  H258     1.0000 0.82770  0.40170  0.18080  Biso   1.000  H
  C311     1.0000 0.84170  0.26080  0.22870  Biso   1.000  C
  H259     1.0000 0.84870  0.21110  0.22080  Biso   1.000  H
  C312     1.0000 0.23380  0.33460  0.90800  Biso   1.000  C
  H260     1.0000 0.27650  0.35260  0.89740  Biso   1.000  H
