data_NEXDOK_charged
_audit_creation_date              2014-07-02
_audit_creation_method            'Materials Studio'
_symmetry_space_group_name_H-M    'P1'
_symmetry_Int_Tables_number       1
_symmetry_cell_setting            triclinic
loop_
_symmetry_equiv_pos_as_xyz
  x,y,z
_cell_length_a                    23.6270
_cell_length_b                    23.6270
_cell_length_c                    23.6270
_cell_angle_alpha                 90.0000
_cell_angle_beta                  90.0000
_cell_angle_gamma                 90.0000
loop_
_atom_site_label
_atom_site_type_symbol
_atom_site_fract_x
_atom_site_fract_y
_atom_site_fract_z
_atom_site_U_iso_or_equiv
_atom_site_adp_type
_atom_site_occupancy
Na1    Na    0.50000   0.75000   0.00000   0.01267  Uiso   1.00
Na2    Na    0.50000   0.25000   0.00000   0.01267  Uiso   1.00
Na3    Na    0.00000   0.50000   0.75000   0.01267  Uiso   1.00
Na4    Na    0.00000   0.50000   0.25000   0.01267  Uiso   1.00
Na5    Na    0.75000   0.00000   0.50000   0.01267  Uiso   1.00
Na6    Na    0.25000   0.00000   0.50000   0.01267  Uiso   1.00
Fe1    Fe    0.75000   0.75000   0.75000   0.01267  Uiso   1.00
Fe2    Fe    0.25000   0.25000   0.75000   0.01267  Uiso   1.00
Fe3    Fe    0.25000   0.75000   0.25000   0.01267  Uiso   1.00
Fe4    Fe    0.75000   0.25000   0.25000   0.01267  Uiso   1.00
Fe5    Fe    0.25000   0.25000   0.25000   0.01267  Uiso   1.00
Fe6    Fe    0.75000   0.75000   0.25000   0.01267  Uiso   1.00
Fe7    Fe    0.75000   0.25000   0.75000   0.01267  Uiso   1.00
Fe8    Fe    0.25000   0.75000   0.75000   0.01267  Uiso   1.00
H1     H     0.75890   0.87340   0.79710   0.01267  Uiso   1.00
H2     H     0.72050   0.92460   0.86320   0.01267  Uiso   1.00
H3     H     0.64080   0.88850   0.91360   0.01267  Uiso   1.00
H4     H     0.24110   0.12660   0.79710   0.01267  Uiso   1.00
H5     H     0.27950   0.07540   0.86320   0.01267  Uiso   1.00
H6     H     0.35920   0.11150   0.91360   0.01267  Uiso   1.00
H7     H     0.24110   0.87340   0.20290   0.01267  Uiso   1.00
H8     H     0.27950   0.92460   0.13680   0.01267  Uiso   1.00
H9     H     0.35920   0.88850   0.08640   0.01267  Uiso   1.00
H10    H     0.75890   0.12660   0.20290   0.01267  Uiso   1.00
H11    H     0.72050   0.07540   0.13680   0.01267  Uiso   1.00
H12    H     0.64080   0.11150   0.08640   0.01267  Uiso   1.00
H13    H     0.79710   0.75890   0.87340   0.01267  Uiso   1.00
H14    H     0.86320   0.72050   0.92460   0.01267  Uiso   1.00
H15    H     0.91360   0.64080   0.88850   0.01267  Uiso   1.00
H16    H     0.79710   0.24110   0.12660   0.01267  Uiso   1.00
H17    H     0.86320   0.27950   0.07540   0.01267  Uiso   1.00
H18    H     0.91360   0.35920   0.11150   0.01267  Uiso   1.00
H19    H     0.20290   0.24110   0.87340   0.01267  Uiso   1.00
H20    H     0.13680   0.27950   0.92460   0.01267  Uiso   1.00
H21    H     0.08640   0.35920   0.88850   0.01267  Uiso   1.00
H22    H     0.20290   0.75890   0.12660   0.01267  Uiso   1.00
H23    H     0.13680   0.72050   0.07540   0.01267  Uiso   1.00
H24    H     0.08640   0.64080   0.11150   0.01267  Uiso   1.00
H25    H     0.87340   0.79710   0.75890   0.01267  Uiso   1.00
H26    H     0.92460   0.86320   0.72050   0.01267  Uiso   1.00
H27    H     0.88850   0.91360   0.64080   0.01267  Uiso   1.00
H28    H     0.12660   0.79710   0.24110   0.01267  Uiso   1.00
H29    H     0.07540   0.86320   0.27950   0.01267  Uiso   1.00
H30    H     0.11150   0.91360   0.35920   0.01267  Uiso   1.00
H31    H     0.87340   0.20290   0.24110   0.01267  Uiso   1.00
H32    H     0.92460   0.13680   0.27950   0.01267  Uiso   1.00
H33    H     0.88850   0.08640   0.35920   0.01267  Uiso   1.00
H34    H     0.12660   0.20290   0.75890   0.01267  Uiso   1.00
H35    H     0.07540   0.13680   0.72050   0.01267  Uiso   1.00
H36    H     0.11150   0.08640   0.64080   0.01267  Uiso   1.00
H37    H     0.37340   0.25890   0.70290   0.01267  Uiso   1.00
H38    H     0.42460   0.22050   0.63680   0.01267  Uiso   1.00
H39    H     0.38850   0.14080   0.58640   0.01267  Uiso   1.00
H40    H     0.62660   0.74110   0.70290   0.01267  Uiso   1.00
H41    H     0.57540   0.77950   0.63680   0.01267  Uiso   1.00
H42    H     0.61150   0.85920   0.58640   0.01267  Uiso   1.00
H43    H     0.37340   0.74110   0.29710   0.01267  Uiso   1.00
H44    H     0.42460   0.77950   0.36320   0.01267  Uiso   1.00
H45    H     0.38850   0.85920   0.41360   0.01267  Uiso   1.00
H46    H     0.62660   0.25890   0.29710   0.01267  Uiso   1.00
H47    H     0.57540   0.22050   0.36320   0.01267  Uiso   1.00
H48    H     0.61150   0.14080   0.41360   0.01267  Uiso   1.00
H49    H     0.25890   0.29710   0.62660   0.01267  Uiso   1.00
H50    H     0.22050   0.36320   0.57540   0.01267  Uiso   1.00
H51    H     0.14080   0.41360   0.61150   0.01267  Uiso   1.00
H52    H     0.74110   0.29710   0.37340   0.01267  Uiso   1.00
H53    H     0.77950   0.36320   0.42460   0.01267  Uiso   1.00
H54    H     0.85920   0.41360   0.38850   0.01267  Uiso   1.00
H55    H     0.74110   0.70290   0.62660   0.01267  Uiso   1.00
H56    H     0.77950   0.63680   0.57540   0.01267  Uiso   1.00
H57    H     0.85920   0.58640   0.61150   0.01267  Uiso   1.00
H58    H     0.25890   0.70290   0.37340   0.01267  Uiso   1.00
H59    H     0.22050   0.63680   0.42460   0.01267  Uiso   1.00
H60    H     0.14080   0.58640   0.38850   0.01267  Uiso   1.00
H61    H     0.29710   0.37340   0.74110   0.01267  Uiso   1.00
H62    H     0.36320   0.42460   0.77950   0.01267  Uiso   1.00
H63    H     0.41360   0.38850   0.85920   0.01267  Uiso   1.00
H64    H     0.29710   0.62660   0.25890   0.01267  Uiso   1.00
H65    H     0.36320   0.57540   0.22050   0.01267  Uiso   1.00
H66    H     0.41360   0.61150   0.14080   0.01267  Uiso   1.00
H67    H     0.70290   0.37340   0.25890   0.01267  Uiso   1.00
H68    H     0.63680   0.42460   0.22050   0.01267  Uiso   1.00
H69    H     0.58640   0.38850   0.14080   0.01267  Uiso   1.00
H70    H     0.70290   0.62660   0.74110   0.01267  Uiso   1.00
H71    H     0.63680   0.57540   0.77950   0.01267  Uiso   1.00
H72    H     0.58640   0.61150   0.85920   0.01267  Uiso   1.00
H73    H     0.24110   0.12660   0.20290   0.01267  Uiso   1.00
H74    H     0.27950   0.07540   0.13680   0.01267  Uiso   1.00
H75    H     0.35920   0.11150   0.08640   0.01267  Uiso   1.00
H76    H     0.75890   0.87340   0.20290   0.01267  Uiso   1.00
H77    H     0.72050   0.92460   0.13680   0.01267  Uiso   1.00
H78    H     0.64080   0.88850   0.08640   0.01267  Uiso   1.00
H79    H     0.75890   0.12660   0.79710   0.01267  Uiso   1.00
H80    H     0.72050   0.07540   0.86320   0.01267  Uiso   1.00
H81    H     0.64080   0.11150   0.91360   0.01267  Uiso   1.00
H82    H     0.24110   0.87340   0.79710   0.01267  Uiso   1.00
H83    H     0.27950   0.92460   0.86320   0.01267  Uiso   1.00
H84    H     0.35920   0.88850   0.91360   0.01267  Uiso   1.00
H85    H     0.20290   0.24110   0.12660   0.01267  Uiso   1.00
H86    H     0.13680   0.27950   0.07540   0.01267  Uiso   1.00
H87    H     0.08640   0.35920   0.11150   0.01267  Uiso   1.00
H88    H     0.20290   0.75890   0.87340   0.01267  Uiso   1.00
H89    H     0.13680   0.72050   0.92460   0.01267  Uiso   1.00
H90    H     0.08640   0.64080   0.88850   0.01267  Uiso   1.00
H91    H     0.79710   0.75890   0.12660   0.01267  Uiso   1.00
H92    H     0.86320   0.72050   0.07540   0.01267  Uiso   1.00
H93    H     0.91360   0.64080   0.11150   0.01267  Uiso   1.00
H94    H     0.79710   0.24110   0.87340   0.01267  Uiso   1.00
H95    H     0.86320   0.27950   0.92460   0.01267  Uiso   1.00
H96    H     0.91360   0.35920   0.88850   0.01267  Uiso   1.00
H97    H     0.12660   0.20290   0.24110   0.01267  Uiso   1.00
H98    H     0.07540   0.13680   0.27950   0.01267  Uiso   1.00
H99    H     0.11150   0.08640   0.35920   0.01267  Uiso   1.00
H100   H     0.87340   0.20290   0.75890   0.01267  Uiso   1.00
H101   H     0.92460   0.13680   0.72050   0.01267  Uiso   1.00
H102   H     0.88850   0.08640   0.64080   0.01267  Uiso   1.00
H103   H     0.12660   0.79710   0.75890   0.01267  Uiso   1.00
H104   H     0.07540   0.86320   0.72050   0.01267  Uiso   1.00
H105   H     0.11150   0.91360   0.64080   0.01267  Uiso   1.00
H106   H     0.87340   0.79710   0.24110   0.01267  Uiso   1.00
H107   H     0.92460   0.86320   0.27950   0.01267  Uiso   1.00
H108   H     0.88850   0.91360   0.35920   0.01267  Uiso   1.00
H109   H     0.62660   0.74110   0.29710   0.01267  Uiso   1.00
H110   H     0.57540   0.77950   0.36320   0.01267  Uiso   1.00
H111   H     0.61150   0.85920   0.41360   0.01267  Uiso   1.00
H112   H     0.37340   0.25890   0.29710   0.01267  Uiso   1.00
H113   H     0.42460   0.22050   0.36320   0.01267  Uiso   1.00
H114   H     0.38850   0.14080   0.41360   0.01267  Uiso   1.00
H115   H     0.62660   0.25890   0.70290   0.01267  Uiso   1.00
H116   H     0.57540   0.22050   0.63680   0.01267  Uiso   1.00
H117   H     0.61150   0.14080   0.58640   0.01267  Uiso   1.00
H118   H     0.37340   0.74110   0.70290   0.01267  Uiso   1.00
H119   H     0.42460   0.77950   0.63680   0.01267  Uiso   1.00
H120   H     0.38850   0.85920   0.58640   0.01267  Uiso   1.00
H121   H     0.74110   0.70290   0.37340   0.01267  Uiso   1.00
H122   H     0.77950   0.63680   0.42460   0.01267  Uiso   1.00
H123   H     0.85920   0.58640   0.38850   0.01267  Uiso   1.00
H124   H     0.25890   0.70290   0.62660   0.01267  Uiso   1.00
H125   H     0.22050   0.63680   0.57540   0.01267  Uiso   1.00
H126   H     0.14080   0.58640   0.61150   0.01267  Uiso   1.00
H127   H     0.25890   0.29710   0.37340   0.01267  Uiso   1.00
H128   H     0.22050   0.36320   0.42460   0.01267  Uiso   1.00
H129   H     0.14080   0.41360   0.38850   0.01267  Uiso   1.00
H130   H     0.74110   0.29710   0.62660   0.01267  Uiso   1.00
H131   H     0.77950   0.36320   0.57540   0.01267  Uiso   1.00
H132   H     0.85920   0.41360   0.61150   0.01267  Uiso   1.00
H133   H     0.70290   0.62660   0.25890   0.01267  Uiso   1.00
H134   H     0.63680   0.57540   0.22050   0.01267  Uiso   1.00
H135   H     0.58640   0.61150   0.14080   0.01267  Uiso   1.00
H136   H     0.70290   0.37340   0.74110   0.01267  Uiso   1.00
H137   H     0.63680   0.42460   0.77950   0.01267  Uiso   1.00
H138   H     0.58640   0.38850   0.85920   0.01267  Uiso   1.00
H139   H     0.29710   0.62660   0.74110   0.01267  Uiso   1.00
H140   H     0.36320   0.57540   0.77950   0.01267  Uiso   1.00
H141   H     0.41360   0.61150   0.85920   0.01267  Uiso   1.00
H142   H     0.29710   0.37340   0.25890   0.01267  Uiso   1.00
H143   H     0.36320   0.42460   0.22050   0.01267  Uiso   1.00
H144   H     0.41360   0.38850   0.14080   0.01267  Uiso   1.00
C1     C     0.73021   0.85691   0.81848   0.01267  Uiso   1.00
C2     C     0.70710   0.88820   0.85632   0.01267  Uiso   1.00
C3     C     0.66045   0.86622   0.88776   0.01267  Uiso   1.00
C4     C     0.64504   0.80799   0.87777   0.01267  Uiso   1.00
C5     C     0.67475   0.78172   0.83616   0.01267  Uiso   1.00
C6     C     0.60122   0.78337   0.90925   0.01267  Uiso   1.00
C7     C     0.26979   0.14309   0.81848   0.01267  Uiso   1.00
C8     C     0.29290   0.11180   0.85632   0.01267  Uiso   1.00
C9     C     0.33955   0.13378   0.88776   0.01267  Uiso   1.00
C10    C     0.35496   0.19201   0.87777   0.01267  Uiso   1.00
C11    C     0.32525   0.21828   0.83616   0.01267  Uiso   1.00
C12    C     0.39878   0.21663   0.90925   0.01267  Uiso   1.00
C13    C     0.26979   0.85691   0.18152   0.01267  Uiso   1.00
C14    C     0.29290   0.88820   0.14368   0.01267  Uiso   1.00
C15    C     0.33955   0.86622   0.11224   0.01267  Uiso   1.00
C16    C     0.35496   0.80799   0.12223   0.01267  Uiso   1.00
C17    C     0.32525   0.78172   0.16384   0.01267  Uiso   1.00
C18    C     0.39878   0.78337   0.09075   0.01267  Uiso   1.00
C19    C     0.73021   0.14309   0.18152   0.01267  Uiso   1.00
C20    C     0.70710   0.11180   0.14368   0.01267  Uiso   1.00
C21    C     0.66045   0.13378   0.11224   0.01267  Uiso   1.00
C22    C     0.64504   0.19201   0.12223   0.01267  Uiso   1.00
C23    C     0.67475   0.21828   0.16384   0.01267  Uiso   1.00
C24    C     0.60122   0.21663   0.09075   0.01267  Uiso   1.00
C25    C     0.81848   0.73021   0.85691   0.01267  Uiso   1.00
C26    C     0.85632   0.70710   0.88820   0.01267  Uiso   1.00
C27    C     0.88776   0.66045   0.86622   0.01267  Uiso   1.00
C28    C     0.87777   0.64504   0.80799   0.01267  Uiso   1.00
C29    C     0.83616   0.67475   0.78172   0.01267  Uiso   1.00
C30    C     0.90925   0.60122   0.78337   0.01267  Uiso   1.00
C31    C     0.81848   0.26979   0.14309   0.01267  Uiso   1.00
C32    C     0.85632   0.29290   0.11180   0.01267  Uiso   1.00
C33    C     0.88776   0.33955   0.13378   0.01267  Uiso   1.00
C34    C     0.87777   0.35496   0.19201   0.01267  Uiso   1.00
C35    C     0.83616   0.32525   0.21828   0.01267  Uiso   1.00
C36    C     0.90925   0.39878   0.21663   0.01267  Uiso   1.00
C37    C     0.18152   0.26979   0.85691   0.01267  Uiso   1.00
C38    C     0.14368   0.29290   0.88820   0.01267  Uiso   1.00
C39    C     0.11224   0.33955   0.86622   0.01267  Uiso   1.00
C40    C     0.12223   0.35496   0.80799   0.01267  Uiso   1.00
C41    C     0.16384   0.32525   0.78172   0.01267  Uiso   1.00
C42    C     0.09075   0.39878   0.78337   0.01267  Uiso   1.00
C43    C     0.18152   0.73021   0.14309   0.01267  Uiso   1.00
C44    C     0.14368   0.70710   0.11180   0.01267  Uiso   1.00
C45    C     0.11224   0.66045   0.13378   0.01267  Uiso   1.00
C46    C     0.12223   0.64504   0.19201   0.01267  Uiso   1.00
C47    C     0.16384   0.67475   0.21828   0.01267  Uiso   1.00
C48    C     0.09075   0.60122   0.21663   0.01267  Uiso   1.00
C49    C     0.85691   0.81848   0.73021   0.01267  Uiso   1.00
C50    C     0.88820   0.85632   0.70710   0.01267  Uiso   1.00
C51    C     0.86622   0.88776   0.66045   0.01267  Uiso   1.00
C52    C     0.80799   0.87777   0.64504   0.01267  Uiso   1.00
C53    C     0.78172   0.83616   0.67475   0.01267  Uiso   1.00
C54    C     0.78337   0.90925   0.60122   0.01267  Uiso   1.00
C55    C     0.14309   0.81848   0.26979   0.01267  Uiso   1.00
C56    C     0.11180   0.85632   0.29290   0.01267  Uiso   1.00
C57    C     0.13378   0.88776   0.33955   0.01267  Uiso   1.00
C58    C     0.19201   0.87777   0.35496   0.01267  Uiso   1.00
C59    C     0.21828   0.83616   0.32525   0.01267  Uiso   1.00
C60    C     0.21663   0.90925   0.39878   0.01267  Uiso   1.00
C61    C     0.85691   0.18152   0.26979   0.01267  Uiso   1.00
C62    C     0.88820   0.14368   0.29290   0.01267  Uiso   1.00
C63    C     0.86622   0.11224   0.33955   0.01267  Uiso   1.00
C64    C     0.80799   0.12223   0.35496   0.01267  Uiso   1.00
C65    C     0.78172   0.16384   0.32525   0.01267  Uiso   1.00
C66    C     0.78337   0.09075   0.39878   0.01267  Uiso   1.00
C67    C     0.14309   0.18152   0.73021   0.01267  Uiso   1.00
C68    C     0.11180   0.14368   0.70710   0.01267  Uiso   1.00
C69    C     0.13378   0.11224   0.66045   0.01267  Uiso   1.00
C70    C     0.19201   0.12223   0.64504   0.01267  Uiso   1.00
C71    C     0.21828   0.16384   0.67475   0.01267  Uiso   1.00
C72    C     0.21663   0.09075   0.60122   0.01267  Uiso   1.00
C73    C     0.35691   0.23021   0.68152   0.01267  Uiso   1.00
C74    C     0.38820   0.20710   0.64368   0.01267  Uiso   1.00
C75    C     0.36622   0.16045   0.61224   0.01267  Uiso   1.00
C76    C     0.30799   0.14504   0.62223   0.01267  Uiso   1.00
C77    C     0.28172   0.17475   0.66384   0.01267  Uiso   1.00
C78    C     0.28337   0.10122   0.59075   0.01267  Uiso   1.00
C79    C     0.64309   0.76979   0.68152   0.01267  Uiso   1.00
C80    C     0.61180   0.79290   0.64368   0.01267  Uiso   1.00
C81    C     0.63378   0.83955   0.61224   0.01267  Uiso   1.00
C82    C     0.69201   0.85496   0.62223   0.01267  Uiso   1.00
C83    C     0.71828   0.82525   0.66384   0.01267  Uiso   1.00
C84    C     0.71663   0.89878   0.59075   0.01267  Uiso   1.00
C85    C     0.35691   0.76979   0.31848   0.01267  Uiso   1.00
C86    C     0.38820   0.79290   0.35632   0.01267  Uiso   1.00
C87    C     0.36622   0.83955   0.38776   0.01267  Uiso   1.00
C88    C     0.30799   0.85496   0.37777   0.01267  Uiso   1.00
C89    C     0.28172   0.82525   0.33616   0.01267  Uiso   1.00
C90    C     0.28337   0.89878   0.40925   0.01267  Uiso   1.00
C91    C     0.64309   0.23021   0.31848   0.01267  Uiso   1.00
C92    C     0.61180   0.20710   0.35632   0.01267  Uiso   1.00
C93    C     0.63378   0.16045   0.38776   0.01267  Uiso   1.00
C94    C     0.69201   0.14504   0.37777   0.01267  Uiso   1.00
C95    C     0.71828   0.17475   0.33616   0.01267  Uiso   1.00
C96    C     0.71663   0.10122   0.40925   0.01267  Uiso   1.00
C97    C     0.23021   0.31848   0.64309   0.01267  Uiso   1.00
C98    C     0.20710   0.35632   0.61180   0.01267  Uiso   1.00
C99    C     0.16045   0.38776   0.63378   0.01267  Uiso   1.00
C100   C     0.14504   0.37777   0.69201   0.01267  Uiso   1.00
C101   C     0.17475   0.33616   0.71828   0.01267  Uiso   1.00
C102   C     0.10122   0.40925   0.71663   0.01267  Uiso   1.00
C103   C     0.76979   0.31848   0.35691   0.01267  Uiso   1.00
C104   C     0.79290   0.35632   0.38820   0.01267  Uiso   1.00
C105   C     0.83955   0.38776   0.36622   0.01267  Uiso   1.00
C106   C     0.85496   0.37777   0.30799   0.01267  Uiso   1.00
C107   C     0.82525   0.33616   0.28172   0.01267  Uiso   1.00
C108   C     0.89878   0.40925   0.28337   0.01267  Uiso   1.00
C109   C     0.76979   0.68152   0.64309   0.01267  Uiso   1.00
C110   C     0.79290   0.64368   0.61180   0.01267  Uiso   1.00
C111   C     0.83955   0.61224   0.63378   0.01267  Uiso   1.00
C112   C     0.85496   0.62223   0.69201   0.01267  Uiso   1.00
C113   C     0.82525   0.66384   0.71828   0.01267  Uiso   1.00
C114   C     0.89878   0.59075   0.71663   0.01267  Uiso   1.00
C115   C     0.23021   0.68152   0.35691   0.01267  Uiso   1.00
C116   C     0.20710   0.64368   0.38820   0.01267  Uiso   1.00
C117   C     0.16045   0.61224   0.36622   0.01267  Uiso   1.00
C118   C     0.14504   0.62223   0.30799   0.01267  Uiso   1.00
C119   C     0.17475   0.66384   0.28172   0.01267  Uiso   1.00
C120   C     0.10122   0.59075   0.28337   0.01267  Uiso   1.00
C121   C     0.31848   0.35691   0.76979   0.01267  Uiso   1.00
C122   C     0.35632   0.38820   0.79290   0.01267  Uiso   1.00
C123   C     0.38776   0.36622   0.83955   0.01267  Uiso   1.00
C124   C     0.37777   0.30799   0.85496   0.01267  Uiso   1.00
C125   C     0.33616   0.28172   0.82525   0.01267  Uiso   1.00
C126   C     0.40925   0.28337   0.89878   0.01267  Uiso   1.00
C127   C     0.31848   0.64309   0.23021   0.01267  Uiso   1.00
C128   C     0.35632   0.61180   0.20710   0.01267  Uiso   1.00
C129   C     0.38776   0.63378   0.16045   0.01267  Uiso   1.00
C130   C     0.37777   0.69201   0.14504   0.01267  Uiso   1.00
C131   C     0.33616   0.71828   0.17475   0.01267  Uiso   1.00
C132   C     0.40925   0.71663   0.10122   0.01267  Uiso   1.00
C133   C     0.68152   0.35691   0.23021   0.01267  Uiso   1.00
C134   C     0.64368   0.38820   0.20710   0.01267  Uiso   1.00
C135   C     0.61224   0.36622   0.16045   0.01267  Uiso   1.00
C136   C     0.62223   0.30799   0.14504   0.01267  Uiso   1.00
C137   C     0.66384   0.28172   0.17475   0.01267  Uiso   1.00
C138   C     0.59075   0.28337   0.10122   0.01267  Uiso   1.00
C139   C     0.68152   0.64309   0.76979   0.01267  Uiso   1.00
C140   C     0.64368   0.61180   0.79290   0.01267  Uiso   1.00
C141   C     0.61224   0.63378   0.83955   0.01267  Uiso   1.00
C142   C     0.62223   0.69201   0.85496   0.01267  Uiso   1.00
C143   C     0.66384   0.71828   0.82525   0.01267  Uiso   1.00
C144   C     0.59075   0.71663   0.89878   0.01267  Uiso   1.00
C145   C     0.26979   0.14309   0.18152   0.01267  Uiso   1.00
C146   C     0.29290   0.11180   0.14368   0.01267  Uiso   1.00
C147   C     0.33955   0.13378   0.11224   0.01267  Uiso   1.00
C148   C     0.35496   0.19201   0.12223   0.01267  Uiso   1.00
C149   C     0.32525   0.21828   0.16384   0.01267  Uiso   1.00
C150   C     0.39878   0.21663   0.09075   0.01267  Uiso   1.00
C151   C     0.73021   0.85691   0.18152   0.01267  Uiso   1.00
C152   C     0.70710   0.88820   0.14368   0.01267  Uiso   1.00
C153   C     0.66045   0.86622   0.11224   0.01267  Uiso   1.00
C154   C     0.64504   0.80799   0.12223   0.01267  Uiso   1.00
C155   C     0.67475   0.78172   0.16384   0.01267  Uiso   1.00
C156   C     0.60122   0.78337   0.09075   0.01267  Uiso   1.00
C157   C     0.73021   0.14309   0.81848   0.01267  Uiso   1.00
C158   C     0.70710   0.11180   0.85632   0.01267  Uiso   1.00
C159   C     0.66045   0.13378   0.88776   0.01267  Uiso   1.00
C160   C     0.64504   0.19201   0.87777   0.01267  Uiso   1.00
C161   C     0.67475   0.21828   0.83616   0.01267  Uiso   1.00
C162   C     0.60122   0.21663   0.90925   0.01267  Uiso   1.00
C163   C     0.26979   0.85691   0.81848   0.01267  Uiso   1.00
C164   C     0.29290   0.88820   0.85632   0.01267  Uiso   1.00
C165   C     0.33955   0.86622   0.88776   0.01267  Uiso   1.00
C166   C     0.35496   0.80799   0.87777   0.01267  Uiso   1.00
C167   C     0.32525   0.78172   0.83616   0.01267  Uiso   1.00
C168   C     0.39878   0.78337   0.90925   0.01267  Uiso   1.00
C169   C     0.18152   0.26979   0.14309   0.01267  Uiso   1.00
C170   C     0.14368   0.29290   0.11180   0.01267  Uiso   1.00
C171   C     0.11224   0.33955   0.13378   0.01267  Uiso   1.00
C172   C     0.12223   0.35496   0.19201   0.01267  Uiso   1.00
C173   C     0.16384   0.32525   0.21828   0.01267  Uiso   1.00
C174   C     0.09075   0.39878   0.21663   0.01267  Uiso   1.00
C175   C     0.18152   0.73021   0.85691   0.01267  Uiso   1.00
C176   C     0.14368   0.70710   0.88820   0.01267  Uiso   1.00
C177   C     0.11224   0.66045   0.86622   0.01267  Uiso   1.00
C178   C     0.12223   0.64504   0.80799   0.01267  Uiso   1.00
C179   C     0.16384   0.67475   0.78172   0.01267  Uiso   1.00
C180   C     0.09075   0.60122   0.78337   0.01267  Uiso   1.00
C181   C     0.81848   0.73021   0.14309   0.01267  Uiso   1.00
C182   C     0.85632   0.70710   0.11180   0.01267  Uiso   1.00
C183   C     0.88776   0.66045   0.13378   0.01267  Uiso   1.00
C184   C     0.87777   0.64504   0.19201   0.01267  Uiso   1.00
C185   C     0.83616   0.67475   0.21828   0.01267  Uiso   1.00
C186   C     0.90925   0.60122   0.21663   0.01267  Uiso   1.00
C187   C     0.81848   0.26979   0.85691   0.01267  Uiso   1.00
C188   C     0.85632   0.29290   0.88820   0.01267  Uiso   1.00
C189   C     0.88776   0.33955   0.86622   0.01267  Uiso   1.00
C190   C     0.87777   0.35496   0.80799   0.01267  Uiso   1.00
C191   C     0.83616   0.32525   0.78172   0.01267  Uiso   1.00
C192   C     0.90925   0.39878   0.78337   0.01267  Uiso   1.00
C193   C     0.14309   0.18152   0.26979   0.01267  Uiso   1.00
C194   C     0.11180   0.14368   0.29290   0.01267  Uiso   1.00
C195   C     0.13378   0.11224   0.33955   0.01267  Uiso   1.00
C196   C     0.19201   0.12223   0.35496   0.01267  Uiso   1.00
C197   C     0.21828   0.16384   0.32525   0.01267  Uiso   1.00
C198   C     0.21663   0.09075   0.39878   0.01267  Uiso   1.00
C199   C     0.85691   0.18152   0.73021   0.01267  Uiso   1.00
C200   C     0.88820   0.14368   0.70710   0.01267  Uiso   1.00
C201   C     0.86622   0.11224   0.66045   0.01267  Uiso   1.00
C202   C     0.80799   0.12223   0.64504   0.01267  Uiso   1.00
C203   C     0.78172   0.16384   0.67475   0.01267  Uiso   1.00
C204   C     0.78337   0.09075   0.60122   0.01267  Uiso   1.00
C205   C     0.14309   0.81848   0.73021   0.01267  Uiso   1.00
C206   C     0.11180   0.85632   0.70710   0.01267  Uiso   1.00
C207   C     0.13378   0.88776   0.66045   0.01267  Uiso   1.00
C208   C     0.19201   0.87777   0.64504   0.01267  Uiso   1.00
C209   C     0.21828   0.83616   0.67475   0.01267  Uiso   1.00
C210   C     0.21663   0.90925   0.60122   0.01267  Uiso   1.00
C211   C     0.85691   0.81848   0.26979   0.01267  Uiso   1.00
C212   C     0.88820   0.85632   0.29290   0.01267  Uiso   1.00
C213   C     0.86622   0.88776   0.33955   0.01267  Uiso   1.00
C214   C     0.80799   0.87777   0.35496   0.01267  Uiso   1.00
C215   C     0.78172   0.83616   0.32525   0.01267  Uiso   1.00
C216   C     0.78337   0.90925   0.39878   0.01267  Uiso   1.00
C217   C     0.64309   0.76979   0.31848   0.01267  Uiso   1.00
C218   C     0.61180   0.79290   0.35632   0.01267  Uiso   1.00
C219   C     0.63378   0.83955   0.38776   0.01267  Uiso   1.00
C220   C     0.69201   0.85496   0.37777   0.01267  Uiso   1.00
C221   C     0.71828   0.82525   0.33616   0.01267  Uiso   1.00
C222   C     0.71663   0.89878   0.40925   0.01267  Uiso   1.00
C223   C     0.35691   0.23021   0.31848   0.01267  Uiso   1.00
C224   C     0.38820   0.20710   0.35632   0.01267  Uiso   1.00
C225   C     0.36622   0.16045   0.38776   0.01267  Uiso   1.00
C226   C     0.30799   0.14504   0.37777   0.01267  Uiso   1.00
C227   C     0.28172   0.17475   0.33616   0.01267  Uiso   1.00
C228   C     0.28337   0.10122   0.40925   0.01267  Uiso   1.00
C229   C     0.64309   0.23021   0.68152   0.01267  Uiso   1.00
C230   C     0.61180   0.20710   0.64368   0.01267  Uiso   1.00
C231   C     0.63378   0.16045   0.61224   0.01267  Uiso   1.00
C232   C     0.69201   0.14504   0.62223   0.01267  Uiso   1.00
C233   C     0.71828   0.17475   0.66384   0.01267  Uiso   1.00
C234   C     0.71663   0.10122   0.59075   0.01267  Uiso   1.00
C235   C     0.35691   0.76979   0.68152   0.01267  Uiso   1.00
C236   C     0.38820   0.79290   0.64368   0.01267  Uiso   1.00
C237   C     0.36622   0.83955   0.61224   0.01267  Uiso   1.00
C238   C     0.30799   0.85496   0.62223   0.01267  Uiso   1.00
C239   C     0.28172   0.82525   0.66384   0.01267  Uiso   1.00
C240   C     0.28337   0.89878   0.59075   0.01267  Uiso   1.00
C241   C     0.76979   0.68152   0.35691   0.01267  Uiso   1.00
C242   C     0.79290   0.64368   0.38820   0.01267  Uiso   1.00
C243   C     0.83955   0.61224   0.36622   0.01267  Uiso   1.00
C244   C     0.85496   0.62223   0.30799   0.01267  Uiso   1.00
C245   C     0.82525   0.66384   0.28172   0.01267  Uiso   1.00
C246   C     0.89878   0.59075   0.28337   0.01267  Uiso   1.00
C247   C     0.23021   0.68152   0.64309   0.01267  Uiso   1.00
C248   C     0.20710   0.64368   0.61180   0.01267  Uiso   1.00
C249   C     0.16045   0.61224   0.63378   0.01267  Uiso   1.00
C250   C     0.14504   0.62223   0.69201   0.01267  Uiso   1.00
C251   C     0.17475   0.66384   0.71828   0.01267  Uiso   1.00
C252   C     0.10122   0.59075   0.71663   0.01267  Uiso   1.00
C253   C     0.23021   0.31848   0.35691   0.01267  Uiso   1.00
C254   C     0.20710   0.35632   0.38820   0.01267  Uiso   1.00
C255   C     0.16045   0.38776   0.36622   0.01267  Uiso   1.00
C256   C     0.14504   0.37777   0.30799   0.01267  Uiso   1.00
C257   C     0.17475   0.33616   0.28172   0.01267  Uiso   1.00
C258   C     0.10122   0.40925   0.28337   0.01267  Uiso   1.00
C259   C     0.76979   0.31848   0.64309   0.01267  Uiso   1.00
C260   C     0.79290   0.35632   0.61180   0.01267  Uiso   1.00
C261   C     0.83955   0.38776   0.63378   0.01267  Uiso   1.00
C262   C     0.85496   0.37777   0.69201   0.01267  Uiso   1.00
C263   C     0.82525   0.33616   0.71828   0.01267  Uiso   1.00
C264   C     0.89878   0.40925   0.71663   0.01267  Uiso   1.00
C265   C     0.68152   0.64309   0.23021   0.01267  Uiso   1.00
C266   C     0.64368   0.61180   0.20710   0.01267  Uiso   1.00
C267   C     0.61224   0.63378   0.16045   0.01267  Uiso   1.00
C268   C     0.62223   0.69201   0.14504   0.01267  Uiso   1.00
C269   C     0.66384   0.71828   0.17475   0.01267  Uiso   1.00
C270   C     0.59075   0.71663   0.10122   0.01267  Uiso   1.00
C271   C     0.68152   0.35691   0.76979   0.01267  Uiso   1.00
C272   C     0.64368   0.38820   0.79290   0.01267  Uiso   1.00
C273   C     0.61224   0.36622   0.83955   0.01267  Uiso   1.00
C274   C     0.62223   0.30799   0.85496   0.01267  Uiso   1.00
C275   C     0.66384   0.28172   0.82525   0.01267  Uiso   1.00
C276   C     0.59075   0.28337   0.89878   0.01267  Uiso   1.00
C277   C     0.31848   0.64309   0.76979   0.01267  Uiso   1.00
C278   C     0.35632   0.61180   0.79290   0.01267  Uiso   1.00
C279   C     0.38776   0.63378   0.83955   0.01267  Uiso   1.00
C280   C     0.37777   0.69201   0.85496   0.01267  Uiso   1.00
C281   C     0.33616   0.71828   0.82525   0.01267  Uiso   1.00
C282   C     0.40925   0.71663   0.89878   0.01267  Uiso   1.00
C283   C     0.31848   0.35691   0.23021   0.01267  Uiso   1.00
C284   C     0.35632   0.38820   0.20710   0.01267  Uiso   1.00
C285   C     0.38776   0.36622   0.16045   0.01267  Uiso   1.00
C286   C     0.37777   0.30799   0.14504   0.01267  Uiso   1.00
C287   C     0.33616   0.28172   0.17475   0.01267  Uiso   1.00
C288   C     0.40925   0.28337   0.10122   0.01267  Uiso   1.00
N1     N     0.71755   0.80311   0.80641   0.01267  Uiso   1.00
N2     N     0.28245   0.19689   0.80641   0.01267  Uiso   1.00
N3     N     0.28245   0.80311   0.19359   0.01267  Uiso   1.00
N4     N     0.71755   0.19689   0.19359   0.01267  Uiso   1.00
N5     N     0.80641   0.71755   0.80311   0.01267  Uiso   1.00
N6     N     0.80641   0.28245   0.19689   0.01267  Uiso   1.00
N7     N     0.19359   0.28245   0.80311   0.01267  Uiso   1.00
N8     N     0.19359   0.71755   0.19689   0.01267  Uiso   1.00
N9     N     0.80311   0.80641   0.71755   0.01267  Uiso   1.00
N10    N     0.19689   0.80641   0.28245   0.01267  Uiso   1.00
N11    N     0.80311   0.19359   0.28245   0.01267  Uiso   1.00
N12    N     0.19689   0.19359   0.71755   0.01267  Uiso   1.00
N13    N     0.30311   0.21755   0.69359   0.01267  Uiso   1.00
N14    N     0.69689   0.78245   0.69359   0.01267  Uiso   1.00
N15    N     0.30311   0.78245   0.30641   0.01267  Uiso   1.00
N16    N     0.69689   0.21755   0.30641   0.01267  Uiso   1.00
N17    N     0.21755   0.30641   0.69689   0.01267  Uiso   1.00
N18    N     0.78245   0.30641   0.30311   0.01267  Uiso   1.00
N19    N     0.78245   0.69359   0.69689   0.01267  Uiso   1.00
N20    N     0.21755   0.69359   0.30311   0.01267  Uiso   1.00
N21    N     0.30641   0.30311   0.78245   0.01267  Uiso   1.00
N22    N     0.30641   0.69689   0.21755   0.01267  Uiso   1.00
N23    N     0.69359   0.30311   0.21755   0.01267  Uiso   1.00
N24    N     0.69359   0.69689   0.78245   0.01267  Uiso   1.00
N25    N     0.28245   0.19689   0.19359   0.01267  Uiso   1.00
N26    N     0.71755   0.80311   0.19359   0.01267  Uiso   1.00
N27    N     0.71755   0.19689   0.80641   0.01267  Uiso   1.00
N28    N     0.28245   0.80311   0.80641   0.01267  Uiso   1.00
N29    N     0.19359   0.28245   0.19689   0.01267  Uiso   1.00
N30    N     0.19359   0.71755   0.80311   0.01267  Uiso   1.00
N31    N     0.80641   0.71755   0.19689   0.01267  Uiso   1.00
N32    N     0.80641   0.28245   0.80311   0.01267  Uiso   1.00
N33    N     0.19689   0.19359   0.28245   0.01267  Uiso   1.00
N34    N     0.80311   0.19359   0.71755   0.01267  Uiso   1.00
N35    N     0.19689   0.80641   0.71755   0.01267  Uiso   1.00
N36    N     0.80311   0.80641   0.28245   0.01267  Uiso   1.00
N37    N     0.69689   0.78245   0.30641   0.01267  Uiso   1.00
N38    N     0.30311   0.21755   0.30641   0.01267  Uiso   1.00
N39    N     0.69689   0.21755   0.69359   0.01267  Uiso   1.00
N40    N     0.30311   0.78245   0.69359   0.01267  Uiso   1.00
N41    N     0.78245   0.69359   0.30311   0.01267  Uiso   1.00
N42    N     0.21755   0.69359   0.69689   0.01267  Uiso   1.00
N43    N     0.21755   0.30641   0.30311   0.01267  Uiso   1.00
N44    N     0.78245   0.30641   0.69689   0.01267  Uiso   1.00
N45    N     0.69359   0.69689   0.21755   0.01267  Uiso   1.00
N46    N     0.69359   0.30311   0.78245   0.01267  Uiso   1.00
N47    N     0.30641   0.69689   0.78245   0.01267  Uiso   1.00
N48    N     0.30641   0.30311   0.21755   0.01267  Uiso   1.00
O1     O     0.56795   0.80464   0.93996   0.01267  Uiso   1.00
O2     O     0.43205   0.19536   0.93996   0.01267  Uiso   1.00
O3     O     0.43205   0.80464   0.06004   0.01267  Uiso   1.00
O4     O     0.56795   0.19536   0.06004   0.01267  Uiso   1.00
O5     O     0.93996   0.56795   0.80464   0.01267  Uiso   1.00
O6     O     0.93996   0.43205   0.19536   0.01267  Uiso   1.00
O7     O     0.06004   0.43205   0.80464   0.01267  Uiso   1.00
O8     O     0.06004   0.56795   0.19536   0.01267  Uiso   1.00
O9     O     0.80464   0.93996   0.56795   0.01267  Uiso   1.00
O10    O     0.19536   0.93996   0.43205   0.01267  Uiso   1.00
O11    O     0.80464   0.06004   0.43205   0.01267  Uiso   1.00
O12    O     0.19536   0.06004   0.56795   0.01267  Uiso   1.00
O13    O     0.30464   0.06795   0.56004   0.01267  Uiso   1.00
O14    O     0.69536   0.93205   0.56004   0.01267  Uiso   1.00
O15    O     0.30464   0.93205   0.43996   0.01267  Uiso   1.00
O16    O     0.69536   0.06795   0.43996   0.01267  Uiso   1.00
O17    O     0.06795   0.43996   0.69536   0.01267  Uiso   1.00
O18    O     0.93205   0.43996   0.30464   0.01267  Uiso   1.00
O19    O     0.93205   0.56004   0.69536   0.01267  Uiso   1.00
O20    O     0.06795   0.56004   0.30464   0.01267  Uiso   1.00
O21    O     0.43996   0.30464   0.93205   0.01267  Uiso   1.00
O22    O     0.43996   0.69536   0.06795   0.01267  Uiso   1.00
O23    O     0.56004   0.30464   0.06795   0.01267  Uiso   1.00
O24    O     0.56004   0.69536   0.93205   0.01267  Uiso   1.00
O25    O     0.43205   0.19536   0.06004   0.01267  Uiso   1.00
O26    O     0.56795   0.80464   0.06004   0.01267  Uiso   1.00
O27    O     0.56795   0.19536   0.93996   0.01267  Uiso   1.00
O28    O     0.43205   0.80464   0.93996   0.01267  Uiso   1.00
O29    O     0.06004   0.43205   0.19536   0.01267  Uiso   1.00
O30    O     0.06004   0.56795   0.80464   0.01267  Uiso   1.00
O31    O     0.93996   0.56795   0.19536   0.01267  Uiso   1.00
O32    O     0.93996   0.43205   0.80464   0.01267  Uiso   1.00
O33    O     0.19536   0.06004   0.43205   0.01267  Uiso   1.00
O34    O     0.80464   0.06004   0.56795   0.01267  Uiso   1.00
O35    O     0.19536   0.93996   0.56795   0.01267  Uiso   1.00
O36    O     0.80464   0.93996   0.43205   0.01267  Uiso   1.00
O37    O     0.69536   0.93205   0.43996   0.01267  Uiso   1.00
O38    O     0.30464   0.06795   0.43996   0.01267  Uiso   1.00
O39    O     0.69536   0.06795   0.56004   0.01267  Uiso   1.00
O40    O     0.30464   0.93205   0.56004   0.01267  Uiso   1.00
O41    O     0.93205   0.56004   0.30464   0.01267  Uiso   1.00
O42    O     0.06795   0.56004   0.69536   0.01267  Uiso   1.00
O43    O     0.06795   0.43996   0.30464   0.01267  Uiso   1.00
O44    O     0.93205   0.43996   0.69536   0.01267  Uiso   1.00
O45    O     0.56004   0.69536   0.06795   0.01267  Uiso   1.00
O46    O     0.56004   0.30464   0.93205   0.01267  Uiso   1.00
O47    O     0.43996   0.69536   0.93205   0.01267  Uiso   1.00
O48    O     0.43996   0.30464   0.06795   0.01267  Uiso   1.00
Na7    Na    0.50000   0.00000   0.25000   0.01267  Uiso   1.00
Na8    Na    0.50000   0.00000   0.75000   0.01267  Uiso   1.00
Na9    Na    0.25000   0.50000   0.00000   0.01267  Uiso   1.00
Na10   Na    0.75000   0.50000   0.00000   0.01267  Uiso   1.00
Na11   Na    0.00000   0.25000   0.50000   0.01267  Uiso   1.00
Na12   Na    0.00000   0.75000   0.50000   0.01267  Uiso   1.00
Na13   Na    0.87990   0.87990   0.87990   0.01267  Uiso   1.00
Na14   Na    0.12010   0.12010   0.87990   0.01267  Uiso   1.00
Na15   Na    0.12010   0.87990   0.12010   0.01267  Uiso   1.00
Na16   Na    0.87990   0.12010   0.12010   0.01267  Uiso   1.00
Na17   Na    0.37990   0.37990   0.62010   0.01267  Uiso   1.00
Na18   Na    0.62010   0.62010   0.62010   0.01267  Uiso   1.00
Na19   Na    0.37990   0.62010   0.37990   0.01267  Uiso   1.00
Na20   Na    0.62010   0.37990   0.37990   0.01267  Uiso   1.00
Na21   Na    0.12010   0.12010   0.12010   0.01267  Uiso   1.00
Na22   Na    0.87990   0.87990   0.12010   0.01267  Uiso   1.00
Na23   Na    0.87990   0.12010   0.87990   0.01267  Uiso   1.00
Na24   Na    0.12010   0.87990   0.87990   0.01267  Uiso   1.00
Na25   Na    0.62010   0.62010   0.37990   0.01267  Uiso   1.00
Na26   Na    0.37990   0.37990   0.37990   0.01267  Uiso   1.00
Na27   Na    0.62010   0.37990   0.62010   0.01267  Uiso   1.00
Na28   Na    0.37990   0.62010   0.62010   0.01267  Uiso   1.00
Cl1    Cl    0.77701   0.50000   0.77796   0.01267  Uiso   1.00
O49    O     0.78712   0.44922   0.81021   0.01267  Uiso   1.00
O50    O     0.78712   0.55078   0.81021   0.01267  Uiso   1.00
O51    O     0.71970   0.50000   0.75910   0.01267  Uiso   1.00
O52    O     0.81480   0.50000   0.72990   0.01267  Uiso   1.00
Cl2    Cl    0.22299   0.50000   0.77796   0.01267  Uiso   1.00
O53    O     0.21288   0.55078   0.81021   0.01267  Uiso   1.00
O54    O     0.21288   0.44922   0.81021   0.01267  Uiso   1.00
O55    O     0.28030   0.50000   0.75910   0.01267  Uiso   1.00
O56    O     0.18520   0.50000   0.72990   0.01267  Uiso   1.00
Cl3    Cl    0.22299   0.50000   0.22204   0.01267  Uiso   1.00
O57    O     0.21288   0.44922   0.18979   0.01267  Uiso   1.00
O58    O     0.21288   0.55078   0.18979   0.01267  Uiso   1.00
O59    O     0.28030   0.50000   0.24090   0.01267  Uiso   1.00
O60    O     0.18520   0.50000   0.27010   0.01267  Uiso   1.00
Cl4    Cl    0.77701   0.50000   0.22204   0.01267  Uiso   1.00
O61    O     0.78712   0.55078   0.18979   0.01267  Uiso   1.00
O62    O     0.78712   0.44922   0.18979   0.01267  Uiso   1.00
O63    O     0.71970   0.50000   0.24090   0.01267  Uiso   1.00
O64    O     0.81480   0.50000   0.27010   0.01267  Uiso   1.00
Cl5    Cl    0.77796   0.77701   0.50000   0.01267  Uiso   1.00
O65    O     0.81021   0.78712   0.44922   0.01267  Uiso   1.00
O66    O     0.81021   0.78712   0.55078   0.01267  Uiso   1.00
O67    O     0.75910   0.71970   0.50000   0.01267  Uiso   1.00
O68    O     0.72990   0.81480   0.50000   0.01267  Uiso   1.00
Cl6    Cl    0.77796   0.22299   0.50000   0.01267  Uiso   1.00
O69    O     0.81021   0.21288   0.55078   0.01267  Uiso   1.00
O70    O     0.81021   0.21288   0.44922   0.01267  Uiso   1.00
O71    O     0.75910   0.28030   0.50000   0.01267  Uiso   1.00
O72    O     0.72990   0.18520   0.50000   0.01267  Uiso   1.00
Cl7    Cl    0.22204   0.22299   0.50000   0.01267  Uiso   1.00
O73    O     0.18979   0.21288   0.44922   0.01267  Uiso   1.00
O74    O     0.18979   0.21288   0.55078   0.01267  Uiso   1.00
O75    O     0.24090   0.28030   0.50000   0.01267  Uiso   1.00
O76    O     0.27010   0.18520   0.50000   0.01267  Uiso   1.00
Cl8    Cl    0.22204   0.77701   0.50000   0.01267  Uiso   1.00
O77    O     0.18979   0.78712   0.55078   0.01267  Uiso   1.00
O78    O     0.18979   0.78712   0.44922   0.01267  Uiso   1.00
O79    O     0.24090   0.71970   0.50000   0.01267  Uiso   1.00
O80    O     0.27010   0.81480   0.50000   0.01267  Uiso   1.00
Cl9    Cl    0.50000   0.77796   0.77701   0.01267  Uiso   1.00
O81    O     0.44922   0.81021   0.78712   0.01267  Uiso   1.00
O82    O     0.55078   0.81021   0.78712   0.01267  Uiso   1.00
O83    O     0.50000   0.75910   0.71970   0.01267  Uiso   1.00
O84    O     0.50000   0.72990   0.81480   0.01267  Uiso   1.00
Cl10   Cl    0.50000   0.77796   0.22299   0.01267  Uiso   1.00
O85    O     0.55078   0.81021   0.21288   0.01267  Uiso   1.00
O86    O     0.44922   0.81021   0.21288   0.01267  Uiso   1.00
O87    O     0.50000   0.75910   0.28030   0.01267  Uiso   1.00
O88    O     0.50000   0.72990   0.18520   0.01267  Uiso   1.00
Cl11   Cl    0.50000   0.22204   0.22299   0.01267  Uiso   1.00
O89    O     0.44922   0.18979   0.21288   0.01267  Uiso   1.00
O90    O     0.55078   0.18979   0.21288   0.01267  Uiso   1.00
O91    O     0.50000   0.24090   0.28030   0.01267  Uiso   1.00
O92    O     0.50000   0.27010   0.18520   0.01267  Uiso   1.00
Cl12   Cl    0.50000   0.22204   0.77701   0.01267  Uiso   1.00
O93    O     0.55078   0.18979   0.78712   0.01267  Uiso   1.00
O94    O     0.44922   0.18979   0.78712   0.01267  Uiso   1.00
O95    O     0.50000   0.24090   0.71970   0.01267  Uiso   1.00
O96    O     0.50000   0.27010   0.81480   0.01267  Uiso   1.00
Cl13   Cl    0.00000   0.27701   0.72204   0.01267  Uiso   1.00
O97    O     0.94922   0.28712   0.68979   0.01267  Uiso   1.00
O98    O     0.05078   0.28712   0.68979   0.01267  Uiso   1.00
O99    O     0.00000   0.21970   0.74090   0.01267  Uiso   1.00
O100   O     0.00000   0.31480   0.77010   0.01267  Uiso   1.00
Cl14   Cl    0.00000   0.72299   0.72204   0.01267  Uiso   1.00
O101   O     0.05078   0.71288   0.68979   0.01267  Uiso   1.00
O102   O     0.94922   0.71288   0.68979   0.01267  Uiso   1.00
O103   O     0.00000   0.78030   0.74090   0.01267  Uiso   1.00
O104   O     0.00000   0.68520   0.77010   0.01267  Uiso   1.00
Cl15   Cl    0.00000   0.72299   0.27796   0.01267  Uiso   1.00
O105   O     0.94922   0.71288   0.31021   0.01267  Uiso   1.00
O106   O     0.05078   0.71288   0.31021   0.01267  Uiso   1.00
O107   O     0.00000   0.78030   0.25910   0.01267  Uiso   1.00
O108   O     0.00000   0.68520   0.22990   0.01267  Uiso   1.00
Cl16   Cl    0.00000   0.27701   0.27796   0.01267  Uiso   1.00
O109   O     0.05078   0.28712   0.31021   0.01267  Uiso   1.00
O110   O     0.94922   0.28712   0.31021   0.01267  Uiso   1.00
O111   O     0.00000   0.21970   0.25910   0.01267  Uiso   1.00
O112   O     0.00000   0.31480   0.22990   0.01267  Uiso   1.00
Cl17   Cl    0.27701   0.27796   0.00000   0.01267  Uiso   1.00
O113   O     0.28712   0.31021   0.05078   0.01267  Uiso   1.00
O114   O     0.28712   0.31021   0.94922   0.01267  Uiso   1.00
O115   O     0.21970   0.25910   0.00000   0.01267  Uiso   1.00
O116   O     0.31480   0.22990   0.00000   0.01267  Uiso   1.00
Cl18   Cl    0.72299   0.27796   0.00000   0.01267  Uiso   1.00
O117   O     0.71288   0.31021   0.94922   0.01267  Uiso   1.00
O118   O     0.71288   0.31021   0.05078   0.01267  Uiso   1.00
O119   O     0.78030   0.25910   0.00000   0.01267  Uiso   1.00
O120   O     0.68520   0.22990   0.00000   0.01267  Uiso   1.00
Cl19   Cl    0.72299   0.72204   0.00000   0.01267  Uiso   1.00
O121   O     0.71288   0.68979   0.05078   0.01267  Uiso   1.00
O122   O     0.71288   0.68979   0.94922   0.01267  Uiso   1.00
O123   O     0.78030   0.74090   0.00000   0.01267  Uiso   1.00
O124   O     0.68520   0.77010   0.00000   0.01267  Uiso   1.00
Cl20   Cl    0.27701   0.72204   0.00000   0.01267  Uiso   1.00
O125   O     0.28712   0.68979   0.94922   0.01267  Uiso   1.00
O126   O     0.28712   0.68979   0.05078   0.01267  Uiso   1.00
O127   O     0.21970   0.74090   0.00000   0.01267  Uiso   1.00
O128   O     0.31480   0.77010   0.00000   0.01267  Uiso   1.00
Cl21   Cl    0.27796   0.00000   0.72299   0.01267  Uiso   1.00
O129   O     0.31021   0.94922   0.71288   0.01267  Uiso   1.00
O130   O     0.31021   0.05078   0.71288   0.01267  Uiso   1.00
O131   O     0.25910   0.00000   0.78030   0.01267  Uiso   1.00
O132   O     0.22990   0.00000   0.68520   0.01267  Uiso   1.00
Cl22   Cl    0.27796   0.00000   0.27701   0.01267  Uiso   1.00
O133   O     0.31021   0.05078   0.28712   0.01267  Uiso   1.00
O134   O     0.31021   0.94922   0.28712   0.01267  Uiso   1.00
O135   O     0.25910   0.00000   0.21970   0.01267  Uiso   1.00
O136   O     0.22990   0.00000   0.31480   0.01267  Uiso   1.00
Cl23   Cl    0.72204   0.00000   0.27701   0.01267  Uiso   1.00
O137   O     0.68979   0.94922   0.28712   0.01267  Uiso   1.00
O138   O     0.68979   0.05078   0.28712   0.01267  Uiso   1.00
O139   O     0.74090   0.00000   0.21970   0.01267  Uiso   1.00
O140   O     0.77010   0.00000   0.31480   0.01267  Uiso   1.00
Cl24   Cl    0.72204   0.00000   0.72299   0.01267  Uiso   1.00
O141   O     0.68979   0.05078   0.71288   0.01267  Uiso   1.00
O142   O     0.68979   0.94922   0.71288   0.01267  Uiso   1.00
O143   O     0.74090   0.00000   0.78030   0.01267  Uiso   1.00
O144   O     0.77010   0.00000   0.68520   0.01267  Uiso   1.00
