data_image0
_cell_length_a       27.6571
_cell_length_b       27.6571
_cell_length_c       27.6571
_cell_angle_alpha    90
_cell_angle_beta     90
_cell_angle_gamma    90

_symmetry_space_group_name_H-M    "P 1"
_symmetry_int_tables_number       1

loop_
  _symmetry_equiv_pos_as_xyz
  'x, y, z'

loop_
  _atom_site_label
  _atom_site_occupancy
  _atom_site_fract_x
  _atom_site_fract_y
  _atom_site_fract_z
  _atom_site_thermal_displace_type
  _atom_site_B_iso_or_equiv
  _atom_site_type_symbol
  O1       1.0000 0.05260  0.79009  0.55225  Biso   1.000  O
  O2       1.0000 0.04982  0.70795  0.54853  Biso   1.000  O
  C1       1.0000 0.06520  0.74209  0.56430  Biso   1.000  C
  C2       1.0000 0.10373  0.74582  0.60859  Biso   1.000  C
  C3       1.0000 0.12444  0.70439  0.62809  Biso   1.000  C
  H1       1.0000 0.11450  0.67410  0.61750  Biso   1.000  H
  C4       1.0000 0.15994  0.70829  0.66345  Biso   1.000  C
  H2       1.0000 0.17380  0.68060  0.67650  Biso   1.000  H
  C5       1.0000 0.17474  0.75360  0.67931  Biso   1.000  C
  C6       1.0000 0.15404  0.79506  0.65980  Biso   1.000  C
  H3       1.0000 0.16390  0.82540  0.67040  Biso   1.000  H
  C7       1.0000 0.11853  0.79116  0.62445  Biso   1.000  C
  H4       1.0000 0.10470  0.81890  0.61140  Biso   1.000  H
  C8       1.0000 0.21875  0.74690  0.71200  Biso   1.000  C
  C9       1.0000 0.21540  0.71410  0.74850  Biso   1.000  C
  H5       1.0000 0.18870  0.69390  0.75140  Biso   1.000  H
  C10      1.0000 0.03670  0.60420  0.52017  Biso   1.000  C
  H6       1.0000 0.06210  0.62160  0.53370  Biso   1.000  H
  C11      1.0000 0.03770  0.55280  0.52140  Biso   1.000  C
  N1       1.0000 0.07560  0.52330  0.54160  Biso   1.000  N
  H7       1.0000 0.07370  0.49230  0.53990  Biso   1.000  H
  H8       1.0000 0.10010  0.53670  0.55540  Biso   1.000  H
  C12      1.0000 0.98992  0.60240  0.54070  Biso   1.000  C
  H9       1.0000 0.98320  0.61990  0.56860  Biso   1.000  H
  C13      1.0000 0.98890  0.55110  0.54370  Biso   1.000  C
  N2       1.0000 0.97700  0.53620  0.59250  Biso   1.000  N
  H10      1.0000 0.97570  0.50600  0.59970  Biso   1.000  H
  H11      1.0000 0.97140  0.55760  0.61440  Biso   1.000  H
  O3       1.0000 0.94740  0.20991  0.55225  Biso   1.000  O
  O4       1.0000 0.95018  0.29205  0.54853  Biso   1.000  O
  C14      1.0000 0.93480  0.25791  0.56430  Biso   1.000  C
  C15      1.0000 0.89627  0.25418  0.60859  Biso   1.000  C
  C16      1.0000 0.87556  0.29561  0.62809  Biso   1.000  C
  H12      1.0000 0.88550  0.32590  0.61750  Biso   1.000  H
  C17      1.0000 0.84006  0.29171  0.66345  Biso   1.000  C
  H13      1.0000 0.82620  0.31940  0.67650  Biso   1.000  H
  C18      1.0000 0.82526  0.24640  0.67931  Biso   1.000  C
  C19      1.0000 0.84596  0.20494  0.65980  Biso   1.000  C
  H14      1.0000 0.83610  0.17460  0.67040  Biso   1.000  H
  C20      1.0000 0.88147  0.20884  0.62445  Biso   1.000  C
  H15      1.0000 0.89530  0.18110  0.61140  Biso   1.000  H
  C21      1.0000 0.78125  0.25310  0.71200  Biso   1.000  C
  C22      1.0000 0.78460  0.28590  0.74850  Biso   1.000  C
  H16      1.0000 0.81130  0.30610  0.75140  Biso   1.000  H
  C23      1.0000 0.96330  0.39580  0.52017  Biso   1.000  C
  H17      1.0000 0.93790  0.37840  0.53370  Biso   1.000  H
  C24      1.0000 0.96230  0.44720  0.52140  Biso   1.000  C
  N3       1.0000 0.92440  0.47670  0.54160  Biso   1.000  N
  H18      1.0000 0.92630  0.50770  0.53990  Biso   1.000  H
  H19      1.0000 0.89990  0.46330  0.55540  Biso   1.000  H
  C25      1.0000 0.01008  0.39760  0.54070  Biso   1.000  C
  H20      1.0000 0.01680  0.38010  0.56860  Biso   1.000  H
  C26      1.0000 0.01110  0.44890  0.54370  Biso   1.000  C
  N4       1.0000 0.02300  0.46380  0.59250  Biso   1.000  N
  H21      1.0000 0.02430  0.49400  0.59970  Biso   1.000  H
  H22      1.0000 0.02860  0.44240  0.61440  Biso   1.000  H
  O5       1.0000 0.94740  0.79009  0.44775  Biso   1.000  O
  O6       1.0000 0.95018  0.70795  0.45147  Biso   1.000  O
  C27      1.0000 0.93480  0.74209  0.43570  Biso   1.000  C
  C28      1.0000 0.89627  0.74582  0.39141  Biso   1.000  C
  C29      1.0000 0.87556  0.70439  0.37191  Biso   1.000  C
  H23      1.0000 0.88550  0.67410  0.38250  Biso   1.000  H
  C30      1.0000 0.84006  0.70829  0.33655  Biso   1.000  C
  H24      1.0000 0.82620  0.68060  0.32350  Biso   1.000  H
  C31      1.0000 0.82526  0.75360  0.32069  Biso   1.000  C
  C32      1.0000 0.84596  0.79506  0.34020  Biso   1.000  C
  H25      1.0000 0.83610  0.82540  0.32960  Biso   1.000  H
  C33      1.0000 0.88147  0.79116  0.37555  Biso   1.000  C
  H26      1.0000 0.89530  0.81890  0.38860  Biso   1.000  H
  C34      1.0000 0.78125  0.74690  0.28800  Biso   1.000  C
  C35      1.0000 0.78460  0.71410  0.25150  Biso   1.000  C
  H27      1.0000 0.81130  0.69390  0.24860  Biso   1.000  H
  C36      1.0000 0.96330  0.60420  0.47983  Biso   1.000  C
  H28      1.0000 0.93790  0.62160  0.46630  Biso   1.000  H
  C37      1.0000 0.96230  0.55280  0.47860  Biso   1.000  C
  N5       1.0000 0.92440  0.52330  0.45840  Biso   1.000  N
  H29      1.0000 0.92630  0.49230  0.46010  Biso   1.000  H
  H30      1.0000 0.89990  0.53670  0.44460  Biso   1.000  H
  C38      1.0000 0.01008  0.60240  0.45930  Biso   1.000  C
  H31      1.0000 0.01680  0.61990  0.43140  Biso   1.000  H
  C39      1.0000 0.01110  0.55110  0.45630  Biso   1.000  C
  N6       1.0000 0.02300  0.53620  0.40750  Biso   1.000  N
  H32      1.0000 0.02430  0.50600  0.40030  Biso   1.000  H
  H33      1.0000 0.02860  0.55760  0.38560  Biso   1.000  H
  O7       1.0000 0.05260  0.20991  0.44775  Biso   1.000  O
  O8       1.0000 0.04982  0.29205  0.45147  Biso   1.000  O
  C40      1.0000 0.06520  0.25791  0.43570  Biso   1.000  C
  C41      1.0000 0.10373  0.25418  0.39141  Biso   1.000  C
  C42      1.0000 0.12444  0.29561  0.37191  Biso   1.000  C
  H34      1.0000 0.11450  0.32590  0.38250  Biso   1.000  H
  C43      1.0000 0.15994  0.29171  0.33655  Biso   1.000  C
  H35      1.0000 0.17380  0.31940  0.32350  Biso   1.000  H
  C44      1.0000 0.17474  0.24640  0.32069  Biso   1.000  C
  C45      1.0000 0.15404  0.20494  0.34020  Biso   1.000  C
  H36      1.0000 0.16390  0.17460  0.32960  Biso   1.000  H
  C46      1.0000 0.11853  0.20884  0.37555  Biso   1.000  C
  H37      1.0000 0.10470  0.18110  0.38860  Biso   1.000  H
  C47      1.0000 0.21875  0.25310  0.28800  Biso   1.000  C
  C48      1.0000 0.21540  0.28590  0.25150  Biso   1.000  C
  H38      1.0000 0.18870  0.30610  0.24860  Biso   1.000  H
  C49      1.0000 0.03670  0.39580  0.47983  Biso   1.000  C
  H39      1.0000 0.06210  0.37840  0.46630  Biso   1.000  H
  C50      1.0000 0.03770  0.44720  0.47860  Biso   1.000  C
  N7       1.0000 0.07560  0.47670  0.45840  Biso   1.000  N
  H40      1.0000 0.07370  0.50770  0.46010  Biso   1.000  H
  H41      1.0000 0.10010  0.46330  0.44460  Biso   1.000  H
  C51      1.0000 0.98992  0.39760  0.45930  Biso   1.000  C
  H42      1.0000 0.98320  0.38010  0.43140  Biso   1.000  H
  C52      1.0000 0.98890  0.44890  0.45630  Biso   1.000  C
  N8       1.0000 0.97700  0.46380  0.40750  Biso   1.000  N
  H43      1.0000 0.97570  0.49400  0.40030  Biso   1.000  H
  H44      1.0000 0.97140  0.44240  0.38560  Biso   1.000  H
  O9       1.0000 0.55225  0.05260  0.79009  Biso   1.000  O
  O10      1.0000 0.54853  0.04982  0.70795  Biso   1.000  O
  C53      1.0000 0.56430  0.06520  0.74209  Biso   1.000  C
  C54      1.0000 0.60859  0.10373  0.74582  Biso   1.000  C
  C55      1.0000 0.62809  0.12444  0.70439  Biso   1.000  C
  H45      1.0000 0.61750  0.11450  0.67410  Biso   1.000  H
  C56      1.0000 0.66345  0.15994  0.70829  Biso   1.000  C
  H46      1.0000 0.67650  0.17380  0.68060  Biso   1.000  H
  C57      1.0000 0.67931  0.17474  0.75360  Biso   1.000  C
  C58      1.0000 0.65980  0.15404  0.79506  Biso   1.000  C
  H47      1.0000 0.67040  0.16390  0.82540  Biso   1.000  H
  C59      1.0000 0.62445  0.11853  0.79116  Biso   1.000  C
  H48      1.0000 0.61140  0.10470  0.81890  Biso   1.000  H
  C60      1.0000 0.71200  0.21875  0.74690  Biso   1.000  C
  C61      1.0000 0.74850  0.21540  0.71410  Biso   1.000  C
  H49      1.0000 0.75140  0.18870  0.69390  Biso   1.000  H
  C62      1.0000 0.52017  0.03670  0.60420  Biso   1.000  C
  H50      1.0000 0.53370  0.06210  0.62160  Biso   1.000  H
  C63      1.0000 0.52140  0.03770  0.55280  Biso   1.000  C
  N9       1.0000 0.54160  0.07560  0.52330  Biso   1.000  N
  H51      1.0000 0.53990  0.07370  0.49230  Biso   1.000  H
  H52      1.0000 0.55540  0.10010  0.53670  Biso   1.000  H
  C64      1.0000 0.54070  0.98992  0.60240  Biso   1.000  C
  H53      1.0000 0.56860  0.98320  0.61990  Biso   1.000  H
  C65      1.0000 0.54370  0.98890  0.55110  Biso   1.000  C
  N10      1.0000 0.59250  0.97700  0.53620  Biso   1.000  N
  H54      1.0000 0.59970  0.97570  0.50600  Biso   1.000  H
  H55      1.0000 0.61440  0.97140  0.55760  Biso   1.000  H
  O11      1.0000 0.55225  0.94740  0.20991  Biso   1.000  O
  O12      1.0000 0.54853  0.95018  0.29205  Biso   1.000  O
  C66      1.0000 0.56430  0.93480  0.25791  Biso   1.000  C
  C67      1.0000 0.60859  0.89627  0.25418  Biso   1.000  C
  C68      1.0000 0.62809  0.87556  0.29561  Biso   1.000  C
  H56      1.0000 0.61750  0.88550  0.32590  Biso   1.000  H
  C69      1.0000 0.66345  0.84006  0.29171  Biso   1.000  C
  H57      1.0000 0.67650  0.82620  0.31940  Biso   1.000  H
  C70      1.0000 0.67931  0.82526  0.24640  Biso   1.000  C
  C71      1.0000 0.65980  0.84596  0.20494  Biso   1.000  C
  H58      1.0000 0.67040  0.83610  0.17460  Biso   1.000  H
  C72      1.0000 0.62445  0.88147  0.20884  Biso   1.000  C
  H59      1.0000 0.61140  0.89530  0.18110  Biso   1.000  H
  C73      1.0000 0.71200  0.78125  0.25310  Biso   1.000  C
  C74      1.0000 0.74850  0.78460  0.28590  Biso   1.000  C
  H60      1.0000 0.75140  0.81130  0.30610  Biso   1.000  H
  C75      1.0000 0.52017  0.96330  0.39580  Biso   1.000  C
  H61      1.0000 0.53370  0.93790  0.37840  Biso   1.000  H
  C76      1.0000 0.52140  0.96230  0.44720  Biso   1.000  C
  N11      1.0000 0.54160  0.92440  0.47670  Biso   1.000  N
  H62      1.0000 0.53990  0.92630  0.50770  Biso   1.000  H
  H63      1.0000 0.55540  0.89990  0.46330  Biso   1.000  H
  C77      1.0000 0.54070  0.01008  0.39760  Biso   1.000  C
  H64      1.0000 0.56860  0.01680  0.38010  Biso   1.000  H
  C78      1.0000 0.54370  0.01110  0.44890  Biso   1.000  C
  N12      1.0000 0.59250  0.02300  0.46380  Biso   1.000  N
  H65      1.0000 0.59970  0.02430  0.49400  Biso   1.000  H
  H66      1.0000 0.61440  0.02860  0.44240  Biso   1.000  H
  O13      1.0000 0.44775  0.94740  0.79009  Biso   1.000  O
  O14      1.0000 0.45147  0.95018  0.70795  Biso   1.000  O
  C79      1.0000 0.43570  0.93480  0.74209  Biso   1.000  C
  C80      1.0000 0.39141  0.89627  0.74582  Biso   1.000  C
  C81      1.0000 0.37191  0.87556  0.70439  Biso   1.000  C
  H67      1.0000 0.38250  0.88550  0.67410  Biso   1.000  H
  C82      1.0000 0.33655  0.84006  0.70829  Biso   1.000  C
  H68      1.0000 0.32350  0.82620  0.68060  Biso   1.000  H
  C83      1.0000 0.32069  0.82526  0.75360  Biso   1.000  C
  C84      1.0000 0.34020  0.84596  0.79506  Biso   1.000  C
  H69      1.0000 0.32960  0.83610  0.82540  Biso   1.000  H
  C85      1.0000 0.37555  0.88147  0.79116  Biso   1.000  C
  H70      1.0000 0.38860  0.89530  0.81890  Biso   1.000  H
  C86      1.0000 0.28800  0.78125  0.74690  Biso   1.000  C
  C87      1.0000 0.25150  0.78460  0.71410  Biso   1.000  C
  H71      1.0000 0.24860  0.81130  0.69390  Biso   1.000  H
  C88      1.0000 0.47983  0.96330  0.60420  Biso   1.000  C
  H72      1.0000 0.46630  0.93790  0.62160  Biso   1.000  H
  C89      1.0000 0.47860  0.96230  0.55280  Biso   1.000  C
  N13      1.0000 0.45840  0.92440  0.52330  Biso   1.000  N
  H73      1.0000 0.46010  0.92630  0.49230  Biso   1.000  H
  H74      1.0000 0.44460  0.89990  0.53670  Biso   1.000  H
  C90      1.0000 0.45930  0.01008  0.60240  Biso   1.000  C
  H75      1.0000 0.43140  0.01680  0.61990  Biso   1.000  H
  C91      1.0000 0.45630  0.01110  0.55110  Biso   1.000  C
  N14      1.0000 0.40750  0.02300  0.53620  Biso   1.000  N
  H76      1.0000 0.40030  0.02430  0.50600  Biso   1.000  H
  H77      1.0000 0.38560  0.02860  0.55760  Biso   1.000  H
  O15      1.0000 0.44775  0.05260  0.20991  Biso   1.000  O
  O16      1.0000 0.45147  0.04982  0.29205  Biso   1.000  O
  C92      1.0000 0.43570  0.06520  0.25791  Biso   1.000  C
  C93      1.0000 0.39141  0.10373  0.25418  Biso   1.000  C
  C94      1.0000 0.37191  0.12444  0.29561  Biso   1.000  C
  H78      1.0000 0.38250  0.11450  0.32590  Biso   1.000  H
  C95      1.0000 0.33655  0.15994  0.29171  Biso   1.000  C
  H79      1.0000 0.32350  0.17380  0.31940  Biso   1.000  H
  C96      1.0000 0.32069  0.17474  0.24640  Biso   1.000  C
  C97      1.0000 0.34020  0.15404  0.20494  Biso   1.000  C
  H80      1.0000 0.32960  0.16390  0.17460  Biso   1.000  H
  C98      1.0000 0.37555  0.11853  0.20884  Biso   1.000  C
  H81      1.0000 0.38860  0.10470  0.18110  Biso   1.000  H
  C99      1.0000 0.28800  0.21875  0.25310  Biso   1.000  C
  C100     1.0000 0.25150  0.21540  0.28590  Biso   1.000  C
  H82      1.0000 0.24860  0.18870  0.30610  Biso   1.000  H
  C101     1.0000 0.47983  0.03670  0.39580  Biso   1.000  C
  H83      1.0000 0.46630  0.06210  0.37840  Biso   1.000  H
  C102     1.0000 0.47860  0.03770  0.44720  Biso   1.000  C
  N15      1.0000 0.45840  0.07560  0.47670  Biso   1.000  N
  H84      1.0000 0.46010  0.07370  0.50770  Biso   1.000  H
  H85      1.0000 0.44460  0.10010  0.46330  Biso   1.000  H
  C103     1.0000 0.45930  0.98992  0.39760  Biso   1.000  C
  H86      1.0000 0.43140  0.98320  0.38010  Biso   1.000  H
  C104     1.0000 0.45630  0.98890  0.44890  Biso   1.000  C
  N16      1.0000 0.40750  0.97700  0.46380  Biso   1.000  N
  H87      1.0000 0.40030  0.97570  0.49400  Biso   1.000  H
  H88      1.0000 0.38560  0.97140  0.44240  Biso   1.000  H
  O17      1.0000 0.79009  0.55225  0.05260  Biso   1.000  O
  O18      1.0000 0.70795  0.54853  0.04982  Biso   1.000  O
  C105     1.0000 0.74209  0.56430  0.06520  Biso   1.000  C
  C106     1.0000 0.74582  0.60859  0.10373  Biso   1.000  C
  C107     1.0000 0.70439  0.62809  0.12444  Biso   1.000  C
  H89      1.0000 0.67410  0.61750  0.11450  Biso   1.000  H
  C108     1.0000 0.70829  0.66345  0.15994  Biso   1.000  C
  H90      1.0000 0.68060  0.67650  0.17380  Biso   1.000  H
  C109     1.0000 0.75360  0.67931  0.17474  Biso   1.000  C
  C110     1.0000 0.79506  0.65980  0.15404  Biso   1.000  C
  H91      1.0000 0.82540  0.67040  0.16390  Biso   1.000  H
  C111     1.0000 0.79116  0.62445  0.11853  Biso   1.000  C
  H92      1.0000 0.81890  0.61140  0.10470  Biso   1.000  H
  C112     1.0000 0.74690  0.71200  0.21875  Biso   1.000  C
  C113     1.0000 0.71410  0.74850  0.21540  Biso   1.000  C
  H93      1.0000 0.69390  0.75140  0.18870  Biso   1.000  H
  C114     1.0000 0.60420  0.52017  0.03670  Biso   1.000  C
  H94      1.0000 0.62160  0.53370  0.06210  Biso   1.000  H
  C115     1.0000 0.55280  0.52140  0.03770  Biso   1.000  C
  N17      1.0000 0.52330  0.54160  0.07560  Biso   1.000  N
  H95      1.0000 0.49230  0.53990  0.07370  Biso   1.000  H
  H96      1.0000 0.53670  0.55540  0.10010  Biso   1.000  H
  C116     1.0000 0.60240  0.54070  0.98992  Biso   1.000  C
  H97      1.0000 0.61990  0.56860  0.98320  Biso   1.000  H
  C117     1.0000 0.55110  0.54370  0.98890  Biso   1.000  C
  N18      1.0000 0.53620  0.59250  0.97700  Biso   1.000  N
  H98      1.0000 0.50600  0.59970  0.97570  Biso   1.000  H
  H99      1.0000 0.55760  0.61440  0.97140  Biso   1.000  H
  O19      1.0000 0.20991  0.55225  0.94740  Biso   1.000  O
  O20      1.0000 0.29205  0.54853  0.95018  Biso   1.000  O
  C118     1.0000 0.25791  0.56430  0.93480  Biso   1.000  C
  C119     1.0000 0.25418  0.60859  0.89627  Biso   1.000  C
  C120     1.0000 0.29561  0.62809  0.87556  Biso   1.000  C
  H100     1.0000 0.32590  0.61750  0.88550  Biso   1.000  H
  C121     1.0000 0.29171  0.66345  0.84006  Biso   1.000  C
  H101     1.0000 0.31940  0.67650  0.82620  Biso   1.000  H
  C122     1.0000 0.24640  0.67931  0.82526  Biso   1.000  C
  C123     1.0000 0.20494  0.65980  0.84596  Biso   1.000  C
  H102     1.0000 0.17460  0.67040  0.83610  Biso   1.000  H
  C124     1.0000 0.20884  0.62445  0.88147  Biso   1.000  C
  H103     1.0000 0.18110  0.61140  0.89530  Biso   1.000  H
  C125     1.0000 0.25310  0.71200  0.78125  Biso   1.000  C
  C126     1.0000 0.28590  0.74850  0.78460  Biso   1.000  C
  H104     1.0000 0.30610  0.75140  0.81130  Biso   1.000  H
  C127     1.0000 0.39580  0.52017  0.96330  Biso   1.000  C
  H105     1.0000 0.37840  0.53370  0.93790  Biso   1.000  H
  C128     1.0000 0.44720  0.52140  0.96230  Biso   1.000  C
  N19      1.0000 0.47670  0.54160  0.92440  Biso   1.000  N
  H106     1.0000 0.50770  0.53990  0.92630  Biso   1.000  H
  H107     1.0000 0.46330  0.55540  0.89990  Biso   1.000  H
  C129     1.0000 0.39760  0.54070  0.01008  Biso   1.000  C
  H108     1.0000 0.38010  0.56860  0.01680  Biso   1.000  H
  C130     1.0000 0.44890  0.54370  0.01110  Biso   1.000  C
  N20      1.0000 0.46380  0.59250  0.02300  Biso   1.000  N
  H109     1.0000 0.49400  0.59970  0.02430  Biso   1.000  H
  H110     1.0000 0.44240  0.61440  0.02860  Biso   1.000  H
  O21      1.0000 0.79009  0.44775  0.94740  Biso   1.000  O
  O22      1.0000 0.70795  0.45147  0.95018  Biso   1.000  O
  C131     1.0000 0.74209  0.43570  0.93480  Biso   1.000  C
  C132     1.0000 0.74582  0.39141  0.89627  Biso   1.000  C
  C133     1.0000 0.70439  0.37191  0.87556  Biso   1.000  C
  H111     1.0000 0.67410  0.38250  0.88550  Biso   1.000  H
  C134     1.0000 0.70829  0.33655  0.84006  Biso   1.000  C
  H112     1.0000 0.68060  0.32350  0.82620  Biso   1.000  H
  C135     1.0000 0.75360  0.32069  0.82526  Biso   1.000  C
  C136     1.0000 0.79506  0.34020  0.84596  Biso   1.000  C
  H113     1.0000 0.82540  0.32960  0.83610  Biso   1.000  H
  C137     1.0000 0.79116  0.37555  0.88147  Biso   1.000  C
  H114     1.0000 0.81890  0.38860  0.89530  Biso   1.000  H
  C138     1.0000 0.74690  0.28800  0.78125  Biso   1.000  C
  C139     1.0000 0.71410  0.25150  0.78460  Biso   1.000  C
  H115     1.0000 0.69390  0.24860  0.81130  Biso   1.000  H
  C140     1.0000 0.60420  0.47983  0.96330  Biso   1.000  C
  H116     1.0000 0.62160  0.46630  0.93790  Biso   1.000  H
  C141     1.0000 0.55280  0.47860  0.96230  Biso   1.000  C
  N21      1.0000 0.52330  0.45840  0.92440  Biso   1.000  N
  H117     1.0000 0.49230  0.46010  0.92630  Biso   1.000  H
  H118     1.0000 0.53670  0.44460  0.89990  Biso   1.000  H
  C142     1.0000 0.60240  0.45930  0.01008  Biso   1.000  C
  H119     1.0000 0.61990  0.43140  0.01680  Biso   1.000  H
  C143     1.0000 0.55110  0.45630  0.01110  Biso   1.000  C
  N22      1.0000 0.53620  0.40750  0.02300  Biso   1.000  N
  H120     1.0000 0.50600  0.40030  0.02430  Biso   1.000  H
  H121     1.0000 0.55760  0.38560  0.02860  Biso   1.000  H
  O23      1.0000 0.20991  0.44775  0.05260  Biso   1.000  O
  O24      1.0000 0.29205  0.45147  0.04982  Biso   1.000  O
  C144     1.0000 0.25791  0.43570  0.06520  Biso   1.000  C
  C145     1.0000 0.25418  0.39141  0.10373  Biso   1.000  C
  C146     1.0000 0.29561  0.37191  0.12444  Biso   1.000  C
  H122     1.0000 0.32590  0.38250  0.11450  Biso   1.000  H
  C147     1.0000 0.29171  0.33655  0.15994  Biso   1.000  C
  H123     1.0000 0.31940  0.32350  0.17380  Biso   1.000  H
  C148     1.0000 0.24640  0.32069  0.17474  Biso   1.000  C
  C149     1.0000 0.20494  0.34020  0.15404  Biso   1.000  C
  H124     1.0000 0.17460  0.32960  0.16390  Biso   1.000  H
  C150     1.0000 0.20884  0.37555  0.11853  Biso   1.000  C
  H125     1.0000 0.18110  0.38860  0.10470  Biso   1.000  H
  C151     1.0000 0.25310  0.28800  0.21875  Biso   1.000  C
  C152     1.0000 0.28590  0.25150  0.21540  Biso   1.000  C
  H126     1.0000 0.30610  0.24860  0.18870  Biso   1.000  H
  C153     1.0000 0.39580  0.47983  0.03670  Biso   1.000  C
  H127     1.0000 0.37840  0.46630  0.06210  Biso   1.000  H
  C154     1.0000 0.44720  0.47860  0.03770  Biso   1.000  C
  N23      1.0000 0.47670  0.45840  0.07560  Biso   1.000  N
  H128     1.0000 0.50770  0.46010  0.07370  Biso   1.000  H
  H129     1.0000 0.46330  0.44460  0.10010  Biso   1.000  H
  C155     1.0000 0.39760  0.45930  0.98992  Biso   1.000  C
  H130     1.0000 0.38010  0.43140  0.98320  Biso   1.000  H
  C156     1.0000 0.44890  0.45630  0.98890  Biso   1.000  C
  N24      1.0000 0.46380  0.40750  0.97700  Biso   1.000  N
  H131     1.0000 0.49400  0.40030  0.97570  Biso   1.000  H
  H132     1.0000 0.44240  0.38560  0.97140  Biso   1.000  H
  O25      1.0000 0.29009  0.55260  0.05225  Biso   1.000  O
  O26      1.0000 0.20795  0.54982  0.04853  Biso   1.000  O
  C157     1.0000 0.24209  0.56520  0.06430  Biso   1.000  C
  C158     1.0000 0.24582  0.60373  0.10859  Biso   1.000  C
  C159     1.0000 0.20439  0.62444  0.12809  Biso   1.000  C
  H133     1.0000 0.17410  0.61450  0.11750  Biso   1.000  H
  C160     1.0000 0.20829  0.65994  0.16345  Biso   1.000  C
  H134     1.0000 0.18060  0.67380  0.17650  Biso   1.000  H
  C161     1.0000 0.25360  0.67474  0.17931  Biso   1.000  C
  C162     1.0000 0.29506  0.65404  0.15980  Biso   1.000  C
  H135     1.0000 0.32540  0.66390  0.17040  Biso   1.000  H
  C163     1.0000 0.29116  0.61853  0.12445  Biso   1.000  C
  H136     1.0000 0.31890  0.60470  0.11140  Biso   1.000  H
  C164     1.0000 0.24690  0.71875  0.21200  Biso   1.000  C
  C165     1.0000 0.21410  0.71540  0.24850  Biso   1.000  C
  H137     1.0000 0.19390  0.68870  0.25140  Biso   1.000  H
  C166     1.0000 0.10420  0.53670  0.02017  Biso   1.000  C
  H138     1.0000 0.12160  0.56210  0.03370  Biso   1.000  H
  C167     1.0000 0.05280  0.53770  0.02140  Biso   1.000  C
  N25      1.0000 0.02330  0.57560  0.04160  Biso   1.000  N
  H139     1.0000 0.99230  0.57370  0.03990  Biso   1.000  H
  H140     1.0000 0.03670  0.60010  0.05540  Biso   1.000  H
  C168     1.0000 0.10240  0.48992  0.04070  Biso   1.000  C
  H141     1.0000 0.11990  0.48320  0.06860  Biso   1.000  H
  C169     1.0000 0.05110  0.48890  0.04370  Biso   1.000  C
  N26      1.0000 0.03620  0.47700  0.09250  Biso   1.000  N
  H142     1.0000 0.00600  0.47570  0.09970  Biso   1.000  H
  H143     1.0000 0.05760  0.47140  0.11440  Biso   1.000  H
  O27      1.0000 0.70991  0.44740  0.05225  Biso   1.000  O
  O28      1.0000 0.79205  0.45018  0.04853  Biso   1.000  O
  C170     1.0000 0.75791  0.43480  0.06430  Biso   1.000  C
  C171     1.0000 0.75418  0.39627  0.10859  Biso   1.000  C
  C172     1.0000 0.79561  0.37556  0.12809  Biso   1.000  C
  H144     1.0000 0.82590  0.38550  0.11750  Biso   1.000  H
  C173     1.0000 0.79171  0.34006  0.16345  Biso   1.000  C
  H145     1.0000 0.81940  0.32620  0.17650  Biso   1.000  H
  C174     1.0000 0.74640  0.32526  0.17931  Biso   1.000  C
  C175     1.0000 0.70494  0.34596  0.15980  Biso   1.000  C
  H146     1.0000 0.67460  0.33610  0.17040  Biso   1.000  H
  C176     1.0000 0.70884  0.38147  0.12445  Biso   1.000  C
  H147     1.0000 0.68110  0.39530  0.11140  Biso   1.000  H
  C177     1.0000 0.75310  0.28125  0.21200  Biso   1.000  C
  C178     1.0000 0.78590  0.28460  0.24850  Biso   1.000  C
  H148     1.0000 0.80610  0.31130  0.25140  Biso   1.000  H
  C179     1.0000 0.89580  0.46330  0.02017  Biso   1.000  C
  H149     1.0000 0.87840  0.43790  0.03370  Biso   1.000  H
  C180     1.0000 0.94720  0.46230  0.02140  Biso   1.000  C
  N27      1.0000 0.97670  0.42440  0.04160  Biso   1.000  N
  H150     1.0000 0.00770  0.42630  0.03990  Biso   1.000  H
  H151     1.0000 0.96330  0.39990  0.05540  Biso   1.000  H
  C181     1.0000 0.89760  0.51008  0.04070  Biso   1.000  C
  H152     1.0000 0.88010  0.51680  0.06860  Biso   1.000  H
  C182     1.0000 0.94890  0.51110  0.04370  Biso   1.000  C
  N28      1.0000 0.96380  0.52300  0.09250  Biso   1.000  N
  H153     1.0000 0.99400  0.52430  0.09970  Biso   1.000  H
  H154     1.0000 0.94240  0.52860  0.11440  Biso   1.000  H
  O29      1.0000 0.29009  0.44740  0.94775  Biso   1.000  O
  O30      1.0000 0.20795  0.45018  0.95147  Biso   1.000  O
  C183     1.0000 0.24209  0.43480  0.93570  Biso   1.000  C
  C184     1.0000 0.24582  0.39627  0.89141  Biso   1.000  C
  C185     1.0000 0.20439  0.37556  0.87191  Biso   1.000  C
  H155     1.0000 0.17410  0.38550  0.88250  Biso   1.000  H
  C186     1.0000 0.20829  0.34006  0.83655  Biso   1.000  C
  H156     1.0000 0.18060  0.32620  0.82350  Biso   1.000  H
  C187     1.0000 0.25360  0.32526  0.82069  Biso   1.000  C
  C188     1.0000 0.29506  0.34596  0.84020  Biso   1.000  C
  H157     1.0000 0.32540  0.33610  0.82960  Biso   1.000  H
  C189     1.0000 0.29116  0.38147  0.87555  Biso   1.000  C
  H158     1.0000 0.31890  0.39530  0.88860  Biso   1.000  H
  C190     1.0000 0.24690  0.28125  0.78800  Biso   1.000  C
  C191     1.0000 0.21410  0.28460  0.75150  Biso   1.000  C
  H159     1.0000 0.19390  0.31130  0.74860  Biso   1.000  H
  C192     1.0000 0.10420  0.46330  0.97983  Biso   1.000  C
  H160     1.0000 0.12160  0.43790  0.96630  Biso   1.000  H
  C193     1.0000 0.05280  0.46230  0.97860  Biso   1.000  C
  N29      1.0000 0.02330  0.42440  0.95840  Biso   1.000  N
  H161     1.0000 0.99230  0.42630  0.96010  Biso   1.000  H
  H162     1.0000 0.03670  0.39990  0.94460  Biso   1.000  H
  C194     1.0000 0.10240  0.51008  0.95930  Biso   1.000  C
  H163     1.0000 0.11990  0.51680  0.93140  Biso   1.000  H
  C195     1.0000 0.05110  0.51110  0.95630  Biso   1.000  C
  N30      1.0000 0.03620  0.52300  0.90750  Biso   1.000  N
  H164     1.0000 0.00600  0.52430  0.90030  Biso   1.000  H
  H165     1.0000 0.05760  0.52860  0.88560  Biso   1.000  H
  O31      1.0000 0.70991  0.55260  0.94775  Biso   1.000  O
  O32      1.0000 0.79205  0.54982  0.95147  Biso   1.000  O
  C196     1.0000 0.75791  0.56520  0.93570  Biso   1.000  C
  C197     1.0000 0.75418  0.60373  0.89141  Biso   1.000  C
  C198     1.0000 0.79561  0.62444  0.87191  Biso   1.000  C
  H166     1.0000 0.82590  0.61450  0.88250  Biso   1.000  H
  C199     1.0000 0.79171  0.65994  0.83655  Biso   1.000  C
  H167     1.0000 0.81940  0.67380  0.82350  Biso   1.000  H
  C200     1.0000 0.74640  0.67474  0.82069  Biso   1.000  C
  C201     1.0000 0.70494  0.65404  0.84020  Biso   1.000  C
  H168     1.0000 0.67460  0.66390  0.82960  Biso   1.000  H
  C202     1.0000 0.70884  0.61853  0.87555  Biso   1.000  C
  H169     1.0000 0.68110  0.60470  0.88860  Biso   1.000  H
  C203     1.0000 0.75310  0.71875  0.78800  Biso   1.000  C
  C204     1.0000 0.78590  0.71540  0.75150  Biso   1.000  C
  H170     1.0000 0.80610  0.68870  0.74860  Biso   1.000  H
  C205     1.0000 0.89580  0.53670  0.97983  Biso   1.000  C
  H171     1.0000 0.87840  0.56210  0.96630  Biso   1.000  H
  C206     1.0000 0.94720  0.53770  0.97860  Biso   1.000  C
  N31      1.0000 0.97670  0.57560  0.95840  Biso   1.000  N
  H172     1.0000 0.00770  0.57370  0.96010  Biso   1.000  H
  H173     1.0000 0.96330  0.60010  0.94460  Biso   1.000  H
  C207     1.0000 0.89760  0.48992  0.95930  Biso   1.000  C
  H174     1.0000 0.88010  0.48320  0.93140  Biso   1.000  H
  C208     1.0000 0.94890  0.48890  0.95630  Biso   1.000  C
  N32      1.0000 0.96380  0.47700  0.90750  Biso   1.000  N
  H175     1.0000 0.99400  0.47570  0.90030  Biso   1.000  H
  H176     1.0000 0.94240  0.47140  0.88560  Biso   1.000  H
  O33      1.0000 0.55260  0.05225  0.29009  Biso   1.000  O
  O34      1.0000 0.54982  0.04853  0.20795  Biso   1.000  O
  C209     1.0000 0.56520  0.06430  0.24209  Biso   1.000  C
  C210     1.0000 0.60373  0.10859  0.24582  Biso   1.000  C
  C211     1.0000 0.62444  0.12809  0.20439  Biso   1.000  C
  H177     1.0000 0.61450  0.11750  0.17410  Biso   1.000  H
  C212     1.0000 0.65994  0.16345  0.20829  Biso   1.000  C
  H178     1.0000 0.67380  0.17650  0.18060  Biso   1.000  H
  C213     1.0000 0.67474  0.17931  0.25360  Biso   1.000  C
  C214     1.0000 0.65404  0.15980  0.29506  Biso   1.000  C
  H179     1.0000 0.66390  0.17040  0.32540  Biso   1.000  H
  C215     1.0000 0.61853  0.12445  0.29116  Biso   1.000  C
  H180     1.0000 0.60470  0.11140  0.31890  Biso   1.000  H
  C216     1.0000 0.71875  0.21200  0.24690  Biso   1.000  C
  C217     1.0000 0.71540  0.24850  0.21410  Biso   1.000  C
  H181     1.0000 0.68870  0.25140  0.19390  Biso   1.000  H
  C218     1.0000 0.53670  0.02017  0.10420  Biso   1.000  C
  H182     1.0000 0.56210  0.03370  0.12160  Biso   1.000  H
  C219     1.0000 0.53770  0.02140  0.05280  Biso   1.000  C
  N33      1.0000 0.57560  0.04160  0.02330  Biso   1.000  N
  H183     1.0000 0.57370  0.03990  0.99230  Biso   1.000  H
  H184     1.0000 0.60010  0.05540  0.03670  Biso   1.000  H
  C220     1.0000 0.48992  0.04070  0.10240  Biso   1.000  C
  H185     1.0000 0.48320  0.06860  0.11990  Biso   1.000  H
  C221     1.0000 0.48890  0.04370  0.05110  Biso   1.000  C
  N34      1.0000 0.47700  0.09250  0.03620  Biso   1.000  N
  H186     1.0000 0.47570  0.09970  0.00600  Biso   1.000  H
  H187     1.0000 0.47140  0.11440  0.05760  Biso   1.000  H
  O35      1.0000 0.44740  0.05225  0.70991  Biso   1.000  O
  O36      1.0000 0.45018  0.04853  0.79205  Biso   1.000  O
  C222     1.0000 0.43480  0.06430  0.75791  Biso   1.000  C
  C223     1.0000 0.39627  0.10859  0.75418  Biso   1.000  C
  C224     1.0000 0.37556  0.12809  0.79561  Biso   1.000  C
  H188     1.0000 0.38550  0.11750  0.82590  Biso   1.000  H
  C225     1.0000 0.34006  0.16345  0.79171  Biso   1.000  C
  H189     1.0000 0.32620  0.17650  0.81940  Biso   1.000  H
  C226     1.0000 0.32526  0.17931  0.74640  Biso   1.000  C
  C227     1.0000 0.34596  0.15980  0.70494  Biso   1.000  C
  H190     1.0000 0.33610  0.17040  0.67460  Biso   1.000  H
  C228     1.0000 0.38147  0.12445  0.70884  Biso   1.000  C
  H191     1.0000 0.39530  0.11140  0.68110  Biso   1.000  H
  C229     1.0000 0.28125  0.21200  0.75310  Biso   1.000  C
  C230     1.0000 0.28460  0.24850  0.78590  Biso   1.000  C
  H192     1.0000 0.31130  0.25140  0.80610  Biso   1.000  H
  C231     1.0000 0.46330  0.02017  0.89580  Biso   1.000  C
  H193     1.0000 0.43790  0.03370  0.87840  Biso   1.000  H
  C232     1.0000 0.46230  0.02140  0.94720  Biso   1.000  C
  N35      1.0000 0.42440  0.04160  0.97670  Biso   1.000  N
  H194     1.0000 0.42630  0.03990  0.00770  Biso   1.000  H
  H195     1.0000 0.39990  0.05540  0.96330  Biso   1.000  H
  C233     1.0000 0.51008  0.04070  0.89760  Biso   1.000  C
  H196     1.0000 0.51680  0.06860  0.88010  Biso   1.000  H
  C234     1.0000 0.51110  0.04370  0.94890  Biso   1.000  C
  N36      1.0000 0.52300  0.09250  0.96380  Biso   1.000  N
  H197     1.0000 0.52430  0.09970  0.99400  Biso   1.000  H
  H198     1.0000 0.52860  0.11440  0.94240  Biso   1.000  H
  O37      1.0000 0.44740  0.94775  0.29009  Biso   1.000  O
  O38      1.0000 0.45018  0.95147  0.20795  Biso   1.000  O
  C235     1.0000 0.43480  0.93570  0.24209  Biso   1.000  C
  C236     1.0000 0.39627  0.89141  0.24582  Biso   1.000  C
  C237     1.0000 0.37556  0.87191  0.20439  Biso   1.000  C
  H199     1.0000 0.38550  0.88250  0.17410  Biso   1.000  H
  C238     1.0000 0.34006  0.83655  0.20829  Biso   1.000  C
  H200     1.0000 0.32620  0.82350  0.18060  Biso   1.000  H
  C239     1.0000 0.32526  0.82069  0.25360  Biso   1.000  C
  C240     1.0000 0.34596  0.84020  0.29506  Biso   1.000  C
  H201     1.0000 0.33610  0.82960  0.32540  Biso   1.000  H
  C241     1.0000 0.38147  0.87555  0.29116  Biso   1.000  C
  H202     1.0000 0.39530  0.88860  0.31890  Biso   1.000  H
  C242     1.0000 0.28125  0.78800  0.24690  Biso   1.000  C
  C243     1.0000 0.28460  0.75150  0.21410  Biso   1.000  C
  H203     1.0000 0.31130  0.74860  0.19390  Biso   1.000  H
  C244     1.0000 0.46330  0.97983  0.10420  Biso   1.000  C
  H204     1.0000 0.43790  0.96630  0.12160  Biso   1.000  H
  C245     1.0000 0.46230  0.97860  0.05280  Biso   1.000  C
  N37      1.0000 0.42440  0.95840  0.02330  Biso   1.000  N
  H205     1.0000 0.42630  0.96010  0.99230  Biso   1.000  H
  H206     1.0000 0.39990  0.94460  0.03670  Biso   1.000  H
  C246     1.0000 0.51008  0.95930  0.10240  Biso   1.000  C
  H207     1.0000 0.51680  0.93140  0.11990  Biso   1.000  H
  C247     1.0000 0.51110  0.95630  0.05110  Biso   1.000  C
  N38      1.0000 0.52300  0.90750  0.03620  Biso   1.000  N
  H208     1.0000 0.52430  0.90030  0.00600  Biso   1.000  H
  H209     1.0000 0.52860  0.88560  0.05760  Biso   1.000  H
  O39      1.0000 0.55260  0.94775  0.70991  Biso   1.000  O
  O40      1.0000 0.54982  0.95147  0.79205  Biso   1.000  O
  C248     1.0000 0.56520  0.93570  0.75791  Biso   1.000  C
  C249     1.0000 0.60373  0.89141  0.75418  Biso   1.000  C
  C250     1.0000 0.62444  0.87191  0.79561  Biso   1.000  C
  H210     1.0000 0.61450  0.88250  0.82590  Biso   1.000  H
  C251     1.0000 0.65994  0.83655  0.79171  Biso   1.000  C
  H211     1.0000 0.67380  0.82350  0.81940  Biso   1.000  H
  C252     1.0000 0.67474  0.82069  0.74640  Biso   1.000  C
  C253     1.0000 0.65404  0.84020  0.70494  Biso   1.000  C
  H212     1.0000 0.66390  0.82960  0.67460  Biso   1.000  H
  C254     1.0000 0.61853  0.87555  0.70884  Biso   1.000  C
  H213     1.0000 0.60470  0.88860  0.68110  Biso   1.000  H
  C255     1.0000 0.71875  0.78800  0.75310  Biso   1.000  C
  C256     1.0000 0.71540  0.75150  0.78590  Biso   1.000  C
  H214     1.0000 0.68870  0.74860  0.80610  Biso   1.000  H
  C257     1.0000 0.53670  0.97983  0.89580  Biso   1.000  C
  H215     1.0000 0.56210  0.96630  0.87840  Biso   1.000  H
  C258     1.0000 0.53770  0.97860  0.94720  Biso   1.000  C
  N39      1.0000 0.57560  0.95840  0.97670  Biso   1.000  N
  H216     1.0000 0.57370  0.96010  0.00770  Biso   1.000  H
  H217     1.0000 0.60010  0.94460  0.96330  Biso   1.000  H
  C259     1.0000 0.48992  0.95930  0.89760  Biso   1.000  C
  H218     1.0000 0.48320  0.93140  0.88010  Biso   1.000  H
  C260     1.0000 0.48890  0.95630  0.94890  Biso   1.000  C
  N40      1.0000 0.47700  0.90750  0.96380  Biso   1.000  N
  H219     1.0000 0.47570  0.90030  0.99400  Biso   1.000  H
  H220     1.0000 0.47140  0.88560  0.94240  Biso   1.000  H
  O41      1.0000 0.05225  0.29009  0.55260  Biso   1.000  O
  O42      1.0000 0.04853  0.20795  0.54982  Biso   1.000  O
  C261     1.0000 0.06430  0.24209  0.56520  Biso   1.000  C
  C262     1.0000 0.10859  0.24582  0.60373  Biso   1.000  C
  C263     1.0000 0.12809  0.20439  0.62444  Biso   1.000  C
  H221     1.0000 0.11750  0.17410  0.61450  Biso   1.000  H
  C264     1.0000 0.16345  0.20829  0.65994  Biso   1.000  C
  H222     1.0000 0.17650  0.18060  0.67380  Biso   1.000  H
  C265     1.0000 0.17931  0.25360  0.67474  Biso   1.000  C
  C266     1.0000 0.15980  0.29506  0.65404  Biso   1.000  C
  H223     1.0000 0.17040  0.32540  0.66390  Biso   1.000  H
  C267     1.0000 0.12445  0.29116  0.61853  Biso   1.000  C
  H224     1.0000 0.11140  0.31890  0.60470  Biso   1.000  H
  C268     1.0000 0.21200  0.24690  0.71875  Biso   1.000  C
  C269     1.0000 0.24850  0.21410  0.71540  Biso   1.000  C
  H225     1.0000 0.25140  0.19390  0.68870  Biso   1.000  H
  C270     1.0000 0.02017  0.10420  0.53670  Biso   1.000  C
  H226     1.0000 0.03370  0.12160  0.56210  Biso   1.000  H
  C271     1.0000 0.02140  0.05280  0.53770  Biso   1.000  C
  N41      1.0000 0.04160  0.02330  0.57560  Biso   1.000  N
  H227     1.0000 0.03990  0.99230  0.57370  Biso   1.000  H
  H228     1.0000 0.05540  0.03670  0.60010  Biso   1.000  H
  C272     1.0000 0.04070  0.10240  0.48992  Biso   1.000  C
  H229     1.0000 0.06860  0.11990  0.48320  Biso   1.000  H
  C273     1.0000 0.04370  0.05110  0.48890  Biso   1.000  C
  N42      1.0000 0.09250  0.03620  0.47700  Biso   1.000  N
  H230     1.0000 0.09970  0.00600  0.47570  Biso   1.000  H
  H231     1.0000 0.11440  0.05760  0.47140  Biso   1.000  H
  O43      1.0000 0.05225  0.70991  0.44740  Biso   1.000  O
  O44      1.0000 0.04853  0.79205  0.45018  Biso   1.000  O
  C274     1.0000 0.06430  0.75791  0.43480  Biso   1.000  C
  C275     1.0000 0.10859  0.75418  0.39627  Biso   1.000  C
  C276     1.0000 0.12809  0.79561  0.37556  Biso   1.000  C
  H232     1.0000 0.11750  0.82590  0.38550  Biso   1.000  H
  C277     1.0000 0.16345  0.79171  0.34006  Biso   1.000  C
  H233     1.0000 0.17650  0.81940  0.32620  Biso   1.000  H
  C278     1.0000 0.17931  0.74640  0.32526  Biso   1.000  C
  C279     1.0000 0.15980  0.70494  0.34596  Biso   1.000  C
  H234     1.0000 0.17040  0.67460  0.33610  Biso   1.000  H
  C280     1.0000 0.12445  0.70884  0.38147  Biso   1.000  C
  H235     1.0000 0.11140  0.68110  0.39530  Biso   1.000  H
  C281     1.0000 0.21200  0.75310  0.28125  Biso   1.000  C
  C282     1.0000 0.24850  0.78590  0.28460  Biso   1.000  C
  H236     1.0000 0.25140  0.80610  0.31130  Biso   1.000  H
  C283     1.0000 0.02017  0.89580  0.46330  Biso   1.000  C
  H237     1.0000 0.03370  0.87840  0.43790  Biso   1.000  H
  C284     1.0000 0.02140  0.94720  0.46230  Biso   1.000  C
  N43      1.0000 0.04160  0.97670  0.42440  Biso   1.000  N
  H238     1.0000 0.03990  0.00770  0.42630  Biso   1.000  H
  H239     1.0000 0.05540  0.96330  0.39990  Biso   1.000  H
  C285     1.0000 0.04070  0.89760  0.51008  Biso   1.000  C
  H240     1.0000 0.06860  0.88010  0.51680  Biso   1.000  H
  C286     1.0000 0.04370  0.94890  0.51110  Biso   1.000  C
  N44      1.0000 0.09250  0.96380  0.52300  Biso   1.000  N
  H241     1.0000 0.09970  0.99400  0.52430  Biso   1.000  H
  H242     1.0000 0.11440  0.94240  0.52860  Biso   1.000  H
  O45      1.0000 0.94775  0.29009  0.44740  Biso   1.000  O
  O46      1.0000 0.95147  0.20795  0.45018  Biso   1.000  O
  C287     1.0000 0.93570  0.24209  0.43480  Biso   1.000  C
  C288     1.0000 0.89141  0.24582  0.39627  Biso   1.000  C
  C289     1.0000 0.87191  0.20439  0.37556  Biso   1.000  C
  H243     1.0000 0.88250  0.17410  0.38550  Biso   1.000  H
  C290     1.0000 0.83655  0.20829  0.34006  Biso   1.000  C
  H244     1.0000 0.82350  0.18060  0.32620  Biso   1.000  H
  C291     1.0000 0.82069  0.25360  0.32526  Biso   1.000  C
  C292     1.0000 0.84020  0.29506  0.34596  Biso   1.000  C
  H245     1.0000 0.82960  0.32540  0.33610  Biso   1.000  H
  C293     1.0000 0.87555  0.29116  0.38147  Biso   1.000  C
  H246     1.0000 0.88860  0.31890  0.39530  Biso   1.000  H
  C294     1.0000 0.78800  0.24690  0.28125  Biso   1.000  C
  C295     1.0000 0.75150  0.21410  0.28460  Biso   1.000  C
  H247     1.0000 0.74860  0.19390  0.31130  Biso   1.000  H
  C296     1.0000 0.97983  0.10420  0.46330  Biso   1.000  C
  H248     1.0000 0.96630  0.12160  0.43790  Biso   1.000  H
  C297     1.0000 0.97860  0.05280  0.46230  Biso   1.000  C
  N45      1.0000 0.95840  0.02330  0.42440  Biso   1.000  N
  H249     1.0000 0.96010  0.99230  0.42630  Biso   1.000  H
  H250     1.0000 0.94460  0.03670  0.39990  Biso   1.000  H
  C298     1.0000 0.95930  0.10240  0.51008  Biso   1.000  C
  H251     1.0000 0.93140  0.11990  0.51680  Biso   1.000  H
  C299     1.0000 0.95630  0.05110  0.51110  Biso   1.000  C
  N46      1.0000 0.90750  0.03620  0.52300  Biso   1.000  N
  H252     1.0000 0.90030  0.00600  0.52430  Biso   1.000  H
  H253     1.0000 0.88560  0.05760  0.52860  Biso   1.000  H
  O47      1.0000 0.94775  0.70991  0.55260  Biso   1.000  O
  O48      1.0000 0.95147  0.79205  0.54982  Biso   1.000  O
  C300     1.0000 0.93570  0.75791  0.56520  Biso   1.000  C
  C301     1.0000 0.89141  0.75418  0.60373  Biso   1.000  C
  C302     1.0000 0.87191  0.79561  0.62444  Biso   1.000  C
  H254     1.0000 0.88250  0.82590  0.61450  Biso   1.000  H
  C303     1.0000 0.83655  0.79171  0.65994  Biso   1.000  C
  H255     1.0000 0.82350  0.81940  0.67380  Biso   1.000  H
  C304     1.0000 0.82069  0.74640  0.67474  Biso   1.000  C
  C305     1.0000 0.84020  0.70494  0.65404  Biso   1.000  C
  H256     1.0000 0.82960  0.67460  0.66390  Biso   1.000  H
  C306     1.0000 0.87555  0.70884  0.61853  Biso   1.000  C
  H257     1.0000 0.88860  0.68110  0.60470  Biso   1.000  H
  C307     1.0000 0.78800  0.75310  0.71875  Biso   1.000  C
  C308     1.0000 0.75150  0.78590  0.71540  Biso   1.000  C
  H258     1.0000 0.74860  0.80610  0.68870  Biso   1.000  H
  C309     1.0000 0.97983  0.89580  0.53670  Biso   1.000  C
  H259     1.0000 0.96630  0.87840  0.56210  Biso   1.000  H
  C310     1.0000 0.97860  0.94720  0.53770  Biso   1.000  C
  N47      1.0000 0.95840  0.97670  0.57560  Biso   1.000  N
  H260     1.0000 0.96010  0.00770  0.57370  Biso   1.000  H
  H261     1.0000 0.94460  0.96330  0.60010  Biso   1.000  H
  C311     1.0000 0.95930  0.89760  0.48992  Biso   1.000  C
  H262     1.0000 0.93140  0.88010  0.48320  Biso   1.000  H
  C312     1.0000 0.95630  0.94890  0.48890  Biso   1.000  C
  N48      1.0000 0.90750  0.96380  0.47700  Biso   1.000  N
  H263     1.0000 0.90030  0.99400  0.47570  Biso   1.000  H
  H264     1.0000 0.88560  0.94240  0.47140  Biso   1.000  H
  Zn1      1.0000 0.00000  0.69817  0.50000  Biso   1.000  Zn
  N49      1.0000 0.00000  0.62740  0.50000  Biso   1.000  N
  C313     1.0000 0.00000  0.52672  0.50000  Biso   1.000  C
  Zn2      1.0000 0.00000  0.30183  0.50000  Biso   1.000  Zn
  N50      1.0000 0.00000  0.37260  0.50000  Biso   1.000  N
  C314     1.0000 0.00000  0.47328  0.50000  Biso   1.000  C
  Zn3      1.0000 0.50000  0.00000  0.69817  Biso   1.000  Zn
  N51      1.0000 0.50000  0.00000  0.62740  Biso   1.000  N
  C315     1.0000 0.50000  0.00000  0.52672  Biso   1.000  C
  Zn4      1.0000 0.50000  0.00000  0.30183  Biso   1.000  Zn
  N52      1.0000 0.50000  0.00000  0.37260  Biso   1.000  N
  C316     1.0000 0.50000  0.00000  0.47328  Biso   1.000  C
  Zn5      1.0000 0.69817  0.50000  0.00000  Biso   1.000  Zn
  N53      1.0000 0.62740  0.50000  0.00000  Biso   1.000  N
  C317     1.0000 0.52672  0.50000  0.00000  Biso   1.000  C
  Zn6      1.0000 0.30183  0.50000  0.00000  Biso   1.000  Zn
  N54      1.0000 0.37260  0.50000  0.00000  Biso   1.000  N
  C318     1.0000 0.47328  0.50000  0.00000  Biso   1.000  C
  Zn7      1.0000 0.19817  0.50000  0.00000  Biso   1.000  Zn
  N55      1.0000 0.12740  0.50000  0.00000  Biso   1.000  N
  C319     1.0000 0.02672  0.50000  0.00000  Biso   1.000  C
  Zn8      1.0000 0.80183  0.50000  0.00000  Biso   1.000  Zn
  N56      1.0000 0.87260  0.50000  0.00000  Biso   1.000  N
  C320     1.0000 0.97328  0.50000  0.00000  Biso   1.000  C
  Zn9      1.0000 0.50000  0.00000  0.19817  Biso   1.000  Zn
  N57      1.0000 0.50000  0.00000  0.12740  Biso   1.000  N
  C321     1.0000 0.50000  0.00000  0.02672  Biso   1.000  C
  Zn10     1.0000 0.50000  0.00000  0.80183  Biso   1.000  Zn
  N58      1.0000 0.50000  0.00000  0.87260  Biso   1.000  N
  C322     1.0000 0.50000  0.00000  0.97328  Biso   1.000  C
  Zn11     1.0000 0.00000  0.19817  0.50000  Biso   1.000  Zn
  N59      1.0000 0.00000  0.12740  0.50000  Biso   1.000  N
  C323     1.0000 0.00000  0.02672  0.50000  Biso   1.000  C
  Zn12     1.0000 0.00000  0.80183  0.50000  Biso   1.000  Zn
  N60      1.0000 0.00000  0.87260  0.50000  Biso   1.000  N
  C324     1.0000 0.00000  0.97328  0.50000  Biso   1.000  C
