data_NIFYUY_charged
_audit_creation_date              2014-07-02
_audit_creation_method            'Materials Studio'
_symmetry_space_group_name_H-M    'P1'
_symmetry_Int_Tables_number       1
_symmetry_cell_setting            triclinic
loop_
_symmetry_equiv_pos_as_xyz
  x,y,z
_cell_length_a                    18.4260
_cell_length_b                    18.5070
_cell_length_c                    48.3740
_cell_angle_alpha                 90.0000
_cell_angle_beta                  90.0000
_cell_angle_gamma                 90.0000
loop_
_atom_site_label
_atom_site_type_symbol
_atom_site_fract_x
_atom_site_fract_y
_atom_site_fract_z
_atom_site_U_iso_or_equiv
_atom_site_adp_type
_atom_site_occupancy
Tm1    Tm    0.79960   0.92953   0.87817   0.01267  Uiso   1.00
Tm2    Tm    0.68100   0.48634   0.87587   0.01267  Uiso   1.00
Tm3    Tm    0.36911   0.90188   0.12229   0.01267  Uiso   1.00
Tm4    Tm    0.29960   0.07047   0.62183   0.01267  Uiso   1.00
Tm5    Tm    0.18100   0.51366   0.62413   0.01267  Uiso   1.00
Tm6    Tm    0.86911   0.09812   0.37771   0.01267  Uiso   1.00
Tm7    Tm    0.70040   0.42953   0.12183   0.01267  Uiso   1.00
Tm8    Tm    0.81900   0.98634   0.12413   0.01267  Uiso   1.00
Tm9    Tm    0.13089   0.40188   0.87771   0.01267  Uiso   1.00
Tm10   Tm    0.20040   0.57047   0.37817   0.01267  Uiso   1.00
Tm11   Tm    0.31900   0.01366   0.37587   0.01267  Uiso   1.00
Tm12   Tm    0.63089   0.59812   0.62229   0.01267  Uiso   1.00
Tm13   Tm    0.20040   0.07047   0.12183   0.01267  Uiso   1.00
Tm14   Tm    0.31900   0.51366   0.12413   0.01267  Uiso   1.00
Tm15   Tm    0.63089   0.09812   0.87771   0.01267  Uiso   1.00
Tm16   Tm    0.70040   0.92953   0.37817   0.01267  Uiso   1.00
Tm17   Tm    0.81900   0.48634   0.37587   0.01267  Uiso   1.00
Tm18   Tm    0.13089   0.90188   0.62229   0.01267  Uiso   1.00
Tm19   Tm    0.29960   0.57047   0.87817   0.01267  Uiso   1.00
Tm20   Tm    0.18100   0.01366   0.87587   0.01267  Uiso   1.00
Tm21   Tm    0.86911   0.59812   0.12229   0.01267  Uiso   1.00
Tm22   Tm    0.79960   0.42953   0.62183   0.01267  Uiso   1.00
Tm23   Tm    0.68100   0.98634   0.62413   0.01267  Uiso   1.00
Tm24   Tm    0.36911   0.40188   0.37771   0.01267  Uiso   1.00
Co1    Co    0.95374   0.61475   0.75540   0.01267  Uiso   1.00
Co2    Co    0.60833   0.74756   0.99770   0.01267  Uiso   1.00
Co3    Co    0.45374   0.38525   0.74460   0.01267  Uiso   1.00
Co4    Co    0.10833   0.25244   0.50230   0.01267  Uiso   1.00
Co5    Co    0.54626   0.11475   0.24460   0.01267  Uiso   1.00
Co6    Co    0.89167   0.24756   0.00230   0.01267  Uiso   1.00
Co7    Co    0.04626   0.88525   0.25540   0.01267  Uiso   1.00
Co8    Co    0.39167   0.75244   0.49770   0.01267  Uiso   1.00
Co9    Co    0.04626   0.38525   0.24460   0.01267  Uiso   1.00
Co10   Co    0.39167   0.25244   0.00230   0.01267  Uiso   1.00
Co11   Co    0.54626   0.61475   0.25540   0.01267  Uiso   1.00
Co12   Co    0.89167   0.74756   0.49770   0.01267  Uiso   1.00
Co13   Co    0.45374   0.88525   0.75540   0.01267  Uiso   1.00
Co14   Co    0.10833   0.75244   0.99770   0.01267  Uiso   1.00
Co15   Co    0.95374   0.11475   0.74460   0.01267  Uiso   1.00
Co16   Co    0.60833   0.24756   0.50230   0.01267  Uiso   1.00
H1     H     0.80110   0.77310   0.87920   0.01267  Uiso   1.00
H2     H     0.72370   0.79270   0.88020   0.01267  Uiso   1.00
H3     H     0.55020   0.48120   0.90990   0.01267  Uiso   1.00
H4     H     0.54100   0.42170   0.89000   0.01267  Uiso   1.00
H5     H     0.68090   0.33160   0.88680   0.01267  Uiso   1.00
H6     H     0.65820   0.33800   0.85770   0.01267  Uiso   1.00
H7     H     0.49890   0.90810   0.09090   0.01267  Uiso   1.00
H8     H     0.52110   0.92570   0.11930   0.01267  Uiso   1.00
H9     H     0.97120   0.95770   0.87520   0.01267  Uiso   1.00
H10    H     0.94050   0.03110   0.87520   0.01267  Uiso   1.00
H11    H     0.53770   0.72490   0.05490   0.01267  Uiso   1.00
H12    H     0.37060   0.86300   0.05680   0.01267  Uiso   1.00
H13    H     0.41000   0.90970   0.01460   0.01267  Uiso   1.00
H14    H     0.46230   0.95610   0.97710   0.01267  Uiso   1.00
H15    H     0.53130   0.99940   0.94000   0.01267  Uiso   1.00
H16    H     0.66870   0.83420   0.95000   0.01267  Uiso   1.00
H17    H     0.79190   0.18660   0.95650   0.01267  Uiso   1.00
H18    H     0.91050   0.02590   0.92410   0.01267  Uiso   1.00
H19    H     0.99400   0.03960   0.95970   0.01267  Uiso   1.00
H20    H     0.06070   0.05370   0.99640   0.01267  Uiso   1.00
H21    H     0.12630   0.07430   0.03690   0.01267  Uiso   1.00
H22    H     0.99440   0.24230   0.05270   0.01267  Uiso   1.00
H23    H     0.94270   0.70330   0.81100   0.01267  Uiso   1.00
H24    H     0.80180   0.86560   0.79940   0.01267  Uiso   1.00
H25    H     0.77690   0.81830   0.75610   0.01267  Uiso   1.00
H26    H     0.76300   0.77110   0.71560   0.01267  Uiso   1.00
H27    H     0.73810   0.70590   0.67590   0.01267  Uiso   1.00
H28    H     0.87430   0.55280   0.70210   0.01267  Uiso   1.00
H29    H     0.47330   0.79820   0.69850   0.01267  Uiso   1.00
H30    H     0.62780   0.65030   0.70980   0.01267  Uiso   1.00
H31    H     0.64350   0.69420   0.75440   0.01267  Uiso   1.00
H32    H     0.65530   0.74220   0.79480   0.01267  Uiso   1.00
H33    H     0.68190   0.81450   0.83290   0.01267  Uiso   1.00
H34    H     0.53190   0.95620   0.80680   0.01267  Uiso   1.00
H35    H     0.85250   0.57720   0.80560   0.01267  Uiso   1.00
H36    H     0.85550   0.36360   0.81630   0.01267  Uiso   1.00
H37    H     0.92530   0.35350   0.77660   0.01267  Uiso   1.00
H38    H     0.97390   0.35240   0.73420   0.01267  Uiso   1.00
H39    H     0.03860   0.36160   0.69310   0.01267  Uiso   1.00
H40    H     0.04720   0.57510   0.70440   0.01267  Uiso   1.00
H41    H     0.62630   0.66230   0.94490   0.01267  Uiso   1.00
H42    H     0.84050   0.63930   0.93480   0.01267  Uiso   1.00
H43    H     0.85860   0.70850   0.97430   0.01267  Uiso   1.00
H44    H     0.86280   0.78580   0.01240   0.01267  Uiso   1.00
H45    H     0.85120   0.86720   0.04920   0.01267  Uiso   1.00
H46    H     0.63550   0.86110   0.03980   0.01267  Uiso   1.00
H47    H     0.30110   0.22690   0.62080   0.01267  Uiso   1.00
H48    H     0.22370   0.20730   0.61980   0.01267  Uiso   1.00
H49    H     0.05020   0.51880   0.59010   0.01267  Uiso   1.00
H50    H     0.04100   0.57830   0.61000   0.01267  Uiso   1.00
H51    H     0.18090   0.66840   0.61320   0.01267  Uiso   1.00
H52    H     0.15820   0.66200   0.64230   0.01267  Uiso   1.00
H53    H     0.99890   0.09190   0.40910   0.01267  Uiso   1.00
H54    H     0.02110   0.07430   0.38070   0.01267  Uiso   1.00
H55    H     0.47120   0.04230   0.62480   0.01267  Uiso   1.00
H56    H     0.44050   0.96890   0.62480   0.01267  Uiso   1.00
H57    H     0.03770   0.27510   0.44510   0.01267  Uiso   1.00
H58    H     0.87060   0.13700   0.44320   0.01267  Uiso   1.00
H59    H     0.91000   0.09030   0.48540   0.01267  Uiso   1.00
H60    H     0.96230   0.04390   0.52290   0.01267  Uiso   1.00
H61    H     0.03130   0.00060   0.56000   0.01267  Uiso   1.00
H62    H     0.16870   0.16580   0.55000   0.01267  Uiso   1.00
H63    H     0.29190   0.81340   0.54350   0.01267  Uiso   1.00
H64    H     0.41050   0.97410   0.57590   0.01267  Uiso   1.00
H65    H     0.49400   0.96040   0.54030   0.01267  Uiso   1.00
H66    H     0.56070   0.94630   0.50360   0.01267  Uiso   1.00
H67    H     0.62630   0.92570   0.46310   0.01267  Uiso   1.00
H68    H     0.49440   0.75770   0.44730   0.01267  Uiso   1.00
H69    H     0.44270   0.29670   0.68900   0.01267  Uiso   1.00
H70    H     0.30180   0.13440   0.70060   0.01267  Uiso   1.00
H71    H     0.27690   0.18170   0.74390   0.01267  Uiso   1.00
H72    H     0.26300   0.22890   0.78440   0.01267  Uiso   1.00
H73    H     0.23810   0.29410   0.82410   0.01267  Uiso   1.00
H74    H     0.37430   0.44720   0.79790   0.01267  Uiso   1.00
H75    H     0.97330   0.20180   0.80150   0.01267  Uiso   1.00
H76    H     0.12780   0.34970   0.79020   0.01267  Uiso   1.00
H77    H     0.14350   0.30580   0.74560   0.01267  Uiso   1.00
H78    H     0.15530   0.25780   0.70520   0.01267  Uiso   1.00
H79    H     0.18190   0.18550   0.66710   0.01267  Uiso   1.00
H80    H     0.03190   0.04380   0.69320   0.01267  Uiso   1.00
H81    H     0.35250   0.42280   0.69440   0.01267  Uiso   1.00
H82    H     0.35550   0.63640   0.68370   0.01267  Uiso   1.00
H83    H     0.42530   0.64650   0.72340   0.01267  Uiso   1.00
H84    H     0.47390   0.64760   0.76580   0.01267  Uiso   1.00
H85    H     0.53860   0.63840   0.80690   0.01267  Uiso   1.00
H86    H     0.54720   0.42490   0.79560   0.01267  Uiso   1.00
H87    H     0.12630   0.33770   0.55510   0.01267  Uiso   1.00
H88    H     0.34050   0.36070   0.56520   0.01267  Uiso   1.00
H89    H     0.35860   0.29150   0.52570   0.01267  Uiso   1.00
H90    H     0.36280   0.21420   0.48760   0.01267  Uiso   1.00
H91    H     0.35120   0.13280   0.45080   0.01267  Uiso   1.00
H92    H     0.13550   0.13890   0.46020   0.01267  Uiso   1.00
H93    H     0.69890   0.27310   0.12080   0.01267  Uiso   1.00
H94    H     0.77630   0.29270   0.11980   0.01267  Uiso   1.00
H95    H     0.94980   0.98120   0.09010   0.01267  Uiso   1.00
H96    H     0.95900   0.92170   0.11000   0.01267  Uiso   1.00
H97    H     0.81910   0.83160   0.11320   0.01267  Uiso   1.00
H98    H     0.84180   0.83800   0.14230   0.01267  Uiso   1.00
H99    H     0.00110   0.40810   0.90910   0.01267  Uiso   1.00
H100   H     0.97890   0.42570   0.88070   0.01267  Uiso   1.00
H101   H     0.52880   0.45770   0.12480   0.01267  Uiso   1.00
H102   H     0.55950   0.53110   0.12480   0.01267  Uiso   1.00
H103   H     0.96230   0.22490   0.94510   0.01267  Uiso   1.00
H104   H     0.12940   0.36300   0.94320   0.01267  Uiso   1.00
H105   H     0.09000   0.40970   0.98540   0.01267  Uiso   1.00
H106   H     0.03770   0.45610   0.02290   0.01267  Uiso   1.00
H107   H     0.96870   0.49940   0.06000   0.01267  Uiso   1.00
H108   H     0.83130   0.33420   0.05000   0.01267  Uiso   1.00
H109   H     0.70810   0.68660   0.04350   0.01267  Uiso   1.00
H110   H     0.58950   0.52590   0.07590   0.01267  Uiso   1.00
H111   H     0.50600   0.53960   0.04030   0.01267  Uiso   1.00
H112   H     0.43930   0.55370   0.00360   0.01267  Uiso   1.00
H113   H     0.37370   0.57430   0.96310   0.01267  Uiso   1.00
H114   H     0.50560   0.74230   0.94730   0.01267  Uiso   1.00
H115   H     0.55730   0.20330   0.18900   0.01267  Uiso   1.00
H116   H     0.69820   0.36560   0.20060   0.01267  Uiso   1.00
H117   H     0.72310   0.31830   0.24390   0.01267  Uiso   1.00
H118   H     0.73700   0.27110   0.28440   0.01267  Uiso   1.00
H119   H     0.76190   0.20590   0.32410   0.01267  Uiso   1.00
H120   H     0.62570   0.05280   0.29790   0.01267  Uiso   1.00
H121   H     0.02670   0.29820   0.30150   0.01267  Uiso   1.00
H122   H     0.87220   0.15030   0.29020   0.01267  Uiso   1.00
H123   H     0.85650   0.19420   0.24560   0.01267  Uiso   1.00
H124   H     0.84470   0.24220   0.20520   0.01267  Uiso   1.00
H125   H     0.81810   0.31450   0.16710   0.01267  Uiso   1.00
H126   H     0.96810   0.45620   0.19320   0.01267  Uiso   1.00
H127   H     0.64750   0.07720   0.19440   0.01267  Uiso   1.00
H128   H     0.64450   0.86360   0.18370   0.01267  Uiso   1.00
H129   H     0.57470   0.85350   0.22340   0.01267  Uiso   1.00
H130   H     0.52610   0.85240   0.26580   0.01267  Uiso   1.00
H131   H     0.46140   0.86160   0.30690   0.01267  Uiso   1.00
H132   H     0.45280   0.07510   0.29560   0.01267  Uiso   1.00
H133   H     0.87370   0.16230   0.05510   0.01267  Uiso   1.00
H134   H     0.65950   0.13930   0.06520   0.01267  Uiso   1.00
H135   H     0.64140   0.20850   0.02570   0.01267  Uiso   1.00
H136   H     0.63720   0.28580   0.98760   0.01267  Uiso   1.00
H137   H     0.64880   0.36720   0.95080   0.01267  Uiso   1.00
H138   H     0.86450   0.36110   0.96020   0.01267  Uiso   1.00
H139   H     0.19890   0.72690   0.37920   0.01267  Uiso   1.00
H140   H     0.27630   0.70730   0.38020   0.01267  Uiso   1.00
H141   H     0.44980   0.01880   0.40990   0.01267  Uiso   1.00
H142   H     0.45900   0.07830   0.39000   0.01267  Uiso   1.00
H143   H     0.31910   0.16840   0.38680   0.01267  Uiso   1.00
H144   H     0.34180   0.16200   0.35770   0.01267  Uiso   1.00
H145   H     0.50110   0.59190   0.59090   0.01267  Uiso   1.00
H146   H     0.47890   0.57430   0.61930   0.01267  Uiso   1.00
H147   H     0.02880   0.54230   0.37520   0.01267  Uiso   1.00
H148   H     0.05950   0.46890   0.37520   0.01267  Uiso   1.00
H149   H     0.46230   0.77510   0.55490   0.01267  Uiso   1.00
H150   H     0.62940   0.63700   0.55680   0.01267  Uiso   1.00
H151   H     0.59000   0.59030   0.51460   0.01267  Uiso   1.00
H152   H     0.53770   0.54390   0.47710   0.01267  Uiso   1.00
H153   H     0.46870   0.50060   0.44000   0.01267  Uiso   1.00
H154   H     0.33130   0.66580   0.45000   0.01267  Uiso   1.00
H155   H     0.20810   0.31340   0.45650   0.01267  Uiso   1.00
H156   H     0.08950   0.47410   0.42410   0.01267  Uiso   1.00
H157   H     0.00600   0.46040   0.45970   0.01267  Uiso   1.00
H158   H     0.93930   0.44630   0.49640   0.01267  Uiso   1.00
H159   H     0.87370   0.42570   0.53690   0.01267  Uiso   1.00
H160   H     0.00560   0.25770   0.55270   0.01267  Uiso   1.00
H161   H     0.05730   0.79670   0.31100   0.01267  Uiso   1.00
H162   H     0.19820   0.63440   0.29940   0.01267  Uiso   1.00
H163   H     0.22310   0.68170   0.25610   0.01267  Uiso   1.00
H164   H     0.23700   0.72890   0.21560   0.01267  Uiso   1.00
H165   H     0.26190   0.79410   0.17590   0.01267  Uiso   1.00
H166   H     0.12570   0.94720   0.20210   0.01267  Uiso   1.00
H167   H     0.52670   0.70180   0.19850   0.01267  Uiso   1.00
H168   H     0.37220   0.84970   0.20980   0.01267  Uiso   1.00
H169   H     0.35650   0.80580   0.25440   0.01267  Uiso   1.00
H170   H     0.34470   0.75780   0.29480   0.01267  Uiso   1.00
H171   H     0.31810   0.68550   0.33290   0.01267  Uiso   1.00
H172   H     0.46810   0.54380   0.30680   0.01267  Uiso   1.00
H173   H     0.14750   0.92280   0.30560   0.01267  Uiso   1.00
H174   H     0.14450   0.13640   0.31630   0.01267  Uiso   1.00
H175   H     0.07470   0.14650   0.27660   0.01267  Uiso   1.00
H176   H     0.02610   0.14760   0.23420   0.01267  Uiso   1.00
H177   H     0.96140   0.13840   0.19310   0.01267  Uiso   1.00
H178   H     0.95280   0.92490   0.20440   0.01267  Uiso   1.00
H179   H     0.37370   0.83770   0.44490   0.01267  Uiso   1.00
H180   H     0.15950   0.86070   0.43480   0.01267  Uiso   1.00
H181   H     0.14140   0.79150   0.47430   0.01267  Uiso   1.00
H182   H     0.13720   0.71420   0.51240   0.01267  Uiso   1.00
H183   H     0.14880   0.63280   0.54920   0.01267  Uiso   1.00
H184   H     0.36450   0.63890   0.53980   0.01267  Uiso   1.00
H185   H     0.19890   0.22690   0.12080   0.01267  Uiso   1.00
H186   H     0.27630   0.20730   0.11980   0.01267  Uiso   1.00
H187   H     0.44980   0.51880   0.09010   0.01267  Uiso   1.00
H188   H     0.45900   0.57830   0.11000   0.01267  Uiso   1.00
H189   H     0.31910   0.66840   0.11320   0.01267  Uiso   1.00
H190   H     0.34180   0.66200   0.14230   0.01267  Uiso   1.00
H191   H     0.50110   0.09190   0.90910   0.01267  Uiso   1.00
H192   H     0.47890   0.07430   0.88070   0.01267  Uiso   1.00
H193   H     0.02880   0.04230   0.12480   0.01267  Uiso   1.00
H194   H     0.05950   0.96890   0.12480   0.01267  Uiso   1.00
H195   H     0.46230   0.27510   0.94510   0.01267  Uiso   1.00
H196   H     0.62940   0.13700   0.94320   0.01267  Uiso   1.00
H197   H     0.59000   0.09030   0.98540   0.01267  Uiso   1.00
H198   H     0.53770   0.04390   0.02290   0.01267  Uiso   1.00
H199   H     0.46870   0.00060   0.06000   0.01267  Uiso   1.00
H200   H     0.33130   0.16580   0.05000   0.01267  Uiso   1.00
H201   H     0.20810   0.81340   0.04350   0.01267  Uiso   1.00
H202   H     0.08950   0.97410   0.07590   0.01267  Uiso   1.00
H203   H     0.00600   0.96040   0.04030   0.01267  Uiso   1.00
H204   H     0.93930   0.94630   0.00360   0.01267  Uiso   1.00
H205   H     0.87370   0.92570   0.96310   0.01267  Uiso   1.00
H206   H     0.00560   0.75770   0.94730   0.01267  Uiso   1.00
H207   H     0.05730   0.29670   0.18900   0.01267  Uiso   1.00
H208   H     0.19820   0.13440   0.20060   0.01267  Uiso   1.00
H209   H     0.22310   0.18170   0.24390   0.01267  Uiso   1.00
H210   H     0.23700   0.22890   0.28440   0.01267  Uiso   1.00
H211   H     0.26190   0.29410   0.32410   0.01267  Uiso   1.00
H212   H     0.12570   0.44720   0.29790   0.01267  Uiso   1.00
H213   H     0.52670   0.20180   0.30150   0.01267  Uiso   1.00
H214   H     0.37220   0.34970   0.29020   0.01267  Uiso   1.00
H215   H     0.35650   0.30580   0.24560   0.01267  Uiso   1.00
H216   H     0.34470   0.25780   0.20520   0.01267  Uiso   1.00
H217   H     0.31810   0.18550   0.16710   0.01267  Uiso   1.00
H218   H     0.46810   0.04380   0.19320   0.01267  Uiso   1.00
H219   H     0.14750   0.42280   0.19440   0.01267  Uiso   1.00
H220   H     0.14450   0.63640   0.18370   0.01267  Uiso   1.00
H221   H     0.07470   0.64650   0.22340   0.01267  Uiso   1.00
H222   H     0.02610   0.64760   0.26580   0.01267  Uiso   1.00
H223   H     0.96140   0.63840   0.30690   0.01267  Uiso   1.00
H224   H     0.95280   0.42490   0.29560   0.01267  Uiso   1.00
H225   H     0.37370   0.33770   0.05510   0.01267  Uiso   1.00
H226   H     0.15950   0.36070   0.06520   0.01267  Uiso   1.00
H227   H     0.14140   0.29150   0.02570   0.01267  Uiso   1.00
H228   H     0.13720   0.21420   0.98760   0.01267  Uiso   1.00
H229   H     0.14880   0.13280   0.95080   0.01267  Uiso   1.00
H230   H     0.36450   0.13890   0.96020   0.01267  Uiso   1.00
H231   H     0.69890   0.77310   0.37920   0.01267  Uiso   1.00
H232   H     0.77630   0.79270   0.38020   0.01267  Uiso   1.00
H233   H     0.94980   0.48120   0.40990   0.01267  Uiso   1.00
H234   H     0.95900   0.42170   0.39000   0.01267  Uiso   1.00
H235   H     0.81910   0.33160   0.38680   0.01267  Uiso   1.00
H236   H     0.84180   0.33800   0.35770   0.01267  Uiso   1.00
H237   H     0.00110   0.90810   0.59090   0.01267  Uiso   1.00
H238   H     0.97890   0.92570   0.61930   0.01267  Uiso   1.00
H239   H     0.52880   0.95770   0.37520   0.01267  Uiso   1.00
H240   H     0.55950   0.03110   0.37520   0.01267  Uiso   1.00
H241   H     0.96230   0.72490   0.55490   0.01267  Uiso   1.00
H242   H     0.12940   0.86300   0.55680   0.01267  Uiso   1.00
H243   H     0.09000   0.90970   0.51460   0.01267  Uiso   1.00
H244   H     0.03770   0.95610   0.47710   0.01267  Uiso   1.00
H245   H     0.96870   0.99940   0.44000   0.01267  Uiso   1.00
H246   H     0.83130   0.83420   0.45000   0.01267  Uiso   1.00
H247   H     0.70810   0.18660   0.45650   0.01267  Uiso   1.00
H248   H     0.58950   0.02590   0.42410   0.01267  Uiso   1.00
H249   H     0.50600   0.03960   0.45970   0.01267  Uiso   1.00
H250   H     0.43930   0.05370   0.49640   0.01267  Uiso   1.00
H251   H     0.37370   0.07430   0.53690   0.01267  Uiso   1.00
H252   H     0.50560   0.24230   0.55270   0.01267  Uiso   1.00
H253   H     0.55730   0.70330   0.31100   0.01267  Uiso   1.00
H254   H     0.69820   0.86560   0.29940   0.01267  Uiso   1.00
H255   H     0.72310   0.81830   0.25610   0.01267  Uiso   1.00
H256   H     0.73700   0.77110   0.21560   0.01267  Uiso   1.00
H257   H     0.76190   0.70590   0.17590   0.01267  Uiso   1.00
H258   H     0.62570   0.55280   0.20210   0.01267  Uiso   1.00
H259   H     0.02670   0.79820   0.19850   0.01267  Uiso   1.00
H260   H     0.87220   0.65030   0.20980   0.01267  Uiso   1.00
H261   H     0.85650   0.69420   0.25440   0.01267  Uiso   1.00
H262   H     0.84470   0.74220   0.29480   0.01267  Uiso   1.00
H263   H     0.81810   0.81450   0.33290   0.01267  Uiso   1.00
H264   H     0.96810   0.95620   0.30680   0.01267  Uiso   1.00
H265   H     0.64750   0.57720   0.30560   0.01267  Uiso   1.00
H266   H     0.64450   0.36360   0.31630   0.01267  Uiso   1.00
H267   H     0.57470   0.35350   0.27660   0.01267  Uiso   1.00
H268   H     0.52610   0.35240   0.23420   0.01267  Uiso   1.00
H269   H     0.46140   0.36160   0.19310   0.01267  Uiso   1.00
H270   H     0.45280   0.57510   0.20440   0.01267  Uiso   1.00
H271   H     0.87370   0.66230   0.44490   0.01267  Uiso   1.00
H272   H     0.65950   0.63930   0.43480   0.01267  Uiso   1.00
H273   H     0.64140   0.70850   0.47430   0.01267  Uiso   1.00
H274   H     0.63720   0.78580   0.51240   0.01267  Uiso   1.00
H275   H     0.64880   0.86720   0.54920   0.01267  Uiso   1.00
H276   H     0.86450   0.86110   0.53980   0.01267  Uiso   1.00
H277   H     0.30110   0.72690   0.87920   0.01267  Uiso   1.00
H278   H     0.22370   0.70730   0.88020   0.01267  Uiso   1.00
H279   H     0.05020   0.01880   0.90990   0.01267  Uiso   1.00
H280   H     0.04100   0.07830   0.89000   0.01267  Uiso   1.00
H281   H     0.18090   0.16840   0.88680   0.01267  Uiso   1.00
H282   H     0.15820   0.16200   0.85770   0.01267  Uiso   1.00
H283   H     0.99890   0.59190   0.09090   0.01267  Uiso   1.00
H284   H     0.02110   0.57430   0.11930   0.01267  Uiso   1.00
H285   H     0.47120   0.54230   0.87520   0.01267  Uiso   1.00
H286   H     0.44050   0.46890   0.87520   0.01267  Uiso   1.00
H287   H     0.03770   0.77510   0.05490   0.01267  Uiso   1.00
H288   H     0.87060   0.63700   0.05680   0.01267  Uiso   1.00
H289   H     0.91000   0.59030   0.01460   0.01267  Uiso   1.00
H290   H     0.96230   0.54390   0.97710   0.01267  Uiso   1.00
H291   H     0.03130   0.50060   0.94000   0.01267  Uiso   1.00
H292   H     0.16870   0.66580   0.95000   0.01267  Uiso   1.00
H293   H     0.29190   0.31340   0.95650   0.01267  Uiso   1.00
H294   H     0.41050   0.47410   0.92410   0.01267  Uiso   1.00
H295   H     0.49400   0.46040   0.95970   0.01267  Uiso   1.00
H296   H     0.56070   0.44630   0.99640   0.01267  Uiso   1.00
H297   H     0.62630   0.42570   0.03690   0.01267  Uiso   1.00
H298   H     0.49440   0.25770   0.05270   0.01267  Uiso   1.00
H299   H     0.44270   0.79670   0.81100   0.01267  Uiso   1.00
H300   H     0.30180   0.63440   0.79940   0.01267  Uiso   1.00
H301   H     0.27690   0.68170   0.75610   0.01267  Uiso   1.00
H302   H     0.26300   0.72890   0.71560   0.01267  Uiso   1.00
H303   H     0.23810   0.79410   0.67590   0.01267  Uiso   1.00
H304   H     0.37430   0.94720   0.70210   0.01267  Uiso   1.00
H305   H     0.97330   0.70180   0.69850   0.01267  Uiso   1.00
H306   H     0.12780   0.84970   0.70980   0.01267  Uiso   1.00
H307   H     0.14350   0.80580   0.75440   0.01267  Uiso   1.00
H308   H     0.15530   0.75780   0.79480   0.01267  Uiso   1.00
H309   H     0.18190   0.68550   0.83290   0.01267  Uiso   1.00
H310   H     0.03190   0.54380   0.80680   0.01267  Uiso   1.00
H311   H     0.35250   0.92280   0.80560   0.01267  Uiso   1.00
H312   H     0.35550   0.13640   0.81630   0.01267  Uiso   1.00
H313   H     0.42530   0.14650   0.77660   0.01267  Uiso   1.00
H314   H     0.47390   0.14760   0.73420   0.01267  Uiso   1.00
H315   H     0.53860   0.13840   0.69310   0.01267  Uiso   1.00
H316   H     0.54720   0.92490   0.70440   0.01267  Uiso   1.00
H317   H     0.12630   0.83770   0.94490   0.01267  Uiso   1.00
H318   H     0.34050   0.86070   0.93480   0.01267  Uiso   1.00
H319   H     0.35860   0.79150   0.97430   0.01267  Uiso   1.00
H320   H     0.36280   0.71420   0.01240   0.01267  Uiso   1.00
H321   H     0.35120   0.63280   0.04920   0.01267  Uiso   1.00
H322   H     0.13550   0.63890   0.03980   0.01267  Uiso   1.00
H323   H     0.80110   0.27310   0.62080   0.01267  Uiso   1.00
H324   H     0.72370   0.29270   0.61980   0.01267  Uiso   1.00
H325   H     0.55020   0.98120   0.59010   0.01267  Uiso   1.00
H326   H     0.54100   0.92170   0.61000   0.01267  Uiso   1.00
H327   H     0.68090   0.83160   0.61320   0.01267  Uiso   1.00
H328   H     0.65820   0.83800   0.64230   0.01267  Uiso   1.00
H329   H     0.49890   0.40810   0.40910   0.01267  Uiso   1.00
H330   H     0.52110   0.42570   0.38070   0.01267  Uiso   1.00
H331   H     0.97120   0.45770   0.62480   0.01267  Uiso   1.00
H332   H     0.94050   0.53110   0.62480   0.01267  Uiso   1.00
H333   H     0.53770   0.22490   0.44510   0.01267  Uiso   1.00
H334   H     0.37060   0.36300   0.44320   0.01267  Uiso   1.00
H335   H     0.41000   0.40970   0.48540   0.01267  Uiso   1.00
H336   H     0.46230   0.45610   0.52290   0.01267  Uiso   1.00
H337   H     0.53130   0.49940   0.56000   0.01267  Uiso   1.00
H338   H     0.66870   0.33420   0.55000   0.01267  Uiso   1.00
H339   H     0.79190   0.68660   0.54350   0.01267  Uiso   1.00
H340   H     0.91050   0.52590   0.57590   0.01267  Uiso   1.00
H341   H     0.99400   0.53960   0.54030   0.01267  Uiso   1.00
H342   H     0.06070   0.55370   0.50360   0.01267  Uiso   1.00
H343   H     0.12630   0.57430   0.46310   0.01267  Uiso   1.00
H344   H     0.99440   0.74230   0.44730   0.01267  Uiso   1.00
H345   H     0.94270   0.20330   0.68900   0.01267  Uiso   1.00
H346   H     0.80180   0.36560   0.70060   0.01267  Uiso   1.00
H347   H     0.77690   0.31830   0.74390   0.01267  Uiso   1.00
H348   H     0.76300   0.27110   0.78440   0.01267  Uiso   1.00
H349   H     0.73810   0.20590   0.82410   0.01267  Uiso   1.00
H350   H     0.87430   0.05280   0.79790   0.01267  Uiso   1.00
H351   H     0.47330   0.29820   0.80150   0.01267  Uiso   1.00
H352   H     0.62780   0.15030   0.79020   0.01267  Uiso   1.00
H353   H     0.64350   0.19420   0.74560   0.01267  Uiso   1.00
H354   H     0.65530   0.24220   0.70520   0.01267  Uiso   1.00
H355   H     0.68190   0.31450   0.66710   0.01267  Uiso   1.00
H356   H     0.53190   0.45620   0.69320   0.01267  Uiso   1.00
H357   H     0.85250   0.07720   0.69440   0.01267  Uiso   1.00
H358   H     0.85550   0.86360   0.68370   0.01267  Uiso   1.00
H359   H     0.92530   0.85350   0.72340   0.01267  Uiso   1.00
H360   H     0.97390   0.85240   0.76580   0.01267  Uiso   1.00
H361   H     0.03860   0.86160   0.80690   0.01267  Uiso   1.00
H362   H     0.04720   0.07510   0.79560   0.01267  Uiso   1.00
H363   H     0.62630   0.16230   0.55510   0.01267  Uiso   1.00
H364   H     0.84050   0.13930   0.56520   0.01267  Uiso   1.00
H365   H     0.85860   0.20850   0.52570   0.01267  Uiso   1.00
H366   H     0.86280   0.28580   0.48760   0.01267  Uiso   1.00
H367   H     0.85120   0.36720   0.45080   0.01267  Uiso   1.00
H368   H     0.63550   0.36110   0.46020   0.01267  Uiso   1.00
C1     C     0.51140   0.76210   0.04671   0.01267  Uiso   1.00
C2     C     0.45140   0.78900   0.06040   0.01267  Uiso   1.00
C3     C     0.41180   0.84450   0.04825   0.01267  Uiso   1.00
C4     C     0.43500   0.87200   0.02302   0.01267  Uiso   1.00
C5     C     0.49570   0.84270   0.01044   0.01267  Uiso   1.00
C6     C     0.52810   0.87080   0.98476   0.01267  Uiso   1.00
C7     C     0.50440   0.93260   0.97154   0.01267  Uiso   1.00
C8     C     0.54600   0.95840   0.94957   0.01267  Uiso   1.00
C9     C     0.60930   0.92300   0.94209   0.01267  Uiso   1.00
C10    C     0.62740   0.85940   0.95556   0.01267  Uiso   1.00
C11    C     0.42880   0.75510   0.08745   0.01267  Uiso   1.00
C12    C     0.65720   0.95100   0.91941   0.01267  Uiso   1.00
C13    C     0.78480   0.08920   0.91469   0.01267  Uiso   1.00
C14    C     0.83230   0.15650   0.95715   0.01267  Uiso   1.00
C15    C     0.84070   0.10350   0.93699   0.01267  Uiso   1.00
C16    C     0.90270   0.06030   0.93784   0.01267  Uiso   1.00
C17    C     0.95270   0.06830   0.95891   0.01267  Uiso   1.00
C18    C     0.93930   0.12020   0.97882   0.01267  Uiso   1.00
C19    C     0.98770   0.13320   0.00239   0.01267  Uiso   1.00
C20    C     0.04700   0.09060   0.00838   0.01267  Uiso   1.00
C21    C     0.08640   0.10290   0.03245   0.01267  Uiso   1.00
C22    C     0.06500   0.15890   0.04970   0.01267  Uiso   1.00
C23    C     0.00700   0.20300   0.04170   0.01267  Uiso   1.00
C24    C     0.10620   0.16970   0.07629   0.01267  Uiso   1.00
C25    C     0.89360   0.81390   0.83874   0.01267  Uiso   1.00
C26    C     0.90900   0.72670   0.79988   0.01267  Uiso   1.00
C27    C     0.87450   0.78840   0.81022   0.01267  Uiso   1.00
C28    C     0.82480   0.82380   0.79338   0.01267  Uiso   1.00
C29    C     0.81030   0.79560   0.76759   0.01267  Uiso   1.00
C30    C     0.84570   0.73300   0.75879   0.01267  Uiso   1.00
C31    C     0.83170   0.69730   0.73208   0.01267  Uiso   1.00
C32    C     0.78430   0.72610   0.71270   0.01267  Uiso   1.00
C33    C     0.76940   0.68740   0.68918   0.01267  Uiso   1.00
C34    C     0.80150   0.62020   0.68546   0.01267  Uiso   1.00
C35    C     0.85090   0.59660   0.70503   0.01267  Uiso   1.00
C36    C     0.78160   0.57360   0.66114   0.01267  Uiso   1.00
C37    C     0.53720   0.69690   0.66940   0.01267  Uiso   1.00
C38    C     0.50890   0.77770   0.70962   0.01267  Uiso   1.00
C39    C     0.54960   0.72150   0.69890   0.01267  Uiso   1.00
C40    C     0.60050   0.68930   0.71605   0.01267  Uiso   1.00
C41    C     0.61030   0.71590   0.74256   0.01267  Uiso   1.00
C42    C     0.57010   0.77510   0.75126   0.01267  Uiso   1.00
C43    C     0.58200   0.81120   0.77819   0.01267  Uiso   1.00
C44    C     0.63230   0.78650   0.79720   0.01267  Uiso   1.00
C45    C     0.64770   0.82940   0.81992   0.01267  Uiso   1.00
C46    C     0.61200   0.89460   0.82316   0.01267  Uiso   1.00
C47    C     0.55790   0.91360   0.80416   0.01267  Uiso   1.00
C48    C     0.63520   0.94750   0.84498   0.01267  Uiso   1.00
C49    C     0.79390   0.48140   0.83845   0.01267  Uiso   1.00
C50    C     0.86760   0.53160   0.79981   0.01267  Uiso   1.00
C51    C     0.84540   0.47170   0.81492   0.01267  Uiso   1.00
C52    C     0.86820   0.40460   0.80634   0.01267  Uiso   1.00
C53    C     0.91020   0.39870   0.78279   0.01267  Uiso   1.00
C54    C     0.92930   0.46040   0.76854   0.01267  Uiso   1.00
C55    C     0.97210   0.45940   0.74274   0.01267  Uiso   1.00
C56    C     0.98870   0.39740   0.72774   0.01267  Uiso   1.00
C57    C     0.02720   0.40270   0.70333   0.01267  Uiso   1.00
C58    C     0.04840   0.47030   0.69437   0.01267  Uiso   1.00
C59    C     0.03140   0.52990   0.71025   0.01267  Uiso   1.00
C60    C     0.08950   0.48240   0.66795   0.01267  Uiso   1.00
C61    C     0.71450   0.60150   0.91004   0.01267  Uiso   1.00
C62    C     0.67340   0.67210   0.95069   0.01267  Uiso   1.00
C63    C     0.73180   0.64520   0.93526   0.01267  Uiso   1.00
C64    C     0.80110   0.65800   0.94436   0.01267  Uiso   1.00
C65    C     0.81200   0.69900   0.96796   0.01267  Uiso   1.00
C66    C     0.75210   0.72560   0.98185   0.01267  Uiso   1.00
C67    C     0.75440   0.77550   0.00556   0.01267  Uiso   1.00
C68    C     0.81730   0.80110   0.01825   0.01267  Uiso   1.00
C69    C     0.81030   0.85030   0.03998   0.01267  Uiso   1.00
C70    C     0.74150   0.87360   0.04770   0.01267  Uiso   1.00
C71    C     0.68140   0.84540   0.03451   0.01267  Uiso   1.00
C72    C     0.72830   0.92810   0.07049   0.01267  Uiso   1.00
C73    C     0.01140   0.23790   0.45329   0.01267  Uiso   1.00
C74    C     0.95140   0.21100   0.43960   0.01267  Uiso   1.00
C75    C     0.91180   0.15550   0.45175   0.01267  Uiso   1.00
C76    C     0.93500   0.12800   0.47698   0.01267  Uiso   1.00
C77    C     0.99570   0.15730   0.48956   0.01267  Uiso   1.00
C78    C     0.02810   0.12920   0.51524   0.01267  Uiso   1.00
C79    C     0.00440   0.06740   0.52846   0.01267  Uiso   1.00
C80    C     0.04600   0.04160   0.55043   0.01267  Uiso   1.00
C81    C     0.10930   0.07700   0.55791   0.01267  Uiso   1.00
C82    C     0.12740   0.14060   0.54444   0.01267  Uiso   1.00
C83    C     0.92880   0.24490   0.41255   0.01267  Uiso   1.00
C84    C     0.15720   0.04900   0.58059   0.01267  Uiso   1.00
C85    C     0.28480   0.91080   0.58531   0.01267  Uiso   1.00
C86    C     0.33230   0.84350   0.54285   0.01267  Uiso   1.00
C87    C     0.34070   0.89650   0.56301   0.01267  Uiso   1.00
C88    C     0.40270   0.93970   0.56216   0.01267  Uiso   1.00
C89    C     0.45270   0.93170   0.54109   0.01267  Uiso   1.00
C90    C     0.43930   0.87980   0.52118   0.01267  Uiso   1.00
C91    C     0.48770   0.86680   0.49761   0.01267  Uiso   1.00
C92    C     0.54700   0.90940   0.49162   0.01267  Uiso   1.00
C93    C     0.58640   0.89710   0.46755   0.01267  Uiso   1.00
C94    C     0.56500   0.84110   0.45030   0.01267  Uiso   1.00
C95    C     0.50700   0.79700   0.45830   0.01267  Uiso   1.00
C96    C     0.60620   0.83030   0.42371   0.01267  Uiso   1.00
C97    C     0.39360   0.18610   0.66126   0.01267  Uiso   1.00
C98    C     0.40900   0.27330   0.70012   0.01267  Uiso   1.00
C99    C     0.37450   0.21160   0.68978   0.01267  Uiso   1.00
C100   C     0.32480   0.17620   0.70662   0.01267  Uiso   1.00
C101   C     0.31030   0.20440   0.73241   0.01267  Uiso   1.00
C102   C     0.34570   0.26700   0.74121   0.01267  Uiso   1.00
C103   C     0.33170   0.30270   0.76792   0.01267  Uiso   1.00
C104   C     0.28430   0.27390   0.78730   0.01267  Uiso   1.00
C105   C     0.26940   0.31260   0.81082   0.01267  Uiso   1.00
C106   C     0.30150   0.37980   0.81454   0.01267  Uiso   1.00
C107   C     0.35090   0.40340   0.79497   0.01267  Uiso   1.00
C108   C     0.28160   0.42640   0.83886   0.01267  Uiso   1.00
C109   C     0.03720   0.30310   0.83060   0.01267  Uiso   1.00
C110   C     0.00890   0.22230   0.79038   0.01267  Uiso   1.00
C111   C     0.04960   0.27850   0.80110   0.01267  Uiso   1.00
C112   C     0.10050   0.31070   0.78395   0.01267  Uiso   1.00
C113   C     0.11030   0.28410   0.75744   0.01267  Uiso   1.00
C114   C     0.07010   0.22490   0.74874   0.01267  Uiso   1.00
C115   C     0.08200   0.18880   0.72181   0.01267  Uiso   1.00
C116   C     0.13230   0.21350   0.70280   0.01267  Uiso   1.00
C117   C     0.14770   0.17060   0.68008   0.01267  Uiso   1.00
C118   C     0.11200   0.10540   0.67684   0.01267  Uiso   1.00
C119   C     0.05790   0.08640   0.69584   0.01267  Uiso   1.00
C120   C     0.13520   0.05250   0.65502   0.01267  Uiso   1.00
C121   C     0.29390   0.51860   0.66155   0.01267  Uiso   1.00
C122   C     0.36760   0.46840   0.70019   0.01267  Uiso   1.00
C123   C     0.34540   0.52830   0.68508   0.01267  Uiso   1.00
C124   C     0.36820   0.59540   0.69366   0.01267  Uiso   1.00
C125   C     0.41020   0.60130   0.71721   0.01267  Uiso   1.00
C126   C     0.42930   0.53960   0.73146   0.01267  Uiso   1.00
C127   C     0.47210   0.54060   0.75726   0.01267  Uiso   1.00
C128   C     0.48870   0.60260   0.77226   0.01267  Uiso   1.00
C129   C     0.52720   0.59730   0.79667   0.01267  Uiso   1.00
C130   C     0.54840   0.52970   0.80563   0.01267  Uiso   1.00
C131   C     0.53140   0.47010   0.78975   0.01267  Uiso   1.00
C132   C     0.58950   0.51760   0.83205   0.01267  Uiso   1.00
C133   C     0.21450   0.39850   0.58996   0.01267  Uiso   1.00
C134   C     0.17340   0.32790   0.54931   0.01267  Uiso   1.00
C135   C     0.23180   0.35480   0.56474   0.01267  Uiso   1.00
C136   C     0.30110   0.34200   0.55564   0.01267  Uiso   1.00
C137   C     0.31200   0.30100   0.53204   0.01267  Uiso   1.00
C138   C     0.25210   0.27440   0.51815   0.01267  Uiso   1.00
C139   C     0.25440   0.22450   0.49444   0.01267  Uiso   1.00
C140   C     0.31730   0.19890   0.48175   0.01267  Uiso   1.00
C141   C     0.31030   0.14970   0.46002   0.01267  Uiso   1.00
C142   C     0.24150   0.12640   0.45230   0.01267  Uiso   1.00
C143   C     0.18140   0.15460   0.46549   0.01267  Uiso   1.00
C144   C     0.22830   0.07190   0.42951   0.01267  Uiso   1.00
C145   C     0.98860   0.26210   0.95329   0.01267  Uiso   1.00
C146   C     0.04860   0.28900   0.93960   0.01267  Uiso   1.00
C147   C     0.08820   0.34450   0.95175   0.01267  Uiso   1.00
C148   C     0.06500   0.37200   0.97698   0.01267  Uiso   1.00
C149   C     0.00430   0.34270   0.98956   0.01267  Uiso   1.00
C150   C     0.97190   0.37080   0.01524   0.01267  Uiso   1.00
C151   C     0.99560   0.43260   0.02846   0.01267  Uiso   1.00
C152   C     0.95400   0.45840   0.05043   0.01267  Uiso   1.00
C153   C     0.89070   0.42300   0.05791   0.01267  Uiso   1.00
C154   C     0.87260   0.35940   0.04444   0.01267  Uiso   1.00
C155   C     0.07120   0.25510   0.91255   0.01267  Uiso   1.00
C156   C     0.84280   0.45100   0.08059   0.01267  Uiso   1.00
C157   C     0.71520   0.58920   0.08531   0.01267  Uiso   1.00
C158   C     0.66770   0.65650   0.04285   0.01267  Uiso   1.00
C159   C     0.65930   0.60350   0.06301   0.01267  Uiso   1.00
C160   C     0.59730   0.56030   0.06216   0.01267  Uiso   1.00
C161   C     0.54730   0.56830   0.04109   0.01267  Uiso   1.00
C162   C     0.56070   0.62020   0.02118   0.01267  Uiso   1.00
C163   C     0.51230   0.63320   0.99761   0.01267  Uiso   1.00
C164   C     0.45300   0.59060   0.99162   0.01267  Uiso   1.00
C165   C     0.41360   0.60290   0.96755   0.01267  Uiso   1.00
C166   C     0.43500   0.65890   0.95030   0.01267  Uiso   1.00
C167   C     0.49300   0.70300   0.95830   0.01267  Uiso   1.00
C168   C     0.39380   0.66970   0.92371   0.01267  Uiso   1.00
C169   C     0.60640   0.31390   0.16126   0.01267  Uiso   1.00
C170   C     0.59100   0.22670   0.20012   0.01267  Uiso   1.00
C171   C     0.62550   0.28840   0.18978   0.01267  Uiso   1.00
C172   C     0.67520   0.32380   0.20662   0.01267  Uiso   1.00
C173   C     0.68970   0.29560   0.23241   0.01267  Uiso   1.00
C174   C     0.65430   0.23300   0.24121   0.01267  Uiso   1.00
C175   C     0.66830   0.19730   0.26792   0.01267  Uiso   1.00
C176   C     0.71570   0.22610   0.28730   0.01267  Uiso   1.00
C177   C     0.73060   0.18740   0.31082   0.01267  Uiso   1.00
C178   C     0.69850   0.12020   0.31454   0.01267  Uiso   1.00
C179   C     0.64910   0.09660   0.29497   0.01267  Uiso   1.00
C180   C     0.71840   0.07360   0.33886   0.01267  Uiso   1.00
C181   C     0.96280   0.19690   0.33060   0.01267  Uiso   1.00
C182   C     0.99110   0.27770   0.29038   0.01267  Uiso   1.00
C183   C     0.95040   0.22150   0.30110   0.01267  Uiso   1.00
C184   C     0.89950   0.18930   0.28395   0.01267  Uiso   1.00
C185   C     0.88970   0.21590   0.25744   0.01267  Uiso   1.00
C186   C     0.92990   0.27510   0.24874   0.01267  Uiso   1.00
C187   C     0.91800   0.31120   0.22181   0.01267  Uiso   1.00
C188   C     0.86770   0.28650   0.20280   0.01267  Uiso   1.00
C189   C     0.85230   0.32940   0.18008   0.01267  Uiso   1.00
C190   C     0.88800   0.39460   0.17684   0.01267  Uiso   1.00
C191   C     0.94210   0.41360   0.19584   0.01267  Uiso   1.00
C192   C     0.86480   0.44750   0.15502   0.01267  Uiso   1.00
C193   C     0.70610   0.98140   0.16155   0.01267  Uiso   1.00
C194   C     0.63240   0.03160   0.20019   0.01267  Uiso   1.00
C195   C     0.65460   0.97170   0.18508   0.01267  Uiso   1.00
C196   C     0.63180   0.90460   0.19366   0.01267  Uiso   1.00
C197   C     0.58980   0.89870   0.21721   0.01267  Uiso   1.00
C198   C     0.57070   0.96040   0.23146   0.01267  Uiso   1.00
C199   C     0.52790   0.95940   0.25726   0.01267  Uiso   1.00
C200   C     0.51130   0.89740   0.27226   0.01267  Uiso   1.00
C201   C     0.47280   0.90270   0.29667   0.01267  Uiso   1.00
C202   C     0.45160   0.97030   0.30563   0.01267  Uiso   1.00
C203   C     0.46860   0.02990   0.28975   0.01267  Uiso   1.00
C204   C     0.41050   0.98240   0.33205   0.01267  Uiso   1.00
C205   C     0.78550   0.10150   0.08996   0.01267  Uiso   1.00
C206   C     0.82660   0.17210   0.04931   0.01267  Uiso   1.00
C207   C     0.76820   0.14520   0.06474   0.01267  Uiso   1.00
C208   C     0.69890   0.15800   0.05564   0.01267  Uiso   1.00
C209   C     0.68800   0.19900   0.03204   0.01267  Uiso   1.00
C210   C     0.74790   0.22560   0.01815   0.01267  Uiso   1.00
C211   C     0.74560   0.27550   0.99444   0.01267  Uiso   1.00
C212   C     0.68270   0.30110   0.98175   0.01267  Uiso   1.00
C213   C     0.68970   0.35030   0.96002   0.01267  Uiso   1.00
C214   C     0.75850   0.37360   0.95230   0.01267  Uiso   1.00
C215   C     0.81860   0.34540   0.96549   0.01267  Uiso   1.00
C216   C     0.77170   0.42810   0.92951   0.01267  Uiso   1.00
C217   C     0.48860   0.73790   0.54671   0.01267  Uiso   1.00
C218   C     0.54860   0.71100   0.56040   0.01267  Uiso   1.00
C219   C     0.58820   0.65550   0.54825   0.01267  Uiso   1.00
C220   C     0.56500   0.62800   0.52302   0.01267  Uiso   1.00
C221   C     0.50430   0.65730   0.51044   0.01267  Uiso   1.00
C222   C     0.47190   0.62920   0.48476   0.01267  Uiso   1.00
C223   C     0.49560   0.56740   0.47154   0.01267  Uiso   1.00
C224   C     0.45400   0.54160   0.44957   0.01267  Uiso   1.00
C225   C     0.39070   0.57700   0.44209   0.01267  Uiso   1.00
C226   C     0.37260   0.64060   0.45556   0.01267  Uiso   1.00
C227   C     0.57120   0.74490   0.58745   0.01267  Uiso   1.00
C228   C     0.34280   0.54900   0.41941   0.01267  Uiso   1.00
C229   C     0.21520   0.41080   0.41469   0.01267  Uiso   1.00
C230   C     0.16770   0.34350   0.45715   0.01267  Uiso   1.00
C231   C     0.15930   0.39650   0.43699   0.01267  Uiso   1.00
C232   C     0.09730   0.43970   0.43784   0.01267  Uiso   1.00
C233   C     0.04730   0.43170   0.45891   0.01267  Uiso   1.00
C234   C     0.06070   0.37980   0.47882   0.01267  Uiso   1.00
C235   C     0.01230   0.36680   0.50239   0.01267  Uiso   1.00
C236   C     0.95300   0.40940   0.50838   0.01267  Uiso   1.00
C237   C     0.91360   0.39710   0.53245   0.01267  Uiso   1.00
C238   C     0.93500   0.34110   0.54970   0.01267  Uiso   1.00
C239   C     0.99300   0.29700   0.54170   0.01267  Uiso   1.00
C240   C     0.89380   0.33030   0.57629   0.01267  Uiso   1.00
C241   C     0.10640   0.68610   0.33874   0.01267  Uiso   1.00
C242   C     0.09100   0.77330   0.29988   0.01267  Uiso   1.00
C243   C     0.12550   0.71160   0.31022   0.01267  Uiso   1.00
C244   C     0.17520   0.67620   0.29338   0.01267  Uiso   1.00
C245   C     0.18970   0.70440   0.26759   0.01267  Uiso   1.00
C246   C     0.15430   0.76700   0.25879   0.01267  Uiso   1.00
C247   C     0.16830   0.80270   0.23208   0.01267  Uiso   1.00
C248   C     0.21570   0.77390   0.21270   0.01267  Uiso   1.00
C249   C     0.23060   0.81260   0.18918   0.01267  Uiso   1.00
C250   C     0.19850   0.87980   0.18546   0.01267  Uiso   1.00
C251   C     0.14910   0.90340   0.20503   0.01267  Uiso   1.00
C252   C     0.21840   0.92640   0.16114   0.01267  Uiso   1.00
C253   C     0.46280   0.80310   0.16940   0.01267  Uiso   1.00
C254   C     0.49110   0.72230   0.20962   0.01267  Uiso   1.00
C255   C     0.45040   0.77850   0.19890   0.01267  Uiso   1.00
C256   C     0.39950   0.81070   0.21605   0.01267  Uiso   1.00
C257   C     0.38970   0.78410   0.24256   0.01267  Uiso   1.00
C258   C     0.42990   0.72490   0.25126   0.01267  Uiso   1.00
C259   C     0.41800   0.68880   0.27819   0.01267  Uiso   1.00
C260   C     0.36770   0.71350   0.29720   0.01267  Uiso   1.00
C261   C     0.35230   0.67060   0.31992   0.01267  Uiso   1.00
C262   C     0.38800   0.60540   0.32316   0.01267  Uiso   1.00
C263   C     0.44210   0.58640   0.30416   0.01267  Uiso   1.00
C264   C     0.36480   0.55250   0.34498   0.01267  Uiso   1.00
C265   C     0.20610   0.01860   0.33845   0.01267  Uiso   1.00
C266   C     0.13240   0.96840   0.29981   0.01267  Uiso   1.00
C267   C     0.15460   0.02830   0.31492   0.01267  Uiso   1.00
C268   C     0.13180   0.09540   0.30634   0.01267  Uiso   1.00
C269   C     0.08980   0.10130   0.28279   0.01267  Uiso   1.00
C270   C     0.07070   0.03960   0.26854   0.01267  Uiso   1.00
C271   C     0.02790   0.04060   0.24274   0.01267  Uiso   1.00
C272   C     0.01130   0.10260   0.22774   0.01267  Uiso   1.00
C273   C     0.97280   0.09730   0.20333   0.01267  Uiso   1.00
C274   C     0.95160   0.02970   0.19437   0.01267  Uiso   1.00
C275   C     0.96860   0.97010   0.21025   0.01267  Uiso   1.00
C276   C     0.91050   0.01760   0.16795   0.01267  Uiso   1.00
C277   C     0.28550   0.89850   0.41004   0.01267  Uiso   1.00
C278   C     0.32660   0.82790   0.45069   0.01267  Uiso   1.00
C279   C     0.26820   0.85480   0.43526   0.01267  Uiso   1.00
C280   C     0.19890   0.84200   0.44436   0.01267  Uiso   1.00
C281   C     0.18800   0.80100   0.46796   0.01267  Uiso   1.00
C282   C     0.24790   0.77440   0.48185   0.01267  Uiso   1.00
C283   C     0.24560   0.72450   0.50556   0.01267  Uiso   1.00
C284   C     0.18270   0.69890   0.51825   0.01267  Uiso   1.00
C285   C     0.18970   0.64970   0.53998   0.01267  Uiso   1.00
C286   C     0.25850   0.62640   0.54770   0.01267  Uiso   1.00
C287   C     0.31860   0.65460   0.53451   0.01267  Uiso   1.00
C288   C     0.27170   0.57190   0.57049   0.01267  Uiso   1.00
C289   C     0.48860   0.23790   0.95329   0.01267  Uiso   1.00
C290   C     0.54860   0.21100   0.93960   0.01267  Uiso   1.00
C291   C     0.58820   0.15550   0.95175   0.01267  Uiso   1.00
C292   C     0.56500   0.12800   0.97698   0.01267  Uiso   1.00
C293   C     0.50430   0.15730   0.98956   0.01267  Uiso   1.00
C294   C     0.47190   0.12920   0.01524   0.01267  Uiso   1.00
C295   C     0.49560   0.06740   0.02846   0.01267  Uiso   1.00
C296   C     0.45400   0.04160   0.05043   0.01267  Uiso   1.00
C297   C     0.39070   0.07700   0.05791   0.01267  Uiso   1.00
C298   C     0.37260   0.14060   0.04444   0.01267  Uiso   1.00
C299   C     0.57120   0.24490   0.91255   0.01267  Uiso   1.00
C300   C     0.34280   0.04900   0.08059   0.01267  Uiso   1.00
C301   C     0.21520   0.91080   0.08531   0.01267  Uiso   1.00
C302   C     0.16770   0.84350   0.04285   0.01267  Uiso   1.00
C303   C     0.15930   0.89650   0.06301   0.01267  Uiso   1.00
C304   C     0.09730   0.93970   0.06216   0.01267  Uiso   1.00
C305   C     0.04730   0.93170   0.04109   0.01267  Uiso   1.00
C306   C     0.06070   0.87980   0.02118   0.01267  Uiso   1.00
C307   C     0.01230   0.86680   0.99761   0.01267  Uiso   1.00
C308   C     0.95300   0.90940   0.99162   0.01267  Uiso   1.00
C309   C     0.91360   0.89710   0.96755   0.01267  Uiso   1.00
C310   C     0.93500   0.84110   0.95030   0.01267  Uiso   1.00
C311   C     0.99300   0.79700   0.95830   0.01267  Uiso   1.00
C312   C     0.89380   0.83030   0.92371   0.01267  Uiso   1.00
C313   C     0.10640   0.18610   0.16126   0.01267  Uiso   1.00
C314   C     0.09100   0.27330   0.20012   0.01267  Uiso   1.00
C315   C     0.12550   0.21160   0.18978   0.01267  Uiso   1.00
C316   C     0.17520   0.17620   0.20662   0.01267  Uiso   1.00
C317   C     0.18970   0.20440   0.23241   0.01267  Uiso   1.00
C318   C     0.15430   0.26700   0.24121   0.01267  Uiso   1.00
C319   C     0.16830   0.30270   0.26792   0.01267  Uiso   1.00
C320   C     0.21570   0.27390   0.28730   0.01267  Uiso   1.00
C321   C     0.23060   0.31260   0.31082   0.01267  Uiso   1.00
C322   C     0.19850   0.37980   0.31454   0.01267  Uiso   1.00
C323   C     0.14910   0.40340   0.29497   0.01267  Uiso   1.00
C324   C     0.21840   0.42640   0.33886   0.01267  Uiso   1.00
C325   C     0.46280   0.30310   0.33060   0.01267  Uiso   1.00
C326   C     0.49110   0.22230   0.29038   0.01267  Uiso   1.00
C327   C     0.45040   0.27850   0.30110   0.01267  Uiso   1.00
C328   C     0.39950   0.31070   0.28395   0.01267  Uiso   1.00
C329   C     0.38970   0.28410   0.25744   0.01267  Uiso   1.00
C330   C     0.42990   0.22490   0.24874   0.01267  Uiso   1.00
C331   C     0.41800   0.18880   0.22181   0.01267  Uiso   1.00
C332   C     0.36770   0.21350   0.20280   0.01267  Uiso   1.00
C333   C     0.35230   0.17060   0.18008   0.01267  Uiso   1.00
C334   C     0.38800   0.10540   0.17684   0.01267  Uiso   1.00
C335   C     0.44210   0.08640   0.19584   0.01267  Uiso   1.00
C336   C     0.36480   0.05250   0.15502   0.01267  Uiso   1.00
C337   C     0.20610   0.51860   0.16155   0.01267  Uiso   1.00
C338   C     0.13240   0.46840   0.20019   0.01267  Uiso   1.00
C339   C     0.15460   0.52830   0.18508   0.01267  Uiso   1.00
C340   C     0.13180   0.59540   0.19366   0.01267  Uiso   1.00
C341   C     0.08980   0.60130   0.21721   0.01267  Uiso   1.00
C342   C     0.07070   0.53960   0.23146   0.01267  Uiso   1.00
C343   C     0.02790   0.54060   0.25726   0.01267  Uiso   1.00
C344   C     0.01130   0.60260   0.27226   0.01267  Uiso   1.00
C345   C     0.97280   0.59730   0.29667   0.01267  Uiso   1.00
C346   C     0.95160   0.52970   0.30563   0.01267  Uiso   1.00
C347   C     0.96860   0.47010   0.28975   0.01267  Uiso   1.00
C348   C     0.91050   0.51760   0.33205   0.01267  Uiso   1.00
C349   C     0.28550   0.39850   0.08996   0.01267  Uiso   1.00
C350   C     0.32660   0.32790   0.04931   0.01267  Uiso   1.00
C351   C     0.26820   0.35480   0.06474   0.01267  Uiso   1.00
C352   C     0.19890   0.34200   0.05564   0.01267  Uiso   1.00
C353   C     0.18800   0.30100   0.03204   0.01267  Uiso   1.00
C354   C     0.24790   0.27440   0.01815   0.01267  Uiso   1.00
C355   C     0.24560   0.22450   0.99444   0.01267  Uiso   1.00
C356   C     0.18270   0.19890   0.98175   0.01267  Uiso   1.00
C357   C     0.18970   0.14970   0.96002   0.01267  Uiso   1.00
C358   C     0.25850   0.12640   0.95230   0.01267  Uiso   1.00
C359   C     0.31860   0.15460   0.96549   0.01267  Uiso   1.00
C360   C     0.27170   0.07190   0.92951   0.01267  Uiso   1.00
C361   C     0.98860   0.76210   0.54671   0.01267  Uiso   1.00
C362   C     0.04860   0.78900   0.56040   0.01267  Uiso   1.00
C363   C     0.08820   0.84450   0.54825   0.01267  Uiso   1.00
C364   C     0.06500   0.87200   0.52302   0.01267  Uiso   1.00
C365   C     0.00430   0.84270   0.51044   0.01267  Uiso   1.00
C366   C     0.97190   0.87080   0.48476   0.01267  Uiso   1.00
C367   C     0.99560   0.93260   0.47154   0.01267  Uiso   1.00
C368   C     0.95400   0.95840   0.44957   0.01267  Uiso   1.00
C369   C     0.89070   0.92300   0.44209   0.01267  Uiso   1.00
C370   C     0.87260   0.85940   0.45556   0.01267  Uiso   1.00
C371   C     0.07120   0.75510   0.58745   0.01267  Uiso   1.00
C372   C     0.84280   0.95100   0.41941   0.01267  Uiso   1.00
C373   C     0.71520   0.08920   0.41469   0.01267  Uiso   1.00
C374   C     0.66770   0.15650   0.45715   0.01267  Uiso   1.00
C375   C     0.65930   0.10350   0.43699   0.01267  Uiso   1.00
C376   C     0.59730   0.06030   0.43784   0.01267  Uiso   1.00
C377   C     0.54730   0.06830   0.45891   0.01267  Uiso   1.00
C378   C     0.56070   0.12020   0.47882   0.01267  Uiso   1.00
C379   C     0.51230   0.13320   0.50239   0.01267  Uiso   1.00
C380   C     0.45300   0.09060   0.50838   0.01267  Uiso   1.00
C381   C     0.41360   0.10290   0.53245   0.01267  Uiso   1.00
C382   C     0.43500   0.15890   0.54970   0.01267  Uiso   1.00
C383   C     0.49300   0.20300   0.54170   0.01267  Uiso   1.00
C384   C     0.39380   0.16970   0.57629   0.01267  Uiso   1.00
C385   C     0.60640   0.81390   0.33874   0.01267  Uiso   1.00
C386   C     0.59100   0.72670   0.29988   0.01267  Uiso   1.00
C387   C     0.62550   0.78840   0.31022   0.01267  Uiso   1.00
C388   C     0.67520   0.82380   0.29338   0.01267  Uiso   1.00
C389   C     0.68970   0.79560   0.26759   0.01267  Uiso   1.00
C390   C     0.65430   0.73300   0.25879   0.01267  Uiso   1.00
C391   C     0.66830   0.69730   0.23208   0.01267  Uiso   1.00
C392   C     0.71570   0.72610   0.21270   0.01267  Uiso   1.00
C393   C     0.73060   0.68740   0.18918   0.01267  Uiso   1.00
C394   C     0.69850   0.62020   0.18546   0.01267  Uiso   1.00
C395   C     0.64910   0.59660   0.20503   0.01267  Uiso   1.00
C396   C     0.71840   0.57360   0.16114   0.01267  Uiso   1.00
C397   C     0.96280   0.69690   0.16940   0.01267  Uiso   1.00
C398   C     0.99110   0.77770   0.20962   0.01267  Uiso   1.00
C399   C     0.95040   0.72150   0.19890   0.01267  Uiso   1.00
C400   C     0.89950   0.68930   0.21605   0.01267  Uiso   1.00
C401   C     0.88970   0.71590   0.24256   0.01267  Uiso   1.00
C402   C     0.92990   0.77510   0.25126   0.01267  Uiso   1.00
C403   C     0.91800   0.81120   0.27819   0.01267  Uiso   1.00
C404   C     0.86770   0.78650   0.29720   0.01267  Uiso   1.00
C405   C     0.85230   0.82940   0.31992   0.01267  Uiso   1.00
C406   C     0.88800   0.89460   0.32316   0.01267  Uiso   1.00
C407   C     0.94210   0.91360   0.30416   0.01267  Uiso   1.00
C408   C     0.86480   0.94750   0.34498   0.01267  Uiso   1.00
C409   C     0.70610   0.48140   0.33845   0.01267  Uiso   1.00
C410   C     0.63240   0.53160   0.29981   0.01267  Uiso   1.00
C411   C     0.65460   0.47170   0.31492   0.01267  Uiso   1.00
C412   C     0.63180   0.40460   0.30634   0.01267  Uiso   1.00
C413   C     0.58980   0.39870   0.28279   0.01267  Uiso   1.00
C414   C     0.57070   0.46040   0.26854   0.01267  Uiso   1.00
C415   C     0.52790   0.45940   0.24274   0.01267  Uiso   1.00
C416   C     0.51130   0.39740   0.22774   0.01267  Uiso   1.00
C417   C     0.47280   0.40270   0.20333   0.01267  Uiso   1.00
C418   C     0.45160   0.47030   0.19437   0.01267  Uiso   1.00
C419   C     0.46860   0.52990   0.21025   0.01267  Uiso   1.00
C420   C     0.41050   0.48240   0.16795   0.01267  Uiso   1.00
C421   C     0.78550   0.60150   0.41004   0.01267  Uiso   1.00
C422   C     0.82660   0.67210   0.45069   0.01267  Uiso   1.00
C423   C     0.76820   0.64520   0.43526   0.01267  Uiso   1.00
C424   C     0.69890   0.65800   0.44436   0.01267  Uiso   1.00
C425   C     0.68800   0.69900   0.46796   0.01267  Uiso   1.00
C426   C     0.74790   0.72560   0.48185   0.01267  Uiso   1.00
C427   C     0.74560   0.77550   0.50556   0.01267  Uiso   1.00
C428   C     0.68270   0.80110   0.51825   0.01267  Uiso   1.00
C429   C     0.68970   0.85030   0.53998   0.01267  Uiso   1.00
C430   C     0.75850   0.87360   0.54770   0.01267  Uiso   1.00
C431   C     0.81860   0.84540   0.53451   0.01267  Uiso   1.00
C432   C     0.77170   0.92810   0.57049   0.01267  Uiso   1.00
C433   C     0.01140   0.73790   0.04671   0.01267  Uiso   1.00
C434   C     0.95140   0.71100   0.06040   0.01267  Uiso   1.00
C435   C     0.91180   0.65550   0.04825   0.01267  Uiso   1.00
C436   C     0.93500   0.62800   0.02302   0.01267  Uiso   1.00
C437   C     0.99570   0.65730   0.01044   0.01267  Uiso   1.00
C438   C     0.02810   0.62920   0.98476   0.01267  Uiso   1.00
C439   C     0.00440   0.56740   0.97154   0.01267  Uiso   1.00
C440   C     0.04600   0.54160   0.94957   0.01267  Uiso   1.00
C441   C     0.10930   0.57700   0.94209   0.01267  Uiso   1.00
C442   C     0.12740   0.64060   0.95556   0.01267  Uiso   1.00
C443   C     0.92880   0.74490   0.08745   0.01267  Uiso   1.00
C444   C     0.15720   0.54900   0.91941   0.01267  Uiso   1.00
C445   C     0.28480   0.41080   0.91469   0.01267  Uiso   1.00
C446   C     0.33230   0.34350   0.95715   0.01267  Uiso   1.00
C447   C     0.34070   0.39650   0.93699   0.01267  Uiso   1.00
C448   C     0.40270   0.43970   0.93784   0.01267  Uiso   1.00
C449   C     0.45270   0.43170   0.95891   0.01267  Uiso   1.00
C450   C     0.43930   0.37980   0.97882   0.01267  Uiso   1.00
C451   C     0.48770   0.36680   0.00239   0.01267  Uiso   1.00
C452   C     0.54700   0.40940   0.00838   0.01267  Uiso   1.00
C453   C     0.58640   0.39710   0.03245   0.01267  Uiso   1.00
C454   C     0.56500   0.34110   0.04970   0.01267  Uiso   1.00
C455   C     0.50700   0.29700   0.04170   0.01267  Uiso   1.00
C456   C     0.60620   0.33030   0.07629   0.01267  Uiso   1.00
C457   C     0.39360   0.68610   0.83874   0.01267  Uiso   1.00
C458   C     0.40900   0.77330   0.79988   0.01267  Uiso   1.00
C459   C     0.37450   0.71160   0.81022   0.01267  Uiso   1.00
C460   C     0.32480   0.67620   0.79338   0.01267  Uiso   1.00
C461   C     0.31030   0.70440   0.76759   0.01267  Uiso   1.00
C462   C     0.34570   0.76700   0.75879   0.01267  Uiso   1.00
C463   C     0.33170   0.80270   0.73208   0.01267  Uiso   1.00
C464   C     0.28430   0.77390   0.71270   0.01267  Uiso   1.00
C465   C     0.26940   0.81260   0.68918   0.01267  Uiso   1.00
C466   C     0.30150   0.87980   0.68546   0.01267  Uiso   1.00
C467   C     0.35090   0.90340   0.70503   0.01267  Uiso   1.00
C468   C     0.28160   0.92640   0.66114   0.01267  Uiso   1.00
C469   C     0.03720   0.80310   0.66940   0.01267  Uiso   1.00
C470   C     0.00890   0.72230   0.70962   0.01267  Uiso   1.00
C471   C     0.04960   0.77850   0.69890   0.01267  Uiso   1.00
C472   C     0.10050   0.81070   0.71605   0.01267  Uiso   1.00
C473   C     0.11030   0.78410   0.74256   0.01267  Uiso   1.00
C474   C     0.07010   0.72490   0.75126   0.01267  Uiso   1.00
C475   C     0.08200   0.68880   0.77819   0.01267  Uiso   1.00
C476   C     0.13230   0.71350   0.79720   0.01267  Uiso   1.00
C477   C     0.14770   0.67060   0.81992   0.01267  Uiso   1.00
C478   C     0.11200   0.60540   0.82316   0.01267  Uiso   1.00
C479   C     0.05790   0.58640   0.80416   0.01267  Uiso   1.00
C480   C     0.13520   0.55250   0.84498   0.01267  Uiso   1.00
C481   C     0.29390   0.01860   0.83845   0.01267  Uiso   1.00
C482   C     0.36760   0.96840   0.79981   0.01267  Uiso   1.00
C483   C     0.34540   0.02830   0.81492   0.01267  Uiso   1.00
C484   C     0.36820   0.09540   0.80634   0.01267  Uiso   1.00
C485   C     0.41020   0.10130   0.78279   0.01267  Uiso   1.00
C486   C     0.42930   0.03960   0.76854   0.01267  Uiso   1.00
C487   C     0.47210   0.04060   0.74274   0.01267  Uiso   1.00
C488   C     0.48870   0.10260   0.72774   0.01267  Uiso   1.00
C489   C     0.52720   0.09730   0.70333   0.01267  Uiso   1.00
C490   C     0.54840   0.02970   0.69437   0.01267  Uiso   1.00
C491   C     0.53140   0.97010   0.71025   0.01267  Uiso   1.00
C492   C     0.58950   0.01760   0.66795   0.01267  Uiso   1.00
C493   C     0.21450   0.89850   0.91004   0.01267  Uiso   1.00
C494   C     0.17340   0.82790   0.95069   0.01267  Uiso   1.00
C495   C     0.23180   0.85480   0.93526   0.01267  Uiso   1.00
C496   C     0.30110   0.84200   0.94436   0.01267  Uiso   1.00
C497   C     0.31200   0.80100   0.96796   0.01267  Uiso   1.00
C498   C     0.25210   0.77440   0.98185   0.01267  Uiso   1.00
C499   C     0.25440   0.72450   0.00556   0.01267  Uiso   1.00
C500   C     0.31730   0.69890   0.01825   0.01267  Uiso   1.00
C501   C     0.31030   0.64970   0.03998   0.01267  Uiso   1.00
C502   C     0.24150   0.62640   0.04770   0.01267  Uiso   1.00
C503   C     0.18140   0.65460   0.03451   0.01267  Uiso   1.00
C504   C     0.22830   0.57190   0.07049   0.01267  Uiso   1.00
C505   C     0.51140   0.26210   0.45329   0.01267  Uiso   1.00
C506   C     0.45140   0.28900   0.43960   0.01267  Uiso   1.00
C507   C     0.41180   0.34450   0.45175   0.01267  Uiso   1.00
C508   C     0.43500   0.37200   0.47698   0.01267  Uiso   1.00
C509   C     0.49570   0.34270   0.48956   0.01267  Uiso   1.00
C510   C     0.52810   0.37080   0.51524   0.01267  Uiso   1.00
C511   C     0.50440   0.43260   0.52846   0.01267  Uiso   1.00
C512   C     0.54600   0.45840   0.55043   0.01267  Uiso   1.00
C513   C     0.60930   0.42300   0.55791   0.01267  Uiso   1.00
C514   C     0.62740   0.35940   0.54444   0.01267  Uiso   1.00
C515   C     0.42880   0.25510   0.41255   0.01267  Uiso   1.00
C516   C     0.65720   0.45100   0.58059   0.01267  Uiso   1.00
C517   C     0.78480   0.58920   0.58531   0.01267  Uiso   1.00
C518   C     0.83230   0.65650   0.54285   0.01267  Uiso   1.00
C519   C     0.84070   0.60350   0.56301   0.01267  Uiso   1.00
C520   C     0.90270   0.56030   0.56216   0.01267  Uiso   1.00
C521   C     0.95270   0.56830   0.54109   0.01267  Uiso   1.00
C522   C     0.93930   0.62020   0.52118   0.01267  Uiso   1.00
C523   C     0.98770   0.63320   0.49761   0.01267  Uiso   1.00
C524   C     0.04700   0.59060   0.49162   0.01267  Uiso   1.00
C525   C     0.08640   0.60290   0.46755   0.01267  Uiso   1.00
C526   C     0.06500   0.65890   0.45030   0.01267  Uiso   1.00
C527   C     0.00700   0.70300   0.45830   0.01267  Uiso   1.00
C528   C     0.10620   0.66970   0.42371   0.01267  Uiso   1.00
C529   C     0.89360   0.31390   0.66126   0.01267  Uiso   1.00
C530   C     0.90900   0.22670   0.70012   0.01267  Uiso   1.00
C531   C     0.87450   0.28840   0.68978   0.01267  Uiso   1.00
C532   C     0.82480   0.32380   0.70662   0.01267  Uiso   1.00
C533   C     0.81030   0.29560   0.73241   0.01267  Uiso   1.00
C534   C     0.84570   0.23300   0.74121   0.01267  Uiso   1.00
C535   C     0.83170   0.19730   0.76792   0.01267  Uiso   1.00
C536   C     0.78430   0.22610   0.78730   0.01267  Uiso   1.00
C537   C     0.76940   0.18740   0.81082   0.01267  Uiso   1.00
C538   C     0.80150   0.12020   0.81454   0.01267  Uiso   1.00
C539   C     0.85090   0.09660   0.79497   0.01267  Uiso   1.00
C540   C     0.78160   0.07360   0.83886   0.01267  Uiso   1.00
C541   C     0.53720   0.19690   0.83060   0.01267  Uiso   1.00
C542   C     0.50890   0.27770   0.79038   0.01267  Uiso   1.00
C543   C     0.54960   0.22150   0.80110   0.01267  Uiso   1.00
C544   C     0.60050   0.18930   0.78395   0.01267  Uiso   1.00
C545   C     0.61030   0.21590   0.75744   0.01267  Uiso   1.00
C546   C     0.57010   0.27510   0.74874   0.01267  Uiso   1.00
C547   C     0.58200   0.31120   0.72181   0.01267  Uiso   1.00
C548   C     0.63230   0.28650   0.70280   0.01267  Uiso   1.00
C549   C     0.64770   0.32940   0.68008   0.01267  Uiso   1.00
C550   C     0.61200   0.39460   0.67684   0.01267  Uiso   1.00
C551   C     0.55790   0.41360   0.69584   0.01267  Uiso   1.00
C552   C     0.63520   0.44750   0.65502   0.01267  Uiso   1.00
C553   C     0.79390   0.98140   0.66155   0.01267  Uiso   1.00
C554   C     0.86760   0.03160   0.70019   0.01267  Uiso   1.00
C555   C     0.84540   0.97170   0.68508   0.01267  Uiso   1.00
C556   C     0.86820   0.90460   0.69366   0.01267  Uiso   1.00
C557   C     0.91020   0.89870   0.71721   0.01267  Uiso   1.00
C558   C     0.92930   0.96040   0.73146   0.01267  Uiso   1.00
C559   C     0.97210   0.95940   0.75726   0.01267  Uiso   1.00
C560   C     0.98870   0.89740   0.77226   0.01267  Uiso   1.00
C561   C     0.02720   0.90270   0.79667   0.01267  Uiso   1.00
C562   C     0.04840   0.97030   0.80563   0.01267  Uiso   1.00
C563   C     0.03140   0.02990   0.78975   0.01267  Uiso   1.00
C564   C     0.08950   0.98240   0.83205   0.01267  Uiso   1.00
C565   C     0.71450   0.10150   0.58996   0.01267  Uiso   1.00
C566   C     0.67340   0.17210   0.54931   0.01267  Uiso   1.00
C567   C     0.73180   0.14520   0.56474   0.01267  Uiso   1.00
C568   C     0.80110   0.15800   0.55564   0.01267  Uiso   1.00
C569   C     0.81200   0.19900   0.53204   0.01267  Uiso   1.00
C570   C     0.75210   0.22560   0.51815   0.01267  Uiso   1.00
C571   C     0.75440   0.27550   0.49444   0.01267  Uiso   1.00
C572   C     0.81730   0.30110   0.48175   0.01267  Uiso   1.00
C573   C     0.81030   0.35030   0.46002   0.01267  Uiso   1.00
C574   C     0.74150   0.37360   0.45230   0.01267  Uiso   1.00
C575   C     0.68140   0.34540   0.46549   0.01267  Uiso   1.00
C576   C     0.72830   0.42810   0.42951   0.01267  Uiso   1.00
N1     N     0.53320   0.78760   0.02208   0.01267  Uiso   1.00
N2     N     0.58740   0.83320   0.97626   0.01267  Uiso   1.00
N3     N     0.88100   0.16530   0.97746   0.01267  Uiso   1.00
N4     N     0.96940   0.19000   0.01859   0.01267  Uiso   1.00
N5     N     0.86630   0.63390   0.72793   0.01267  Uiso   1.00
N6     N     0.89580   0.70010   0.77495   0.01267  Uiso   1.00
N7     N     0.51790   0.80420   0.73507   0.01267  Uiso   1.00
N8     N     0.54260   0.87240   0.78240   0.01267  Uiso   1.00
N9     N     0.99350   0.52540   0.73360   0.01267  Uiso   1.00
N10    N     0.90970   0.52680   0.77731   0.01267  Uiso   1.00
N11    N     0.68340   0.71110   0.97327   0.01267  Uiso   1.00
N12    N     0.68720   0.79660   0.01450   0.01267  Uiso   1.00
N13    N     0.03320   0.21240   0.47792   0.01267  Uiso   1.00
N14    N     0.08740   0.16680   0.52374   0.01267  Uiso   1.00
N15    N     0.38100   0.83470   0.52254   0.01267  Uiso   1.00
N16    N     0.46940   0.81000   0.48141   0.01267  Uiso   1.00
N17    N     0.36630   0.36610   0.77207   0.01267  Uiso   1.00
N18    N     0.39580   0.29990   0.72505   0.01267  Uiso   1.00
N19    N     0.01790   0.19580   0.76493   0.01267  Uiso   1.00
N20    N     0.04260   0.12760   0.71760   0.01267  Uiso   1.00
N21    N     0.49350   0.47460   0.76640   0.01267  Uiso   1.00
N22    N     0.40970   0.47320   0.72269   0.01267  Uiso   1.00
N23    N     0.18340   0.28890   0.52673   0.01267  Uiso   1.00
N24    N     0.18720   0.20340   0.48550   0.01267  Uiso   1.00
N25    N     0.96680   0.28760   0.97792   0.01267  Uiso   1.00
N26    N     0.91260   0.33320   0.02374   0.01267  Uiso   1.00
N27    N     0.61900   0.66530   0.02254   0.01267  Uiso   1.00
N28    N     0.53060   0.69000   0.98141   0.01267  Uiso   1.00
N29    N     0.63370   0.13390   0.27207   0.01267  Uiso   1.00
N30    N     0.60420   0.20010   0.22505   0.01267  Uiso   1.00
N31    N     0.98210   0.30420   0.26493   0.01267  Uiso   1.00
N32    N     0.95740   0.37240   0.21760   0.01267  Uiso   1.00
N33    N     0.50650   0.02540   0.26640   0.01267  Uiso   1.00
N34    N     0.59030   0.02680   0.22269   0.01267  Uiso   1.00
N35    N     0.81660   0.21110   0.02673   0.01267  Uiso   1.00
N36    N     0.81280   0.29660   0.98550   0.01267  Uiso   1.00
N37    N     0.46680   0.71240   0.52208   0.01267  Uiso   1.00
N38    N     0.41260   0.66680   0.47626   0.01267  Uiso   1.00
N39    N     0.11900   0.33470   0.47746   0.01267  Uiso   1.00
N40    N     0.03060   0.31000   0.51859   0.01267  Uiso   1.00
N41    N     0.13370   0.86610   0.22793   0.01267  Uiso   1.00
N42    N     0.10420   0.79990   0.27495   0.01267  Uiso   1.00
N43    N     0.48210   0.69580   0.23507   0.01267  Uiso   1.00
N44    N     0.45740   0.62760   0.28240   0.01267  Uiso   1.00
N45    N     0.00650   0.97460   0.23360   0.01267  Uiso   1.00
N46    N     0.09030   0.97320   0.27731   0.01267  Uiso   1.00
N47    N     0.31660   0.78890   0.47327   0.01267  Uiso   1.00
N48    N     0.31280   0.70340   0.51450   0.01267  Uiso   1.00
N49    N     0.46680   0.21240   0.97792   0.01267  Uiso   1.00
N50    N     0.41260   0.16680   0.02374   0.01267  Uiso   1.00
N51    N     0.11900   0.83470   0.02254   0.01267  Uiso   1.00
N52    N     0.03060   0.81000   0.98141   0.01267  Uiso   1.00
N53    N     0.13370   0.36610   0.27207   0.01267  Uiso   1.00
N54    N     0.10420   0.29990   0.22505   0.01267  Uiso   1.00
N55    N     0.48210   0.19580   0.26493   0.01267  Uiso   1.00
N56    N     0.45740   0.12760   0.21760   0.01267  Uiso   1.00
N57    N     0.00650   0.47460   0.26640   0.01267  Uiso   1.00
N58    N     0.09030   0.47320   0.22269   0.01267  Uiso   1.00
N59    N     0.31660   0.28890   0.02673   0.01267  Uiso   1.00
N60    N     0.31280   0.20340   0.98550   0.01267  Uiso   1.00
N61    N     0.96680   0.78760   0.52208   0.01267  Uiso   1.00
N62    N     0.91260   0.83320   0.47626   0.01267  Uiso   1.00
N63    N     0.61900   0.16530   0.47746   0.01267  Uiso   1.00
N64    N     0.53060   0.19000   0.51859   0.01267  Uiso   1.00
N65    N     0.63370   0.63390   0.22793   0.01267  Uiso   1.00
N66    N     0.60420   0.70010   0.27495   0.01267  Uiso   1.00
N67    N     0.98210   0.80420   0.23507   0.01267  Uiso   1.00
N68    N     0.95740   0.87240   0.28240   0.01267  Uiso   1.00
N69    N     0.50650   0.52540   0.23360   0.01267  Uiso   1.00
N70    N     0.59030   0.52680   0.27731   0.01267  Uiso   1.00
N71    N     0.81660   0.71110   0.47327   0.01267  Uiso   1.00
N72    N     0.81280   0.79660   0.51450   0.01267  Uiso   1.00
N73    N     0.03320   0.71240   0.02208   0.01267  Uiso   1.00
N74    N     0.08740   0.66680   0.97626   0.01267  Uiso   1.00
N75    N     0.38100   0.33470   0.97746   0.01267  Uiso   1.00
N76    N     0.46940   0.31000   0.01859   0.01267  Uiso   1.00
N77    N     0.36630   0.86610   0.72793   0.01267  Uiso   1.00
N78    N     0.39580   0.79990   0.77495   0.01267  Uiso   1.00
N79    N     0.01790   0.69580   0.73507   0.01267  Uiso   1.00
N80    N     0.04260   0.62760   0.78240   0.01267  Uiso   1.00
N81    N     0.49350   0.97460   0.73360   0.01267  Uiso   1.00
N82    N     0.40970   0.97320   0.77731   0.01267  Uiso   1.00
N83    N     0.18340   0.78890   0.97327   0.01267  Uiso   1.00
N84    N     0.18720   0.70340   0.01450   0.01267  Uiso   1.00
N85    N     0.53320   0.28760   0.47792   0.01267  Uiso   1.00
N86    N     0.58740   0.33320   0.52374   0.01267  Uiso   1.00
N87    N     0.88100   0.66530   0.52254   0.01267  Uiso   1.00
N88    N     0.96940   0.69000   0.48141   0.01267  Uiso   1.00
N89    N     0.86630   0.13390   0.77207   0.01267  Uiso   1.00
N90    N     0.89580   0.20010   0.72505   0.01267  Uiso   1.00
N91    N     0.51790   0.30420   0.76493   0.01267  Uiso   1.00
N92    N     0.54260   0.37240   0.71760   0.01267  Uiso   1.00
N93    N     0.99350   0.02540   0.76640   0.01267  Uiso   1.00
N94    N     0.90970   0.02680   0.72269   0.01267  Uiso   1.00
N95    N     0.68340   0.21110   0.52673   0.01267  Uiso   1.00
N96    N     0.68720   0.29660   0.48550   0.01267  Uiso   1.00
O1     O     0.39090   0.79290   0.10349   0.01267  Uiso   1.00
O2     O     0.44790   0.69170   0.09121   0.01267  Uiso   1.00
O3     O     0.63650   0.00950   0.90832   0.01267  Uiso   1.00
O4     O     0.71230   0.91520   0.91394   0.01267  Uiso   1.00
O5     O     0.73180   0.13170   0.91147   0.01267  Uiso   1.00
O6     O     0.79690   0.03370   0.90080   0.01267  Uiso   1.00
O7     O     0.11440   0.23180   0.08538   0.01267  Uiso   1.00
O8     O     0.13160   0.11210   0.08657   0.01267  Uiso   1.00
O9     O     0.86860   0.87420   0.84586   0.01267  Uiso   1.00
O10    O     0.93350   0.77460   0.85284   0.01267  Uiso   1.00
O11    O     0.81640   0.51650   0.65722   0.01267  Uiso   1.00
O12    O     0.72960   0.59630   0.64686   0.01267  Uiso   1.00
O13    O     0.69430   0.93170   0.85712   0.01267  Uiso   1.00
O14    O     0.59750   0.00230   0.84948   0.01267  Uiso   1.00
O15    O     0.58370   0.65590   0.65953   0.01267  Uiso   1.00
O16    O     0.48300   0.72360   0.65739   0.01267  Uiso   1.00
O17    O     0.79380   0.43740   0.85814   0.01267  Uiso   1.00
O18    O     0.74820   0.53190   0.83734   0.01267  Uiso   1.00
O19    O     0.11290   0.54570   0.66331   0.01267  Uiso   1.00
O20    O     0.09980   0.43270   0.65115   0.01267  Uiso   1.00
O21    O     0.76430   0.58470   0.89354   0.01267  Uiso   1.00
O22    O     0.64970   0.58130   0.90654   0.01267  Uiso   1.00
O23    O     0.78490   0.94720   0.08309   0.01267  Uiso   1.00
O24    O     0.66460   0.94720   0.07439   0.01267  Uiso   1.00
O25    O     0.76800   0.80510   0.87947   0.01267  Uiso   1.00
O26    O     0.56590   0.45670   0.89635   0.01267  Uiso   1.00
O27    O     0.67130   0.35770   0.87280   0.01267  Uiso   1.00
O28    O     0.48820   0.91450   0.10778   0.01267  Uiso   1.00
O29    O     0.93460   0.98560   0.87562   0.01267  Uiso   1.00
O30    O     0.89090   0.20710   0.39651   0.01267  Uiso   1.00
O31    O     0.94790   0.30830   0.40879   0.01267  Uiso   1.00
O32    O     0.13650   0.99050   0.59168   0.01267  Uiso   1.00
O33    O     0.21230   0.08480   0.58606   0.01267  Uiso   1.00
O34    O     0.23180   0.86830   0.58853   0.01267  Uiso   1.00
O35    O     0.29690   0.96630   0.59920   0.01267  Uiso   1.00
O36    O     0.61440   0.76820   0.41462   0.01267  Uiso   1.00
O37    O     0.63160   0.88790   0.41343   0.01267  Uiso   1.00
O38    O     0.36860   0.12580   0.65414   0.01267  Uiso   1.00
O39    O     0.43350   0.22540   0.64716   0.01267  Uiso   1.00
O40    O     0.31640   0.48350   0.84278   0.01267  Uiso   1.00
O41    O     0.22960   0.40370   0.85314   0.01267  Uiso   1.00
O42    O     0.19430   0.06830   0.64288   0.01267  Uiso   1.00
O43    O     0.09750   0.99770   0.65052   0.01267  Uiso   1.00
O44    O     0.08370   0.34410   0.84047   0.01267  Uiso   1.00
O45    O     0.98300   0.27640   0.84261   0.01267  Uiso   1.00
O46    O     0.29380   0.56260   0.64186   0.01267  Uiso   1.00
O47    O     0.24820   0.46810   0.66266   0.01267  Uiso   1.00
O48    O     0.61290   0.45430   0.83669   0.01267  Uiso   1.00
O49    O     0.59980   0.56730   0.84885   0.01267  Uiso   1.00
O50    O     0.26430   0.41530   0.60646   0.01267  Uiso   1.00
O51    O     0.14970   0.41870   0.59346   0.01267  Uiso   1.00
O52    O     0.28490   0.05280   0.41691   0.01267  Uiso   1.00
O53    O     0.16460   0.05280   0.42561   0.01267  Uiso   1.00
O54    O     0.26800   0.19490   0.62053   0.01267  Uiso   1.00
O55    O     0.06590   0.54330   0.60365   0.01267  Uiso   1.00
O56    O     0.17130   0.64230   0.62720   0.01267  Uiso   1.00
O57    O     0.98820   0.08550   0.39222   0.01267  Uiso   1.00
O58    O     0.43460   0.01440   0.62438   0.01267  Uiso   1.00
O59    O     0.10910   0.29290   0.89651   0.01267  Uiso   1.00
O60    O     0.05210   0.19170   0.90879   0.01267  Uiso   1.00
O61    O     0.86350   0.50950   0.09168   0.01267  Uiso   1.00
O62    O     0.78770   0.41520   0.08606   0.01267  Uiso   1.00
O63    O     0.76820   0.63170   0.08853   0.01267  Uiso   1.00
O64    O     0.70310   0.53370   0.09920   0.01267  Uiso   1.00
O65    O     0.38560   0.73180   0.91462   0.01267  Uiso   1.00
O66    O     0.36840   0.61210   0.91343   0.01267  Uiso   1.00
O67    O     0.63140   0.37420   0.15414   0.01267  Uiso   1.00
O68    O     0.56650   0.27460   0.14716   0.01267  Uiso   1.00
O69    O     0.68360   0.01650   0.34278   0.01267  Uiso   1.00
O70    O     0.77040   0.09630   0.35314   0.01267  Uiso   1.00
O71    O     0.80570   0.43170   0.14288   0.01267  Uiso   1.00
O72    O     0.90250   0.50230   0.15052   0.01267  Uiso   1.00
O73    O     0.91630   0.15590   0.34047   0.01267  Uiso   1.00
O74    O     0.01700   0.22360   0.34261   0.01267  Uiso   1.00
O75    O     0.70620   0.93740   0.14186   0.01267  Uiso   1.00
O76    O     0.75180   0.03190   0.16266   0.01267  Uiso   1.00
O77    O     0.38710   0.04570   0.33669   0.01267  Uiso   1.00
O78    O     0.40020   0.93270   0.34885   0.01267  Uiso   1.00
O79    O     0.73570   0.08470   0.10646   0.01267  Uiso   1.00
O80    O     0.85030   0.08130   0.09346   0.01267  Uiso   1.00
O81    O     0.71510   0.44720   0.91691   0.01267  Uiso   1.00
O82    O     0.83540   0.44720   0.92561   0.01267  Uiso   1.00
O83    O     0.73200   0.30510   0.12053   0.01267  Uiso   1.00
O84    O     0.93410   0.95670   0.10365   0.01267  Uiso   1.00
O85    O     0.82870   0.85770   0.12720   0.01267  Uiso   1.00
O86    O     0.01180   0.41450   0.89222   0.01267  Uiso   1.00
O87    O     0.56540   0.48560   0.12438   0.01267  Uiso   1.00
O88    O     0.60910   0.70710   0.60349   0.01267  Uiso   1.00
O89    O     0.55210   0.80830   0.59121   0.01267  Uiso   1.00
O90    O     0.36350   0.49050   0.40832   0.01267  Uiso   1.00
O91    O     0.28770   0.58480   0.41394   0.01267  Uiso   1.00
O92    O     0.26820   0.36830   0.41147   0.01267  Uiso   1.00
O93    O     0.20310   0.46630   0.40080   0.01267  Uiso   1.00
O94    O     0.88560   0.26820   0.58538   0.01267  Uiso   1.00
O95    O     0.86840   0.38790   0.58657   0.01267  Uiso   1.00
O96    O     0.13140   0.62580   0.34586   0.01267  Uiso   1.00
O97    O     0.06650   0.72540   0.35284   0.01267  Uiso   1.00
O98    O     0.18360   0.98350   0.15722   0.01267  Uiso   1.00
O99    O     0.27040   0.90370   0.14686   0.01267  Uiso   1.00
O100   O     0.30570   0.56830   0.35712   0.01267  Uiso   1.00
O101   O     0.40250   0.49770   0.34948   0.01267  Uiso   1.00
O102   O     0.41630   0.84410   0.15953   0.01267  Uiso   1.00
O103   O     0.51700   0.77640   0.15739   0.01267  Uiso   1.00
O104   O     0.20620   0.06260   0.35814   0.01267  Uiso   1.00
O105   O     0.25180   0.96810   0.33734   0.01267  Uiso   1.00
O106   O     0.88710   0.95430   0.16331   0.01267  Uiso   1.00
O107   O     0.90020   0.06730   0.15115   0.01267  Uiso   1.00
O108   O     0.23570   0.91530   0.39354   0.01267  Uiso   1.00
O109   O     0.35030   0.91870   0.40654   0.01267  Uiso   1.00
O110   O     0.21510   0.55280   0.58309   0.01267  Uiso   1.00
O111   O     0.33540   0.55280   0.57439   0.01267  Uiso   1.00
O112   O     0.23200   0.69490   0.37947   0.01267  Uiso   1.00
O113   O     0.43410   0.04330   0.39635   0.01267  Uiso   1.00
O114   O     0.32870   0.14230   0.37280   0.01267  Uiso   1.00
O115   O     0.51180   0.58550   0.60778   0.01267  Uiso   1.00
O116   O     0.06540   0.51440   0.37562   0.01267  Uiso   1.00
O117   O     0.60910   0.20710   0.89651   0.01267  Uiso   1.00
O118   O     0.55210   0.30830   0.90879   0.01267  Uiso   1.00
O119   O     0.36350   0.99050   0.09168   0.01267  Uiso   1.00
O120   O     0.28770   0.08480   0.08606   0.01267  Uiso   1.00
O121   O     0.26820   0.86830   0.08853   0.01267  Uiso   1.00
O122   O     0.20310   0.96630   0.09920   0.01267  Uiso   1.00
O123   O     0.88560   0.76820   0.91462   0.01267  Uiso   1.00
O124   O     0.86840   0.88790   0.91343   0.01267  Uiso   1.00
O125   O     0.13140   0.12580   0.15414   0.01267  Uiso   1.00
O126   O     0.06650   0.22540   0.14716   0.01267  Uiso   1.00
O127   O     0.18360   0.48350   0.34278   0.01267  Uiso   1.00
O128   O     0.27040   0.40370   0.35314   0.01267  Uiso   1.00
O129   O     0.30570   0.06830   0.14288   0.01267  Uiso   1.00
O130   O     0.40250   0.99770   0.15052   0.01267  Uiso   1.00
O131   O     0.41630   0.34410   0.34047   0.01267  Uiso   1.00
O132   O     0.51700   0.27640   0.34261   0.01267  Uiso   1.00
O133   O     0.20620   0.56260   0.14186   0.01267  Uiso   1.00
O134   O     0.25180   0.46810   0.16266   0.01267  Uiso   1.00
O135   O     0.88710   0.45430   0.33669   0.01267  Uiso   1.00
O136   O     0.90020   0.56730   0.34885   0.01267  Uiso   1.00
O137   O     0.23570   0.41530   0.10646   0.01267  Uiso   1.00
O138   O     0.35030   0.41870   0.09346   0.01267  Uiso   1.00
O139   O     0.21510   0.05280   0.91691   0.01267  Uiso   1.00
O140   O     0.33540   0.05280   0.92561   0.01267  Uiso   1.00
O141   O     0.23200   0.19490   0.12053   0.01267  Uiso   1.00
O142   O     0.43410   0.54330   0.10365   0.01267  Uiso   1.00
O143   O     0.32870   0.64230   0.12720   0.01267  Uiso   1.00
O144   O     0.51180   0.08550   0.89222   0.01267  Uiso   1.00
O145   O     0.06540   0.01440   0.12438   0.01267  Uiso   1.00
O146   O     0.10910   0.79290   0.60349   0.01267  Uiso   1.00
O147   O     0.05210   0.69170   0.59121   0.01267  Uiso   1.00
O148   O     0.86350   0.00950   0.40832   0.01267  Uiso   1.00
O149   O     0.78770   0.91520   0.41394   0.01267  Uiso   1.00
O150   O     0.76820   0.13170   0.41147   0.01267  Uiso   1.00
O151   O     0.70310   0.03370   0.40080   0.01267  Uiso   1.00
O152   O     0.38560   0.23180   0.58538   0.01267  Uiso   1.00
O153   O     0.36840   0.11210   0.58657   0.01267  Uiso   1.00
O154   O     0.63140   0.87420   0.34586   0.01267  Uiso   1.00
O155   O     0.56650   0.77460   0.35284   0.01267  Uiso   1.00
O156   O     0.68360   0.51650   0.15722   0.01267  Uiso   1.00
O157   O     0.77040   0.59630   0.14686   0.01267  Uiso   1.00
O158   O     0.80570   0.93170   0.35712   0.01267  Uiso   1.00
O159   O     0.90250   0.00230   0.34948   0.01267  Uiso   1.00
O160   O     0.91630   0.65590   0.15953   0.01267  Uiso   1.00
O161   O     0.01700   0.72360   0.15739   0.01267  Uiso   1.00
O162   O     0.70620   0.43740   0.35814   0.01267  Uiso   1.00
O163   O     0.75180   0.53190   0.33734   0.01267  Uiso   1.00
O164   O     0.38710   0.54570   0.16331   0.01267  Uiso   1.00
O165   O     0.40020   0.43270   0.15115   0.01267  Uiso   1.00
O166   O     0.73570   0.58470   0.39354   0.01267  Uiso   1.00
O167   O     0.85030   0.58130   0.40654   0.01267  Uiso   1.00
O168   O     0.71510   0.94720   0.58309   0.01267  Uiso   1.00
O169   O     0.83540   0.94720   0.57439   0.01267  Uiso   1.00
O170   O     0.73200   0.80510   0.37947   0.01267  Uiso   1.00
O171   O     0.93410   0.45670   0.39635   0.01267  Uiso   1.00
O172   O     0.82870   0.35770   0.37280   0.01267  Uiso   1.00
O173   O     0.01180   0.91450   0.60778   0.01267  Uiso   1.00
O174   O     0.56540   0.98560   0.37562   0.01267  Uiso   1.00
O175   O     0.89090   0.70710   0.10349   0.01267  Uiso   1.00
O176   O     0.94790   0.80830   0.09121   0.01267  Uiso   1.00
O177   O     0.13650   0.49050   0.90832   0.01267  Uiso   1.00
O178   O     0.21230   0.58480   0.91394   0.01267  Uiso   1.00
O179   O     0.23180   0.36830   0.91147   0.01267  Uiso   1.00
O180   O     0.29690   0.46630   0.90080   0.01267  Uiso   1.00
O181   O     0.61440   0.26820   0.08538   0.01267  Uiso   1.00
O182   O     0.63160   0.38790   0.08657   0.01267  Uiso   1.00
O183   O     0.36860   0.62580   0.84586   0.01267  Uiso   1.00
O184   O     0.43350   0.72540   0.85284   0.01267  Uiso   1.00
O185   O     0.31640   0.98350   0.65722   0.01267  Uiso   1.00
O186   O     0.22960   0.90370   0.64686   0.01267  Uiso   1.00
O187   O     0.19430   0.56830   0.85712   0.01267  Uiso   1.00
O188   O     0.09750   0.49770   0.84948   0.01267  Uiso   1.00
O189   O     0.08370   0.84410   0.65953   0.01267  Uiso   1.00
O190   O     0.98300   0.77640   0.65739   0.01267  Uiso   1.00
O191   O     0.29380   0.06260   0.85814   0.01267  Uiso   1.00
O192   O     0.24820   0.96810   0.83734   0.01267  Uiso   1.00
O193   O     0.61290   0.95430   0.66331   0.01267  Uiso   1.00
O194   O     0.59980   0.06730   0.65115   0.01267  Uiso   1.00
O195   O     0.26430   0.91530   0.89354   0.01267  Uiso   1.00
O196   O     0.14970   0.91870   0.90654   0.01267  Uiso   1.00
O197   O     0.28490   0.55280   0.08309   0.01267  Uiso   1.00
O198   O     0.16460   0.55280   0.07439   0.01267  Uiso   1.00
O199   O     0.26800   0.69490   0.87947   0.01267  Uiso   1.00
O200   O     0.06590   0.04330   0.89635   0.01267  Uiso   1.00
O201   O     0.17130   0.14230   0.87280   0.01267  Uiso   1.00
O202   O     0.98820   0.58550   0.10778   0.01267  Uiso   1.00
O203   O     0.43460   0.51440   0.87562   0.01267  Uiso   1.00
O204   O     0.39090   0.29290   0.39651   0.01267  Uiso   1.00
O205   O     0.44790   0.19170   0.40879   0.01267  Uiso   1.00
O206   O     0.63650   0.50950   0.59168   0.01267  Uiso   1.00
O207   O     0.71230   0.41520   0.58606   0.01267  Uiso   1.00
O208   O     0.73180   0.63170   0.58853   0.01267  Uiso   1.00
O209   O     0.79690   0.53370   0.59920   0.01267  Uiso   1.00
O210   O     0.11440   0.73180   0.41462   0.01267  Uiso   1.00
O211   O     0.13160   0.61210   0.41343   0.01267  Uiso   1.00
O212   O     0.86860   0.37420   0.65414   0.01267  Uiso   1.00
O213   O     0.93350   0.27460   0.64716   0.01267  Uiso   1.00
O214   O     0.81640   0.01650   0.84278   0.01267  Uiso   1.00
O215   O     0.72960   0.09630   0.85314   0.01267  Uiso   1.00
O216   O     0.69430   0.43170   0.64288   0.01267  Uiso   1.00
O217   O     0.59750   0.50230   0.65052   0.01267  Uiso   1.00
O218   O     0.58370   0.15590   0.84047   0.01267  Uiso   1.00
O219   O     0.48300   0.22360   0.84261   0.01267  Uiso   1.00
O220   O     0.79380   0.93740   0.64186   0.01267  Uiso   1.00
O221   O     0.74820   0.03190   0.66266   0.01267  Uiso   1.00
O222   O     0.11290   0.04570   0.83669   0.01267  Uiso   1.00
O223   O     0.09980   0.93270   0.84885   0.01267  Uiso   1.00
O224   O     0.76430   0.08470   0.60646   0.01267  Uiso   1.00
O225   O     0.64970   0.08130   0.59346   0.01267  Uiso   1.00
O226   O     0.78490   0.44720   0.41691   0.01267  Uiso   1.00
O227   O     0.66460   0.44720   0.42561   0.01267  Uiso   1.00
O228   O     0.76800   0.30510   0.62053   0.01267  Uiso   1.00
O229   O     0.56590   0.95670   0.60365   0.01267  Uiso   1.00
O230   O     0.67130   0.85770   0.62720   0.01267  Uiso   1.00
O231   O     0.48820   0.41450   0.39222   0.01267  Uiso   1.00
O232   O     0.93460   0.48560   0.62438   0.01267  Uiso   1.00
Cl1    Cl    0.70491   0.99172   0.76140   0.01267  Uiso   1.00
O233   O     0.76116   0.01493   0.74376   0.01267  Uiso   1.00
O234   O     0.64011   0.03381   0.75960   0.01267  Uiso   1.00
O235   O     0.68028   0.92029   0.74937   0.01267  Uiso   1.00
O236   O     0.72558   0.97544   0.78883   0.01267  Uiso   1.00
Cl2    Cl    0.22504   0.49447   0.99222   0.01267  Uiso   1.00
O237   O     0.25390   0.56370   0.98517   0.01267  Uiso   1.00
O238   O     0.20960   0.45380   0.96749   0.01267  Uiso   1.00
O239   O     0.27670   0.45480   0.00782   0.01267  Uiso   1.00
O240   O     0.15910   0.50400   0.00723   0.01267  Uiso   1.00
Cl3    Cl    0.20491   0.00828   0.73860   0.01267  Uiso   1.00
O241   O     0.26116   0.98507   0.75624   0.01267  Uiso   1.00
O242   O     0.14011   0.96619   0.74040   0.01267  Uiso   1.00
O243   O     0.18028   0.07971   0.75063   0.01267  Uiso   1.00
O244   O     0.22558   0.02456   0.71117   0.01267  Uiso   1.00
Cl4    Cl    0.72504   0.50553   0.50778   0.01267  Uiso   1.00
O245   O     0.75390   0.43630   0.51483   0.01267  Uiso   1.00
O246   O     0.70960   0.54620   0.53251   0.01267  Uiso   1.00
O247   O     0.77670   0.54520   0.49218   0.01267  Uiso   1.00
O248   O     0.65910   0.49600   0.49277   0.01267  Uiso   1.00
Cl5    Cl    0.79509   0.49172   0.23860   0.01267  Uiso   1.00
O249   O     0.73884   0.51493   0.25624   0.01267  Uiso   1.00
O250   O     0.85989   0.53381   0.24040   0.01267  Uiso   1.00
O251   O     0.81972   0.42029   0.25063   0.01267  Uiso   1.00
O252   O     0.77442   0.47544   0.21117   0.01267  Uiso   1.00
Cl6    Cl    0.27496   0.99447   0.00778   0.01267  Uiso   1.00
O253   O     0.24610   0.06370   0.01483   0.01267  Uiso   1.00
O254   O     0.29040   0.95380   0.03251   0.01267  Uiso   1.00
O255   O     0.22330   0.95480   0.99218   0.01267  Uiso   1.00
O256   O     0.34090   0.00400   0.99277   0.01267  Uiso   1.00
Cl7    Cl    0.29509   0.50828   0.26140   0.01267  Uiso   1.00
O257   O     0.23884   0.48507   0.24376   0.01267  Uiso   1.00
O258   O     0.35989   0.46619   0.25960   0.01267  Uiso   1.00
O259   O     0.31972   0.57971   0.24937   0.01267  Uiso   1.00
O260   O     0.27442   0.52456   0.28883   0.01267  Uiso   1.00
Cl8    Cl    0.77496   0.00553   0.49222   0.01267  Uiso   1.00
O261   O     0.74610   0.93630   0.48517   0.01267  Uiso   1.00
O262   O     0.79040   0.04620   0.46749   0.01267  Uiso   1.00
O263   O     0.72330   0.04520   0.50782   0.01267  Uiso   1.00
O264   O     0.84090   0.99600   0.50723   0.01267  Uiso   1.00
Cl9    Cl    0.29509   0.00828   0.23860   0.01267  Uiso   1.00
O265   O     0.23884   0.98507   0.25624   0.01267  Uiso   1.00
O266   O     0.35989   0.96619   0.24040   0.01267  Uiso   1.00
O267   O     0.31972   0.07971   0.25063   0.01267  Uiso   1.00
O268   O     0.27442   0.02456   0.21117   0.01267  Uiso   1.00
Cl10   Cl    0.77496   0.50553   0.00778   0.01267  Uiso   1.00
O269   O     0.74610   0.43630   0.01483   0.01267  Uiso   1.00
O270   O     0.79040   0.54620   0.03251   0.01267  Uiso   1.00
O271   O     0.72330   0.54520   0.99218   0.01267  Uiso   1.00
O272   O     0.84090   0.49600   0.99277   0.01267  Uiso   1.00
Cl11   Cl    0.79509   0.99172   0.26140   0.01267  Uiso   1.00
O273   O     0.73884   0.01493   0.24376   0.01267  Uiso   1.00
O274   O     0.85989   0.03381   0.25960   0.01267  Uiso   1.00
O275   O     0.81972   0.92029   0.24937   0.01267  Uiso   1.00
O276   O     0.77442   0.97544   0.28883   0.01267  Uiso   1.00
Cl12   Cl    0.27496   0.49447   0.49222   0.01267  Uiso   1.00
O277   O     0.24610   0.56370   0.48517   0.01267  Uiso   1.00
O278   O     0.29040   0.45380   0.46749   0.01267  Uiso   1.00
O279   O     0.22330   0.45480   0.50782   0.01267  Uiso   1.00
O280   O     0.34090   0.50400   0.50723   0.01267  Uiso   1.00
Cl13   Cl    0.20491   0.50828   0.76140   0.01267  Uiso   1.00
O281   O     0.26116   0.48507   0.74376   0.01267  Uiso   1.00
O282   O     0.14011   0.46619   0.75960   0.01267  Uiso   1.00
O283   O     0.18028   0.57971   0.74937   0.01267  Uiso   1.00
O284   O     0.22558   0.52456   0.78883   0.01267  Uiso   1.00
Cl14   Cl    0.72504   0.00553   0.99222   0.01267  Uiso   1.00
O285   O     0.75390   0.93630   0.98517   0.01267  Uiso   1.00
O286   O     0.70960   0.04620   0.96749   0.01267  Uiso   1.00
O287   O     0.77670   0.04520   0.00782   0.01267  Uiso   1.00
O288   O     0.65910   0.99600   0.00723   0.01267  Uiso   1.00
Cl15   Cl    0.70491   0.49172   0.73860   0.01267  Uiso   1.00
O289   O     0.76116   0.51493   0.75624   0.01267  Uiso   1.00
O290   O     0.64011   0.53381   0.74040   0.01267  Uiso   1.00
O291   O     0.68028   0.42029   0.75063   0.01267  Uiso   1.00
O292   O     0.72558   0.47544   0.71117   0.01267  Uiso   1.00
Cl16   Cl    0.22504   0.99447   0.50778   0.01267  Uiso   1.00
O293   O     0.25390   0.06370   0.51483   0.01267  Uiso   1.00
O294   O     0.20960   0.95380   0.53251   0.01267  Uiso   1.00
O295   O     0.27670   0.95480   0.49218   0.01267  Uiso   1.00
O296   O     0.15910   0.00400   0.49277   0.01267  Uiso   1.00
