data_NIFZAF_charged
_audit_creation_date              2014-07-02
_audit_creation_method            'Materials Studio'
_symmetry_space_group_name_H-M    'P1'
_symmetry_Int_Tables_number       1
_symmetry_cell_setting            triclinic
loop_
_symmetry_equiv_pos_as_xyz
  x,y,z
_cell_length_a                    18.6061
_cell_length_b                    18.6939
_cell_length_c                    48.6170
_cell_angle_alpha                 90.0000
_cell_angle_beta                  90.0000
_cell_angle_gamma                 90.0000
loop_
_atom_site_label
_atom_site_type_symbol
_atom_site_fract_x
_atom_site_fract_y
_atom_site_fract_z
_atom_site_U_iso_or_equiv
_atom_site_adp_type
_atom_site_occupancy
Ho1    Ho    0.79970   0.42592   0.87844   0.01267  Uiso   1.00
Ho2    Ho    0.63646   0.59639   0.87778   0.01267  Uiso   1.00
Ho3    Ho    0.81187   0.48552   0.12451   0.01267  Uiso   1.00
Ho4    Ho    0.29970   0.57408   0.62156   0.01267  Uiso   1.00
Ho5    Ho    0.13646   0.40361   0.62222   0.01267  Uiso   1.00
Ho6    Ho    0.31187   0.51448   0.37549   0.01267  Uiso   1.00
Ho7    Ho    0.70030   0.92592   0.12156   0.01267  Uiso   1.00
Ho8    Ho    0.86354   0.09639   0.12222   0.01267  Uiso   1.00
Ho9    Ho    0.68813   0.98552   0.87549   0.01267  Uiso   1.00
Ho10   Ho    0.20030   0.07408   0.37844   0.01267  Uiso   1.00
Ho11   Ho    0.36354   0.90361   0.37778   0.01267  Uiso   1.00
Ho12   Ho    0.18813   0.01448   0.62451   0.01267  Uiso   1.00
Ho13   Ho    0.20030   0.57408   0.12156   0.01267  Uiso   1.00
Ho14   Ho    0.36354   0.40361   0.12222   0.01267  Uiso   1.00
Ho15   Ho    0.18813   0.51448   0.87549   0.01267  Uiso   1.00
Ho16   Ho    0.70030   0.42592   0.37844   0.01267  Uiso   1.00
Ho17   Ho    0.86354   0.59639   0.37778   0.01267  Uiso   1.00
Ho18   Ho    0.68813   0.48552   0.62451   0.01267  Uiso   1.00
Ho19   Ho    0.29970   0.07408   0.87844   0.01267  Uiso   1.00
Ho20   Ho    0.13646   0.90361   0.87778   0.01267  Uiso   1.00
Ho21   Ho    0.31187   0.01448   0.12451   0.01267  Uiso   1.00
Ho22   Ho    0.79970   0.92592   0.62156   0.01267  Uiso   1.00
Ho23   Ho    0.63646   0.09639   0.62222   0.01267  Uiso   1.00
Ho24   Ho    0.81187   0.98552   0.37549   0.01267  Uiso   1.00
Co1    Co    0.95861   0.11701   0.75435   0.01267  Uiso   1.00
Co2    Co    0.89299   0.74716   0.00191   0.01267  Uiso   1.00
Co3    Co    0.45861   0.88299   0.74565   0.01267  Uiso   1.00
Co4    Co    0.39299   0.25284   0.49809   0.01267  Uiso   1.00
Co5    Co    0.54139   0.61701   0.24565   0.01267  Uiso   1.00
Co6    Co    0.60701   0.24716   0.99809   0.01267  Uiso   1.00
Co7    Co    0.04139   0.38299   0.25435   0.01267  Uiso   1.00
Co8    Co    0.10701   0.75284   0.50191   0.01267  Uiso   1.00
Co9    Co    0.04139   0.88299   0.24565   0.01267  Uiso   1.00
Co10   Co    0.10701   0.25284   0.99809   0.01267  Uiso   1.00
Co11   Co    0.54139   0.11701   0.25435   0.01267  Uiso   1.00
Co12   Co    0.60701   0.74716   0.50191   0.01267  Uiso   1.00
Co13   Co    0.45861   0.38299   0.75435   0.01267  Uiso   1.00
Co14   Co    0.39299   0.75284   0.00191   0.01267  Uiso   1.00
Co15   Co    0.95861   0.61701   0.74565   0.01267  Uiso   1.00
Co16   Co    0.89299   0.24716   0.49809   0.01267  Uiso   1.00
H1     H     0.94710   0.20580   0.80950   0.01267  Uiso   1.00
H2     H     0.80890   0.36510   0.79690   0.01267  Uiso   1.00
H3     H     0.78520   0.31730   0.75380   0.01267  Uiso   1.00
H4     H     0.76990   0.26840   0.71440   0.01267  Uiso   1.00
H5     H     0.74640   0.20460   0.67500   0.01267  Uiso   1.00
H6     H     0.88200   0.05350   0.70100   0.01267  Uiso   1.00
H7     H     0.53480   0.45400   0.80590   0.01267  Uiso   1.00
H8     H     0.68800   0.32000   0.83010   0.01267  Uiso   1.00
H9     H     0.66330   0.24990   0.79290   0.01267  Uiso   1.00
H10    H     0.64920   0.19810   0.75360   0.01267  Uiso   1.00
H11    H     0.63120   0.14990   0.71010   0.01267  Uiso   1.00
H12    H     0.47880   0.29660   0.69790   0.01267  Uiso   1.00
H13    H     0.79660   0.68460   0.95530   0.01267  Uiso   1.00
H14    H     0.91230   0.52330   0.92580   0.01267  Uiso   1.00
H15    H     0.99370   0.54060   0.96110   0.01267  Uiso   1.00
H16    H     0.06160   0.55640   0.99670   0.01267  Uiso   1.00
H17    H     0.12570   0.57930   0.03600   0.01267  Uiso   1.00
H18    H     0.99420   0.74260   0.05220   0.01267  Uiso   1.00
H19    H     0.86500   0.85710   0.95900   0.01267  Uiso   1.00
H20    H     0.65390   0.86440   0.95010   0.01267  Uiso   1.00
H21    H     0.64130   0.78540   0.98670   0.01267  Uiso   1.00
H22    H     0.64580   0.71190   0.02520   0.01267  Uiso   1.00
H23    H     0.66130   0.64190   0.06460   0.01267  Uiso   1.00
H24    H     0.87240   0.66060   0.05420   0.01267  Uiso   1.00
H25    H     0.96640   0.72500   0.94540   0.01267  Uiso   1.00
H26    H     0.12830   0.86600   0.94410   0.01267  Uiso   1.00
H27    H     0.08780   0.90940   0.98580   0.01267  Uiso   1.00
H28    H     0.03690   0.95230   0.02370   0.01267  Uiso   1.00
H29    H     0.97100   0.99480   0.06050   0.01267  Uiso   1.00
H30    H     0.83410   0.83190   0.04980   0.01267  Uiso   1.00
H31    H     0.64400   0.57980   0.19580   0.01267  Uiso   1.00
H32    H     0.63580   0.37040   0.18410   0.01267  Uiso   1.00
H33    H     0.56620   0.35900   0.22350   0.01267  Uiso   1.00
H34    H     0.51760   0.35870   0.26510   0.01267  Uiso   1.00
H35    H     0.45430   0.36640   0.30630   0.01267  Uiso   1.00
H36    H     0.44680   0.57860   0.29530   0.01267  Uiso   1.00
H37    H     0.08400   0.66820   0.91800   0.01267  Uiso   1.00
H38    H     0.49050   0.61720   0.89790   0.01267  Uiso   1.00
H39    H     0.48680   0.55510   0.88290   0.01267  Uiso   1.00
H40    H     0.78330   0.26920   0.88770   0.01267  Uiso   1.00
H41    H     0.71950   0.28770   0.87550   0.01267  Uiso   1.00
H42    H     0.94580   0.44420   0.86630   0.01267  Uiso   1.00
H43    H     0.92800   0.51470   0.87020   0.01267  Uiso   1.00
H44    H     0.95040   0.41820   0.09870   0.01267  Uiso   1.00
H45    H     0.94180   0.49110   0.09820   0.01267  Uiso   1.00
H46    H     0.85870   0.33120   0.12160   0.01267  Uiso   1.00
H47    H     0.79090   0.32830   0.13270   0.01267  Uiso   1.00
H48    H     0.44710   0.79420   0.69050   0.01267  Uiso   1.00
H49    H     0.30890   0.63490   0.70310   0.01267  Uiso   1.00
H50    H     0.28520   0.68270   0.74620   0.01267  Uiso   1.00
H51    H     0.26990   0.73160   0.78560   0.01267  Uiso   1.00
H52    H     0.24640   0.79540   0.82500   0.01267  Uiso   1.00
H53    H     0.38200   0.94650   0.79900   0.01267  Uiso   1.00
H54    H     0.03480   0.54600   0.69410   0.01267  Uiso   1.00
H55    H     0.18800   0.68000   0.66990   0.01267  Uiso   1.00
H56    H     0.16330   0.75010   0.70710   0.01267  Uiso   1.00
H57    H     0.14920   0.80190   0.74640   0.01267  Uiso   1.00
H58    H     0.13120   0.85010   0.78990   0.01267  Uiso   1.00
H59    H     0.97880   0.70340   0.80210   0.01267  Uiso   1.00
H60    H     0.29660   0.31540   0.54470   0.01267  Uiso   1.00
H61    H     0.41230   0.47670   0.57420   0.01267  Uiso   1.00
H62    H     0.49370   0.45940   0.53890   0.01267  Uiso   1.00
H63    H     0.56160   0.44360   0.50330   0.01267  Uiso   1.00
H64    H     0.62570   0.42070   0.46400   0.01267  Uiso   1.00
H65    H     0.49420   0.25740   0.44780   0.01267  Uiso   1.00
H66    H     0.36500   0.14290   0.54100   0.01267  Uiso   1.00
H67    H     0.15390   0.13560   0.54990   0.01267  Uiso   1.00
H68    H     0.14130   0.21460   0.51330   0.01267  Uiso   1.00
H69    H     0.14580   0.28810   0.47480   0.01267  Uiso   1.00
H70    H     0.16130   0.35810   0.43540   0.01267  Uiso   1.00
H71    H     0.37240   0.33940   0.44580   0.01267  Uiso   1.00
H72    H     0.46640   0.27500   0.55460   0.01267  Uiso   1.00
H73    H     0.62830   0.13400   0.55590   0.01267  Uiso   1.00
H74    H     0.58780   0.09060   0.51420   0.01267  Uiso   1.00
H75    H     0.53690   0.04770   0.47630   0.01267  Uiso   1.00
H76    H     0.47100   0.00520   0.43950   0.01267  Uiso   1.00
H77    H     0.33410   0.16810   0.45020   0.01267  Uiso   1.00
H78    H     0.14400   0.42020   0.30420   0.01267  Uiso   1.00
H79    H     0.13580   0.62960   0.31590   0.01267  Uiso   1.00
H80    H     0.06620   0.64100   0.27650   0.01267  Uiso   1.00
H81    H     0.01760   0.64130   0.23490   0.01267  Uiso   1.00
H82    H     0.95430   0.63360   0.19370   0.01267  Uiso   1.00
H83    H     0.94680   0.42140   0.20470   0.01267  Uiso   1.00
H84    H     0.58400   0.33180   0.58200   0.01267  Uiso   1.00
H85    H     0.99050   0.38280   0.60210   0.01267  Uiso   1.00
H86    H     0.98680   0.44490   0.61710   0.01267  Uiso   1.00
H87    H     0.28330   0.73080   0.61230   0.01267  Uiso   1.00
H88    H     0.21950   0.71230   0.62450   0.01267  Uiso   1.00
H89    H     0.44580   0.55580   0.63370   0.01267  Uiso   1.00
H90    H     0.42800   0.48530   0.62980   0.01267  Uiso   1.00
H91    H     0.45040   0.58180   0.40130   0.01267  Uiso   1.00
H92    H     0.44180   0.50890   0.40180   0.01267  Uiso   1.00
H93    H     0.35870   0.66880   0.37840   0.01267  Uiso   1.00
H94    H     0.29090   0.67170   0.36730   0.01267  Uiso   1.00
H95    H     0.55290   0.70580   0.19050   0.01267  Uiso   1.00
H96    H     0.69110   0.86510   0.20310   0.01267  Uiso   1.00
H97    H     0.71480   0.81730   0.24620   0.01267  Uiso   1.00
H98    H     0.73010   0.76840   0.28560   0.01267  Uiso   1.00
H99    H     0.75360   0.70460   0.32500   0.01267  Uiso   1.00
H100   H     0.61800   0.55350   0.29900   0.01267  Uiso   1.00
H101   H     0.96520   0.95400   0.19410   0.01267  Uiso   1.00
H102   H     0.81200   0.82000   0.16990   0.01267  Uiso   1.00
H103   H     0.83670   0.74990   0.20710   0.01267  Uiso   1.00
H104   H     0.85080   0.69810   0.24640   0.01267  Uiso   1.00
H105   H     0.86880   0.64990   0.28990   0.01267  Uiso   1.00
H106   H     0.02120   0.79660   0.30210   0.01267  Uiso   1.00
H107   H     0.70340   0.18460   0.04470   0.01267  Uiso   1.00
H108   H     0.58770   0.02330   0.07420   0.01267  Uiso   1.00
H109   H     0.50630   0.04060   0.03890   0.01267  Uiso   1.00
H110   H     0.43840   0.05640   0.00330   0.01267  Uiso   1.00
H111   H     0.37430   0.07930   0.96400   0.01267  Uiso   1.00
H112   H     0.50580   0.24260   0.94780   0.01267  Uiso   1.00
H113   H     0.63500   0.35710   0.04100   0.01267  Uiso   1.00
H114   H     0.84610   0.36440   0.04990   0.01267  Uiso   1.00
H115   H     0.85870   0.28540   0.01330   0.01267  Uiso   1.00
H116   H     0.85420   0.21190   0.97480   0.01267  Uiso   1.00
H117   H     0.83870   0.14190   0.93540   0.01267  Uiso   1.00
H118   H     0.62760   0.16060   0.94580   0.01267  Uiso   1.00
H119   H     0.53360   0.22500   0.05460   0.01267  Uiso   1.00
H120   H     0.37170   0.36600   0.05590   0.01267  Uiso   1.00
H121   H     0.41220   0.40940   0.01420   0.01267  Uiso   1.00
H122   H     0.46310   0.45230   0.97630   0.01267  Uiso   1.00
H123   H     0.52900   0.49480   0.93950   0.01267  Uiso   1.00
H124   H     0.66590   0.33190   0.95020   0.01267  Uiso   1.00
H125   H     0.85600   0.07980   0.80420   0.01267  Uiso   1.00
H126   H     0.86420   0.87040   0.81590   0.01267  Uiso   1.00
H127   H     0.93380   0.85900   0.77650   0.01267  Uiso   1.00
H128   H     0.98240   0.85870   0.73490   0.01267  Uiso   1.00
H129   H     0.04570   0.86640   0.69370   0.01267  Uiso   1.00
H130   H     0.05320   0.07860   0.70470   0.01267  Uiso   1.00
H131   H     0.41600   0.16820   0.08200   0.01267  Uiso   1.00
H132   H     0.00950   0.11720   0.10210   0.01267  Uiso   1.00
H133   H     0.01320   0.05510   0.11710   0.01267  Uiso   1.00
H134   H     0.71670   0.76920   0.11230   0.01267  Uiso   1.00
H135   H     0.78050   0.78770   0.12450   0.01267  Uiso   1.00
H136   H     0.55420   0.94420   0.13370   0.01267  Uiso   1.00
H137   H     0.57200   0.01470   0.12980   0.01267  Uiso   1.00
H138   H     0.54960   0.91820   0.90130   0.01267  Uiso   1.00
H139   H     0.55820   0.99110   0.90180   0.01267  Uiso   1.00
H140   H     0.64130   0.83120   0.87840   0.01267  Uiso   1.00
H141   H     0.70910   0.82830   0.86730   0.01267  Uiso   1.00
H142   H     0.05290   0.29420   0.30950   0.01267  Uiso   1.00
H143   H     0.19110   0.13490   0.29690   0.01267  Uiso   1.00
H144   H     0.21480   0.18270   0.25380   0.01267  Uiso   1.00
H145   H     0.23010   0.23160   0.21440   0.01267  Uiso   1.00
H146   H     0.25360   0.29540   0.17500   0.01267  Uiso   1.00
H147   H     0.11800   0.44650   0.20100   0.01267  Uiso   1.00
H148   H     0.46520   0.04600   0.30590   0.01267  Uiso   1.00
H149   H     0.31200   0.18000   0.33010   0.01267  Uiso   1.00
H150   H     0.33670   0.25010   0.29290   0.01267  Uiso   1.00
H151   H     0.35080   0.30190   0.25360   0.01267  Uiso   1.00
H152   H     0.36880   0.35010   0.21010   0.01267  Uiso   1.00
H153   H     0.52120   0.20340   0.19790   0.01267  Uiso   1.00
H154   H     0.20340   0.81540   0.45530   0.01267  Uiso   1.00
H155   H     0.08770   0.97670   0.42580   0.01267  Uiso   1.00
H156   H     0.00630   0.95940   0.46110   0.01267  Uiso   1.00
H157   H     0.93840   0.94360   0.49670   0.01267  Uiso   1.00
H158   H     0.87430   0.92070   0.53600   0.01267  Uiso   1.00
H159   H     0.00580   0.75740   0.55220   0.01267  Uiso   1.00
H160   H     0.13500   0.64290   0.45900   0.01267  Uiso   1.00
H161   H     0.34610   0.63560   0.45010   0.01267  Uiso   1.00
H162   H     0.35870   0.71460   0.48670   0.01267  Uiso   1.00
H163   H     0.35420   0.78810   0.52520   0.01267  Uiso   1.00
H164   H     0.33870   0.85810   0.56460   0.01267  Uiso   1.00
H165   H     0.12760   0.83940   0.55420   0.01267  Uiso   1.00
H166   H     0.03360   0.77500   0.44540   0.01267  Uiso   1.00
H167   H     0.87170   0.63400   0.44410   0.01267  Uiso   1.00
H168   H     0.91220   0.59060   0.48580   0.01267  Uiso   1.00
H169   H     0.96310   0.54770   0.52370   0.01267  Uiso   1.00
H170   H     0.02900   0.50520   0.56050   0.01267  Uiso   1.00
H171   H     0.16590   0.66810   0.54980   0.01267  Uiso   1.00
H172   H     0.35600   0.92020   0.69580   0.01267  Uiso   1.00
H173   H     0.36420   0.12960   0.68410   0.01267  Uiso   1.00
H174   H     0.43380   0.14100   0.72350   0.01267  Uiso   1.00
H175   H     0.48240   0.14130   0.76510   0.01267  Uiso   1.00
H176   H     0.54570   0.13360   0.80630   0.01267  Uiso   1.00
H177   H     0.55320   0.92140   0.79530   0.01267  Uiso   1.00
H178   H     0.91600   0.83180   0.41800   0.01267  Uiso   1.00
H179   H     0.50950   0.88280   0.39790   0.01267  Uiso   1.00
H180   H     0.51320   0.94490   0.38290   0.01267  Uiso   1.00
H181   H     0.21670   0.23080   0.38770   0.01267  Uiso   1.00
H182   H     0.28050   0.21230   0.37550   0.01267  Uiso   1.00
H183   H     0.05420   0.05580   0.36630   0.01267  Uiso   1.00
H184   H     0.07200   0.98530   0.37020   0.01267  Uiso   1.00
H185   H     0.04960   0.08180   0.59870   0.01267  Uiso   1.00
H186   H     0.05820   0.00890   0.59820   0.01267  Uiso   1.00
H187   H     0.14130   0.16880   0.62160   0.01267  Uiso   1.00
H188   H     0.20910   0.17170   0.63270   0.01267  Uiso   1.00
H189   H     0.05290   0.79420   0.19050   0.01267  Uiso   1.00
H190   H     0.19110   0.63490   0.20310   0.01267  Uiso   1.00
H191   H     0.21480   0.68270   0.24620   0.01267  Uiso   1.00
H192   H     0.23010   0.73160   0.28560   0.01267  Uiso   1.00
H193   H     0.25360   0.79540   0.32500   0.01267  Uiso   1.00
H194   H     0.11800   0.94650   0.29900   0.01267  Uiso   1.00
H195   H     0.46520   0.54600   0.19410   0.01267  Uiso   1.00
H196   H     0.31200   0.68000   0.16990   0.01267  Uiso   1.00
H197   H     0.33670   0.75010   0.20710   0.01267  Uiso   1.00
H198   H     0.35080   0.80190   0.24640   0.01267  Uiso   1.00
H199   H     0.36880   0.85010   0.28990   0.01267  Uiso   1.00
H200   H     0.52120   0.70340   0.30210   0.01267  Uiso   1.00
H201   H     0.20340   0.31540   0.04470   0.01267  Uiso   1.00
H202   H     0.08770   0.47670   0.07420   0.01267  Uiso   1.00
H203   H     0.00630   0.45940   0.03890   0.01267  Uiso   1.00
H204   H     0.93840   0.44360   0.00330   0.01267  Uiso   1.00
H205   H     0.87430   0.42070   0.96400   0.01267  Uiso   1.00
H206   H     0.00580   0.25740   0.94780   0.01267  Uiso   1.00
H207   H     0.13500   0.14290   0.04100   0.01267  Uiso   1.00
H208   H     0.34610   0.13560   0.04990   0.01267  Uiso   1.00
H209   H     0.35870   0.21460   0.01330   0.01267  Uiso   1.00
H210   H     0.35420   0.28810   0.97480   0.01267  Uiso   1.00
H211   H     0.33870   0.35810   0.93540   0.01267  Uiso   1.00
H212   H     0.12760   0.33940   0.94580   0.01267  Uiso   1.00
H213   H     0.03360   0.27500   0.05460   0.01267  Uiso   1.00
H214   H     0.87170   0.13400   0.05590   0.01267  Uiso   1.00
H215   H     0.91220   0.09060   0.01420   0.01267  Uiso   1.00
H216   H     0.96310   0.04770   0.97630   0.01267  Uiso   1.00
H217   H     0.02900   0.00520   0.93950   0.01267  Uiso   1.00
H218   H     0.16590   0.16810   0.95020   0.01267  Uiso   1.00
H219   H     0.35600   0.42020   0.80420   0.01267  Uiso   1.00
H220   H     0.36420   0.62960   0.81590   0.01267  Uiso   1.00
H221   H     0.43380   0.64100   0.77650   0.01267  Uiso   1.00
H222   H     0.48240   0.64130   0.73490   0.01267  Uiso   1.00
H223   H     0.54570   0.63360   0.69370   0.01267  Uiso   1.00
H224   H     0.55320   0.42140   0.70470   0.01267  Uiso   1.00
H225   H     0.91600   0.33180   0.08200   0.01267  Uiso   1.00
H226   H     0.50950   0.38280   0.10210   0.01267  Uiso   1.00
H227   H     0.51320   0.44490   0.11710   0.01267  Uiso   1.00
H228   H     0.21670   0.73080   0.11230   0.01267  Uiso   1.00
H229   H     0.28050   0.71230   0.12450   0.01267  Uiso   1.00
H230   H     0.05420   0.55580   0.13370   0.01267  Uiso   1.00
H231   H     0.07200   0.48530   0.12980   0.01267  Uiso   1.00
H232   H     0.04960   0.58180   0.90130   0.01267  Uiso   1.00
H233   H     0.05820   0.50890   0.90180   0.01267  Uiso   1.00
H234   H     0.14130   0.66880   0.87840   0.01267  Uiso   1.00
H235   H     0.20910   0.67170   0.86730   0.01267  Uiso   1.00
H236   H     0.55290   0.20580   0.30950   0.01267  Uiso   1.00
H237   H     0.69110   0.36510   0.29690   0.01267  Uiso   1.00
H238   H     0.71480   0.31730   0.25380   0.01267  Uiso   1.00
H239   H     0.73010   0.26840   0.21440   0.01267  Uiso   1.00
H240   H     0.75360   0.20460   0.17500   0.01267  Uiso   1.00
H241   H     0.61800   0.05350   0.20100   0.01267  Uiso   1.00
H242   H     0.96520   0.45400   0.30590   0.01267  Uiso   1.00
H243   H     0.81200   0.32000   0.33010   0.01267  Uiso   1.00
H244   H     0.83670   0.24990   0.29290   0.01267  Uiso   1.00
H245   H     0.85080   0.19810   0.25360   0.01267  Uiso   1.00
H246   H     0.86880   0.14990   0.21010   0.01267  Uiso   1.00
H247   H     0.02120   0.29660   0.19790   0.01267  Uiso   1.00
H248   H     0.70340   0.68460   0.45530   0.01267  Uiso   1.00
H249   H     0.58770   0.52330   0.42580   0.01267  Uiso   1.00
H250   H     0.50630   0.54060   0.46110   0.01267  Uiso   1.00
H251   H     0.43840   0.55640   0.49670   0.01267  Uiso   1.00
H252   H     0.37430   0.57930   0.53600   0.01267  Uiso   1.00
H253   H     0.50580   0.74260   0.55220   0.01267  Uiso   1.00
H254   H     0.63500   0.85710   0.45900   0.01267  Uiso   1.00
H255   H     0.84610   0.86440   0.45010   0.01267  Uiso   1.00
H256   H     0.85870   0.78540   0.48670   0.01267  Uiso   1.00
H257   H     0.85420   0.71190   0.52520   0.01267  Uiso   1.00
H258   H     0.83870   0.64190   0.56460   0.01267  Uiso   1.00
H259   H     0.62760   0.66060   0.55420   0.01267  Uiso   1.00
H260   H     0.53360   0.72500   0.44540   0.01267  Uiso   1.00
H261   H     0.37170   0.86600   0.44410   0.01267  Uiso   1.00
H262   H     0.41220   0.90940   0.48580   0.01267  Uiso   1.00
H263   H     0.46310   0.95230   0.52370   0.01267  Uiso   1.00
H264   H     0.52900   0.99480   0.56050   0.01267  Uiso   1.00
H265   H     0.66590   0.83190   0.54980   0.01267  Uiso   1.00
H266   H     0.85600   0.57980   0.69580   0.01267  Uiso   1.00
H267   H     0.86420   0.37040   0.68410   0.01267  Uiso   1.00
H268   H     0.93380   0.35900   0.72350   0.01267  Uiso   1.00
H269   H     0.98240   0.35870   0.76510   0.01267  Uiso   1.00
H270   H     0.04570   0.36640   0.80630   0.01267  Uiso   1.00
H271   H     0.05320   0.57860   0.79530   0.01267  Uiso   1.00
H272   H     0.41600   0.66820   0.41800   0.01267  Uiso   1.00
H273   H     0.00950   0.61720   0.39790   0.01267  Uiso   1.00
H274   H     0.01320   0.55510   0.38290   0.01267  Uiso   1.00
H275   H     0.71670   0.26920   0.38770   0.01267  Uiso   1.00
H276   H     0.78050   0.28770   0.37550   0.01267  Uiso   1.00
H277   H     0.55420   0.44420   0.36630   0.01267  Uiso   1.00
H278   H     0.57200   0.51470   0.37020   0.01267  Uiso   1.00
H279   H     0.54960   0.41820   0.59870   0.01267  Uiso   1.00
H280   H     0.55820   0.49110   0.59820   0.01267  Uiso   1.00
H281   H     0.64130   0.33120   0.62160   0.01267  Uiso   1.00
H282   H     0.70910   0.32830   0.63270   0.01267  Uiso   1.00
H283   H     0.44710   0.29420   0.80950   0.01267  Uiso   1.00
H284   H     0.30890   0.13490   0.79690   0.01267  Uiso   1.00
H285   H     0.28520   0.18270   0.75380   0.01267  Uiso   1.00
H286   H     0.26990   0.23160   0.71440   0.01267  Uiso   1.00
H287   H     0.24640   0.29540   0.67500   0.01267  Uiso   1.00
H288   H     0.38200   0.44650   0.70100   0.01267  Uiso   1.00
H289   H     0.03480   0.04600   0.80590   0.01267  Uiso   1.00
H290   H     0.18800   0.18000   0.83010   0.01267  Uiso   1.00
H291   H     0.16330   0.25010   0.79290   0.01267  Uiso   1.00
H292   H     0.14920   0.30190   0.75360   0.01267  Uiso   1.00
H293   H     0.13120   0.35010   0.71010   0.01267  Uiso   1.00
H294   H     0.97880   0.20340   0.69790   0.01267  Uiso   1.00
H295   H     0.29660   0.81540   0.95530   0.01267  Uiso   1.00
H296   H     0.41230   0.97670   0.92580   0.01267  Uiso   1.00
H297   H     0.49370   0.95940   0.96110   0.01267  Uiso   1.00
H298   H     0.56160   0.94360   0.99670   0.01267  Uiso   1.00
H299   H     0.62570   0.92070   0.03600   0.01267  Uiso   1.00
H300   H     0.49420   0.75740   0.05220   0.01267  Uiso   1.00
H301   H     0.36500   0.64290   0.95900   0.01267  Uiso   1.00
H302   H     0.15390   0.63560   0.95010   0.01267  Uiso   1.00
H303   H     0.14130   0.71460   0.98670   0.01267  Uiso   1.00
H304   H     0.14580   0.78810   0.02520   0.01267  Uiso   1.00
H305   H     0.16130   0.85810   0.06460   0.01267  Uiso   1.00
H306   H     0.37240   0.83940   0.05420   0.01267  Uiso   1.00
H307   H     0.46640   0.77500   0.94540   0.01267  Uiso   1.00
H308   H     0.62830   0.63400   0.94410   0.01267  Uiso   1.00
H309   H     0.58780   0.59060   0.98580   0.01267  Uiso   1.00
H310   H     0.53690   0.54770   0.02370   0.01267  Uiso   1.00
H311   H     0.47100   0.50520   0.06050   0.01267  Uiso   1.00
H312   H     0.33410   0.66810   0.04980   0.01267  Uiso   1.00
H313   H     0.14400   0.92020   0.19580   0.01267  Uiso   1.00
H314   H     0.13580   0.12960   0.18410   0.01267  Uiso   1.00
H315   H     0.06620   0.14100   0.22350   0.01267  Uiso   1.00
H316   H     0.01760   0.14130   0.26510   0.01267  Uiso   1.00
H317   H     0.95430   0.13360   0.30630   0.01267  Uiso   1.00
H318   H     0.94680   0.92140   0.29530   0.01267  Uiso   1.00
H319   H     0.58400   0.83180   0.91800   0.01267  Uiso   1.00
H320   H     0.99050   0.88280   0.89790   0.01267  Uiso   1.00
H321   H     0.98680   0.94490   0.88290   0.01267  Uiso   1.00
H322   H     0.28330   0.23080   0.88770   0.01267  Uiso   1.00
H323   H     0.21950   0.21230   0.87550   0.01267  Uiso   1.00
H324   H     0.44580   0.05580   0.86630   0.01267  Uiso   1.00
H325   H     0.42800   0.98530   0.87020   0.01267  Uiso   1.00
H326   H     0.45040   0.08180   0.09870   0.01267  Uiso   1.00
H327   H     0.44180   0.00890   0.09820   0.01267  Uiso   1.00
H328   H     0.35870   0.16880   0.12160   0.01267  Uiso   1.00
H329   H     0.29090   0.17170   0.13270   0.01267  Uiso   1.00
H330   H     0.94710   0.70580   0.69050   0.01267  Uiso   1.00
H331   H     0.80890   0.86510   0.70310   0.01267  Uiso   1.00
H332   H     0.78520   0.81730   0.74620   0.01267  Uiso   1.00
H333   H     0.76990   0.76840   0.78560   0.01267  Uiso   1.00
H334   H     0.74640   0.70460   0.82500   0.01267  Uiso   1.00
H335   H     0.88200   0.55350   0.79900   0.01267  Uiso   1.00
H336   H     0.53480   0.95400   0.69410   0.01267  Uiso   1.00
H337   H     0.68800   0.82000   0.66990   0.01267  Uiso   1.00
H338   H     0.66330   0.74990   0.70710   0.01267  Uiso   1.00
H339   H     0.64920   0.69810   0.74640   0.01267  Uiso   1.00
H340   H     0.63120   0.64990   0.78990   0.01267  Uiso   1.00
H341   H     0.47880   0.79660   0.80210   0.01267  Uiso   1.00
H342   H     0.79660   0.18460   0.54470   0.01267  Uiso   1.00
H343   H     0.91230   0.02330   0.57420   0.01267  Uiso   1.00
H344   H     0.99370   0.04060   0.53890   0.01267  Uiso   1.00
H345   H     0.06160   0.05640   0.50330   0.01267  Uiso   1.00
H346   H     0.12570   0.07930   0.46400   0.01267  Uiso   1.00
H347   H     0.99420   0.24260   0.44780   0.01267  Uiso   1.00
H348   H     0.86500   0.35710   0.54100   0.01267  Uiso   1.00
H349   H     0.65390   0.36440   0.54990   0.01267  Uiso   1.00
H350   H     0.64130   0.28540   0.51330   0.01267  Uiso   1.00
H351   H     0.64580   0.21190   0.47480   0.01267  Uiso   1.00
H352   H     0.66130   0.14190   0.43540   0.01267  Uiso   1.00
H353   H     0.87240   0.16060   0.44580   0.01267  Uiso   1.00
H354   H     0.96640   0.22500   0.55460   0.01267  Uiso   1.00
H355   H     0.12830   0.36600   0.55590   0.01267  Uiso   1.00
H356   H     0.08780   0.40940   0.51420   0.01267  Uiso   1.00
H357   H     0.03690   0.45230   0.47630   0.01267  Uiso   1.00
H358   H     0.97100   0.49480   0.43950   0.01267  Uiso   1.00
H359   H     0.83410   0.33190   0.45020   0.01267  Uiso   1.00
H360   H     0.64400   0.07980   0.30420   0.01267  Uiso   1.00
H361   H     0.63580   0.87040   0.31590   0.01267  Uiso   1.00
H362   H     0.56620   0.85900   0.27650   0.01267  Uiso   1.00
H363   H     0.51760   0.85870   0.23490   0.01267  Uiso   1.00
H364   H     0.45430   0.86640   0.19370   0.01267  Uiso   1.00
H365   H     0.44680   0.07860   0.20470   0.01267  Uiso   1.00
H366   H     0.08400   0.16820   0.58200   0.01267  Uiso   1.00
H367   H     0.49050   0.11720   0.60210   0.01267  Uiso   1.00
H368   H     0.48680   0.05510   0.61710   0.01267  Uiso   1.00
H369   H     0.78330   0.76920   0.61230   0.01267  Uiso   1.00
H370   H     0.71950   0.78770   0.62450   0.01267  Uiso   1.00
H371   H     0.94580   0.94420   0.63370   0.01267  Uiso   1.00
H372   H     0.92800   0.01470   0.62980   0.01267  Uiso   1.00
H373   H     0.95040   0.91820   0.40130   0.01267  Uiso   1.00
H374   H     0.94180   0.99110   0.40180   0.01267  Uiso   1.00
H375   H     0.85870   0.83120   0.37840   0.01267  Uiso   1.00
H376   H     0.79090   0.82830   0.36730   0.01267  Uiso   1.00
C1     C     0.89710   0.31740   0.83636   0.01267  Uiso   1.00
C2     C     0.91380   0.22870   0.79830   0.01267  Uiso   1.00
C3     C     0.87990   0.28960   0.80858   0.01267  Uiso   1.00
C4     C     0.83190   0.32340   0.79129   0.01267  Uiso   1.00
C5     C     0.81790   0.29490   0.76541   0.01267  Uiso   1.00
C6     C     0.85290   0.23260   0.75672   0.01267  Uiso   1.00
C7     C     0.83890   0.19710   0.73043   0.01267  Uiso   1.00
C8     C     0.79180   0.22430   0.71147   0.01267  Uiso   1.00
C9     C     0.77740   0.18630   0.68830   0.01267  Uiso   1.00
C10    C     0.80940   0.11940   0.68458   0.01267  Uiso   1.00
C11    C     0.85870   0.09690   0.70388   0.01267  Uiso   1.00
C12    C     0.78830   0.07240   0.66093   0.01267  Uiso   1.00
C13    C     0.63950   0.44990   0.84342   0.01267  Uiso   1.00
C14    C     0.56170   0.41270   0.80304   0.01267  Uiso   1.00
C15    C     0.61590   0.39740   0.82117   0.01267  Uiso   1.00
C16    C     0.65310   0.33390   0.81748   0.01267  Uiso   1.00
C17    C     0.63840   0.29250   0.79553   0.01267  Uiso   1.00
C18    C     0.58620   0.31330   0.77696   0.01267  Uiso   1.00
C19    C     0.57440   0.27580   0.75037   0.01267  Uiso   1.00
C20    C     0.61510   0.21790   0.74183   0.01267  Uiso   1.00
C21    C     0.60510   0.18960   0.71582   0.01267  Uiso   1.00
C22    C     0.55650   0.22080   0.69877   0.01267  Uiso   1.00
C23    C     0.51420   0.27720   0.70916   0.01267  Uiso   1.00
C24    C     0.54510   0.19490   0.66920   0.01267  Uiso   1.00
C25    C     0.78690   0.58460   0.91566   0.01267  Uiso   1.00
C26    C     0.83580   0.65400   0.95679   0.01267  Uiso   1.00
C27    C     0.84310   0.59920   0.93735   0.01267  Uiso   1.00
C28    C     0.90370   0.55840   0.93895   0.01267  Uiso   1.00
C29    C     0.95270   0.56900   0.96006   0.01267  Uiso   1.00
C30    C     0.94090   0.62090   0.97926   0.01267  Uiso   1.00
C31    C     0.98890   0.63420   0.00286   0.01267  Uiso   1.00
C32    C     0.04780   0.59300   0.00848   0.01267  Uiso   1.00
C33    C     0.08560   0.60690   0.03172   0.01267  Uiso   1.00
C34    C     0.06500   0.66150   0.04899   0.01267  Uiso   1.00
C35    C     0.00720   0.70400   0.04121   0.01267  Uiso   1.00
C36    C     0.10530   0.67550   0.07580   0.01267  Uiso   1.00
C37    C     0.77130   0.92160   0.92690   0.01267  Uiso   1.00
C38    C     0.81950   0.84290   0.96470   0.01267  Uiso   1.00
C39    C     0.76020   0.87170   0.95170   0.01267  Uiso   1.00
C40    C     0.69450   0.84830   0.95940   0.01267  Uiso   1.00
C41    C     0.68670   0.80010   0.98116   0.01267  Uiso   1.00
C42    C     0.74840   0.77420   0.99447   0.01267  Uiso   1.00
C43    C     0.75080   0.72740   0.01793   0.01267  Uiso   1.00
C44    C     0.69170   0.70160   0.03160   0.01267  Uiso   1.00
C45    C     0.70090   0.65980   0.05520   0.01267  Uiso   1.00
C46    C     0.76950   0.64550   0.06420   0.01267  Uiso   1.00
C47    C     0.82590   0.67180   0.04866   0.01267  Uiso   1.00
C48    C     0.78500   0.60060   0.08937   0.01267  Uiso   1.00
C49    C     0.07610   0.75780   0.91363   0.01267  Uiso   1.00
C50    C     0.99110   0.76260   0.95356   0.01267  Uiso   1.00
C51    C     0.05070   0.79130   0.94008   0.01267  Uiso   1.00
C52    C     0.08790   0.84630   0.95239   0.01267  Uiso   1.00
C53    C     0.06360   0.87170   0.97743   0.01267  Uiso   1.00
C54    C     0.00510   0.84260   0.99014   0.01267  Uiso   1.00
C55    C     0.97090   0.86990   0.01514   0.01267  Uiso   1.00
C56    C     0.99470   0.92950   0.02903   0.01267  Uiso   1.00
C57    C     0.95550   0.95490   0.05081   0.01267  Uiso   1.00
C58    C     0.89330   0.92050   0.05804   0.01267  Uiso   1.00
C59    C     0.87470   0.85690   0.04420   0.01267  Uiso   1.00
C60    C     0.84500   0.94800   0.08076   0.01267  Uiso   1.00
C61    C     0.70010   0.48580   0.16213   0.01267  Uiso   1.00
C62    C     0.62820   0.53490   0.20131   0.01267  Uiso   1.00
C63    C     0.64980   0.47610   0.18619   0.01267  Uiso   1.00
C64    C     0.62440   0.41080   0.19440   0.01267  Uiso   1.00
C65    C     0.58220   0.40370   0.21767   0.01267  Uiso   1.00
C66    C     0.56470   0.46510   0.23205   0.01267  Uiso   1.00
C67    C     0.52170   0.46420   0.25731   0.01267  Uiso   1.00
C68    C     0.50370   0.40320   0.27178   0.01267  Uiso   1.00
C69    C     0.46520   0.40730   0.29624   0.01267  Uiso   1.00
C70    C     0.44370   0.47380   0.30499   0.01267  Uiso   1.00
C71    C     0.46230   0.53370   0.28953   0.01267  Uiso   1.00
C72    C     0.40080   0.48340   0.33068   0.01267  Uiso   1.00
C73    C     0.39710   0.68260   0.66364   0.01267  Uiso   1.00
C74    C     0.41380   0.77130   0.70170   0.01267  Uiso   1.00
C75    C     0.37990   0.71040   0.69142   0.01267  Uiso   1.00
C76    C     0.33190   0.67660   0.70871   0.01267  Uiso   1.00
C77    C     0.31790   0.70510   0.73459   0.01267  Uiso   1.00
C78    C     0.35290   0.76740   0.74328   0.01267  Uiso   1.00
C79    C     0.33890   0.80290   0.76957   0.01267  Uiso   1.00
C80    C     0.29180   0.77570   0.78853   0.01267  Uiso   1.00
C81    C     0.27740   0.81370   0.81170   0.01267  Uiso   1.00
C82    C     0.30940   0.88060   0.81542   0.01267  Uiso   1.00
C83    C     0.35870   0.90310   0.79612   0.01267  Uiso   1.00
C84    C     0.28830   0.92760   0.83907   0.01267  Uiso   1.00
C85    C     0.13950   0.55010   0.65658   0.01267  Uiso   1.00
C86    C     0.06170   0.58730   0.69696   0.01267  Uiso   1.00
C87    C     0.11590   0.60260   0.67883   0.01267  Uiso   1.00
C88    C     0.15310   0.66610   0.68252   0.01267  Uiso   1.00
C89    C     0.13840   0.70750   0.70447   0.01267  Uiso   1.00
C90    C     0.08620   0.68670   0.72304   0.01267  Uiso   1.00
C91    C     0.07440   0.72420   0.74963   0.01267  Uiso   1.00
C92    C     0.11510   0.78210   0.75817   0.01267  Uiso   1.00
C93    C     0.10510   0.81040   0.78418   0.01267  Uiso   1.00
C94    C     0.05650   0.77920   0.80123   0.01267  Uiso   1.00
C95    C     0.01420   0.72280   0.79084   0.01267  Uiso   1.00
C96    C     0.04510   0.80510   0.83080   0.01267  Uiso   1.00
C97    C     0.28690   0.41540   0.58434   0.01267  Uiso   1.00
C98    C     0.33580   0.34600   0.54321   0.01267  Uiso   1.00
C99    C     0.34310   0.40080   0.56265   0.01267  Uiso   1.00
C100   C     0.40370   0.44160   0.56105   0.01267  Uiso   1.00
C101   C     0.45270   0.43100   0.53994   0.01267  Uiso   1.00
C102   C     0.44090   0.37910   0.52074   0.01267  Uiso   1.00
C103   C     0.48890   0.36580   0.49714   0.01267  Uiso   1.00
C104   C     0.54780   0.40700   0.49152   0.01267  Uiso   1.00
C105   C     0.58560   0.39310   0.46828   0.01267  Uiso   1.00
C106   C     0.56500   0.33850   0.45101   0.01267  Uiso   1.00
C107   C     0.50720   0.29600   0.45879   0.01267  Uiso   1.00
C108   C     0.60530   0.32450   0.42420   0.01267  Uiso   1.00
C109   C     0.27130   0.07840   0.57310   0.01267  Uiso   1.00
C110   C     0.31950   0.15710   0.53530   0.01267  Uiso   1.00
C111   C     0.26020   0.12830   0.54830   0.01267  Uiso   1.00
C112   C     0.19450   0.15170   0.54060   0.01267  Uiso   1.00
C113   C     0.18670   0.19990   0.51884   0.01267  Uiso   1.00
C114   C     0.24840   0.22580   0.50553   0.01267  Uiso   1.00
C115   C     0.25080   0.27260   0.48207   0.01267  Uiso   1.00
C116   C     0.19170   0.29840   0.46840   0.01267  Uiso   1.00
C117   C     0.20090   0.34020   0.44480   0.01267  Uiso   1.00
C118   C     0.26950   0.35450   0.43580   0.01267  Uiso   1.00
C119   C     0.32590   0.32820   0.45134   0.01267  Uiso   1.00
C120   C     0.28500   0.39940   0.41063   0.01267  Uiso   1.00
C121   C     0.57610   0.24220   0.58637   0.01267  Uiso   1.00
C122   C     0.49110   0.23740   0.54644   0.01267  Uiso   1.00
C123   C     0.55070   0.20870   0.55992   0.01267  Uiso   1.00
C124   C     0.58790   0.15370   0.54761   0.01267  Uiso   1.00
C125   C     0.56360   0.12830   0.52257   0.01267  Uiso   1.00
C126   C     0.50510   0.15740   0.50986   0.01267  Uiso   1.00
C127   C     0.47090   0.13010   0.48486   0.01267  Uiso   1.00
C128   C     0.49470   0.07050   0.47097   0.01267  Uiso   1.00
C129   C     0.45550   0.04510   0.44919   0.01267  Uiso   1.00
C130   C     0.39330   0.07950   0.44196   0.01267  Uiso   1.00
C131   C     0.37470   0.14310   0.45580   0.01267  Uiso   1.00
C132   C     0.34500   0.05200   0.41924   0.01267  Uiso   1.00
C133   C     0.20010   0.51420   0.33787   0.01267  Uiso   1.00
C134   C     0.12820   0.46510   0.29869   0.01267  Uiso   1.00
C135   C     0.14980   0.52390   0.31381   0.01267  Uiso   1.00
C136   C     0.12440   0.58920   0.30560   0.01267  Uiso   1.00
C137   C     0.08220   0.59630   0.28233   0.01267  Uiso   1.00
C138   C     0.06470   0.53490   0.26795   0.01267  Uiso   1.00
C139   C     0.02170   0.53580   0.24269   0.01267  Uiso   1.00
C140   C     0.00370   0.59680   0.22822   0.01267  Uiso   1.00
C141   C     0.96520   0.59270   0.20376   0.01267  Uiso   1.00
C142   C     0.94370   0.52620   0.19501   0.01267  Uiso   1.00
C143   C     0.96230   0.46630   0.21047   0.01267  Uiso   1.00
C144   C     0.90080   0.51660   0.16932   0.01267  Uiso   1.00
C145   C     0.60290   0.81740   0.16364   0.01267  Uiso   1.00
C146   C     0.58620   0.72870   0.20170   0.01267  Uiso   1.00
C147   C     0.62010   0.78960   0.19142   0.01267  Uiso   1.00
C148   C     0.66810   0.82340   0.20871   0.01267  Uiso   1.00
C149   C     0.68210   0.79490   0.23459   0.01267  Uiso   1.00
C150   C     0.64710   0.73260   0.24328   0.01267  Uiso   1.00
C151   C     0.66110   0.69710   0.26957   0.01267  Uiso   1.00
C152   C     0.70820   0.72430   0.28853   0.01267  Uiso   1.00
C153   C     0.72260   0.68630   0.31170   0.01267  Uiso   1.00
C154   C     0.69060   0.61940   0.31542   0.01267  Uiso   1.00
C155   C     0.64130   0.59690   0.29612   0.01267  Uiso   1.00
C156   C     0.71170   0.57240   0.33907   0.01267  Uiso   1.00
C157   C     0.86050   0.94990   0.15658   0.01267  Uiso   1.00
C158   C     0.93830   0.91270   0.19696   0.01267  Uiso   1.00
C159   C     0.88410   0.89740   0.17883   0.01267  Uiso   1.00
C160   C     0.84690   0.83390   0.18252   0.01267  Uiso   1.00
C161   C     0.86160   0.79250   0.20447   0.01267  Uiso   1.00
C162   C     0.91380   0.81330   0.22304   0.01267  Uiso   1.00
C163   C     0.92560   0.77580   0.24963   0.01267  Uiso   1.00
C164   C     0.88490   0.71790   0.25817   0.01267  Uiso   1.00
C165   C     0.89490   0.68960   0.28418   0.01267  Uiso   1.00
C166   C     0.94350   0.72080   0.30123   0.01267  Uiso   1.00
C167   C     0.98580   0.77720   0.29084   0.01267  Uiso   1.00
C168   C     0.95490   0.69490   0.33080   0.01267  Uiso   1.00
C169   C     0.71310   0.08460   0.08434   0.01267  Uiso   1.00
C170   C     0.66420   0.15400   0.04321   0.01267  Uiso   1.00
C171   C     0.65690   0.09920   0.06265   0.01267  Uiso   1.00
C172   C     0.59630   0.05840   0.06105   0.01267  Uiso   1.00
C173   C     0.54730   0.06900   0.03994   0.01267  Uiso   1.00
C174   C     0.55910   0.12090   0.02074   0.01267  Uiso   1.00
C175   C     0.51110   0.13420   0.99714   0.01267  Uiso   1.00
C176   C     0.45220   0.09300   0.99152   0.01267  Uiso   1.00
C177   C     0.41440   0.10690   0.96828   0.01267  Uiso   1.00
C178   C     0.43500   0.16150   0.95101   0.01267  Uiso   1.00
C179   C     0.49280   0.20400   0.95879   0.01267  Uiso   1.00
C180   C     0.39470   0.17550   0.92420   0.01267  Uiso   1.00
C181   C     0.72870   0.42160   0.07310   0.01267  Uiso   1.00
C182   C     0.68050   0.34290   0.03530   0.01267  Uiso   1.00
C183   C     0.73980   0.37170   0.04830   0.01267  Uiso   1.00
C184   C     0.80550   0.34830   0.04060   0.01267  Uiso   1.00
C185   C     0.81330   0.30010   0.01884   0.01267  Uiso   1.00
C186   C     0.75160   0.27420   0.00553   0.01267  Uiso   1.00
C187   C     0.74920   0.22740   0.98207   0.01267  Uiso   1.00
C188   C     0.80830   0.20160   0.96840   0.01267  Uiso   1.00
C189   C     0.79910   0.15980   0.94480   0.01267  Uiso   1.00
C190   C     0.73050   0.14550   0.93580   0.01267  Uiso   1.00
C191   C     0.67410   0.17180   0.95134   0.01267  Uiso   1.00
C192   C     0.71500   0.10060   0.91063   0.01267  Uiso   1.00
C193   C     0.42390   0.25780   0.08637   0.01267  Uiso   1.00
C194   C     0.50890   0.26260   0.04644   0.01267  Uiso   1.00
C195   C     0.44930   0.29130   0.05992   0.01267  Uiso   1.00
C196   C     0.41210   0.34630   0.04761   0.01267  Uiso   1.00
C197   C     0.43640   0.37170   0.02257   0.01267  Uiso   1.00
C198   C     0.49490   0.34260   0.00986   0.01267  Uiso   1.00
C199   C     0.52910   0.36990   0.98486   0.01267  Uiso   1.00
C200   C     0.50530   0.42950   0.97097   0.01267  Uiso   1.00
C201   C     0.54450   0.45490   0.94919   0.01267  Uiso   1.00
C202   C     0.60670   0.42050   0.94196   0.01267  Uiso   1.00
C203   C     0.62530   0.35690   0.95580   0.01267  Uiso   1.00
C204   C     0.65500   0.44800   0.91924   0.01267  Uiso   1.00
C205   C     0.79990   0.98580   0.83787   0.01267  Uiso   1.00
C206   C     0.87180   0.03490   0.79869   0.01267  Uiso   1.00
C207   C     0.85020   0.97610   0.81381   0.01267  Uiso   1.00
C208   C     0.87560   0.91080   0.80560   0.01267  Uiso   1.00
C209   C     0.91780   0.90370   0.78233   0.01267  Uiso   1.00
C210   C     0.93530   0.96510   0.76795   0.01267  Uiso   1.00
C211   C     0.97830   0.96420   0.74269   0.01267  Uiso   1.00
C212   C     0.99630   0.90320   0.72822   0.01267  Uiso   1.00
C213   C     0.03480   0.90730   0.70376   0.01267  Uiso   1.00
C214   C     0.05630   0.97380   0.69501   0.01267  Uiso   1.00
C215   C     0.03770   0.03370   0.71047   0.01267  Uiso   1.00
C216   C     0.09920   0.98340   0.66932   0.01267  Uiso   1.00
C217   C     0.10290   0.18260   0.33636   0.01267  Uiso   1.00
C218   C     0.08620   0.27130   0.29830   0.01267  Uiso   1.00
C219   C     0.12010   0.21040   0.30858   0.01267  Uiso   1.00
C220   C     0.16810   0.17660   0.29129   0.01267  Uiso   1.00
C221   C     0.18210   0.20510   0.26541   0.01267  Uiso   1.00
C222   C     0.14710   0.26740   0.25672   0.01267  Uiso   1.00
C223   C     0.16110   0.30290   0.23043   0.01267  Uiso   1.00
C224   C     0.20820   0.27570   0.21147   0.01267  Uiso   1.00
C225   C     0.22260   0.31370   0.18830   0.01267  Uiso   1.00
C226   C     0.19060   0.38060   0.18458   0.01267  Uiso   1.00
C227   C     0.14130   0.40310   0.20388   0.01267  Uiso   1.00
C228   C     0.21170   0.42760   0.16093   0.01267  Uiso   1.00
C229   C     0.36050   0.05010   0.34342   0.01267  Uiso   1.00
C230   C     0.43830   0.08730   0.30304   0.01267  Uiso   1.00
C231   C     0.38410   0.10260   0.32117   0.01267  Uiso   1.00
C232   C     0.34690   0.16610   0.31748   0.01267  Uiso   1.00
C233   C     0.36160   0.20750   0.29553   0.01267  Uiso   1.00
C234   C     0.41380   0.18670   0.27696   0.01267  Uiso   1.00
C235   C     0.42560   0.22420   0.25037   0.01267  Uiso   1.00
C236   C     0.38490   0.28210   0.24183   0.01267  Uiso   1.00
C237   C     0.39490   0.31040   0.21582   0.01267  Uiso   1.00
C238   C     0.44350   0.27920   0.19877   0.01267  Uiso   1.00
C239   C     0.48580   0.22280   0.20916   0.01267  Uiso   1.00
C240   C     0.45490   0.30510   0.16920   0.01267  Uiso   1.00
C241   C     0.21310   0.91540   0.41566   0.01267  Uiso   1.00
C242   C     0.16420   0.84600   0.45679   0.01267  Uiso   1.00
C243   C     0.15690   0.90080   0.43735   0.01267  Uiso   1.00
C244   C     0.09630   0.94160   0.43895   0.01267  Uiso   1.00
C245   C     0.04730   0.93100   0.46006   0.01267  Uiso   1.00
C246   C     0.05910   0.87910   0.47926   0.01267  Uiso   1.00
C247   C     0.01110   0.86580   0.50286   0.01267  Uiso   1.00
C248   C     0.95220   0.90700   0.50848   0.01267  Uiso   1.00
C249   C     0.91440   0.89310   0.53172   0.01267  Uiso   1.00
C250   C     0.93500   0.83850   0.54899   0.01267  Uiso   1.00
C251   C     0.99280   0.79600   0.54121   0.01267  Uiso   1.00
C252   C     0.89470   0.82450   0.57580   0.01267  Uiso   1.00
C253   C     0.22870   0.57840   0.42690   0.01267  Uiso   1.00
C254   C     0.18050   0.65710   0.46470   0.01267  Uiso   1.00
C255   C     0.23980   0.62830   0.45170   0.01267  Uiso   1.00
C256   C     0.30550   0.65170   0.45940   0.01267  Uiso   1.00
C257   C     0.31330   0.69990   0.48116   0.01267  Uiso   1.00
C258   C     0.25160   0.72580   0.49447   0.01267  Uiso   1.00
C259   C     0.24920   0.77260   0.51793   0.01267  Uiso   1.00
C260   C     0.30830   0.79840   0.53160   0.01267  Uiso   1.00
C261   C     0.29910   0.84020   0.55520   0.01267  Uiso   1.00
C262   C     0.23050   0.85450   0.56420   0.01267  Uiso   1.00
C263   C     0.17410   0.82820   0.54866   0.01267  Uiso   1.00
C264   C     0.21500   0.89940   0.58937   0.01267  Uiso   1.00
C265   C     0.92390   0.74220   0.41363   0.01267  Uiso   1.00
C266   C     0.00890   0.73740   0.45356   0.01267  Uiso   1.00
C267   C     0.94930   0.70870   0.44008   0.01267  Uiso   1.00
C268   C     0.91210   0.65370   0.45239   0.01267  Uiso   1.00
C269   C     0.93640   0.62830   0.47743   0.01267  Uiso   1.00
C270   C     0.99490   0.65740   0.49014   0.01267  Uiso   1.00
C271   C     0.02910   0.63010   0.51514   0.01267  Uiso   1.00
C272   C     0.00530   0.57050   0.52903   0.01267  Uiso   1.00
C273   C     0.04450   0.54510   0.55081   0.01267  Uiso   1.00
C274   C     0.10670   0.57950   0.55804   0.01267  Uiso   1.00
C275   C     0.12530   0.64310   0.54420   0.01267  Uiso   1.00
C276   C     0.15500   0.55200   0.58076   0.01267  Uiso   1.00
C277   C     0.29990   0.01420   0.66213   0.01267  Uiso   1.00
C278   C     0.37180   0.96510   0.70131   0.01267  Uiso   1.00
C279   C     0.35020   0.02390   0.68619   0.01267  Uiso   1.00
C280   C     0.37560   0.08920   0.69440   0.01267  Uiso   1.00
C281   C     0.41780   0.09630   0.71767   0.01267  Uiso   1.00
C282   C     0.43530   0.03490   0.73205   0.01267  Uiso   1.00
C283   C     0.47830   0.03580   0.75731   0.01267  Uiso   1.00
C284   C     0.49630   0.09680   0.77178   0.01267  Uiso   1.00
C285   C     0.53480   0.09270   0.79624   0.01267  Uiso   1.00
C286   C     0.55630   0.02620   0.80499   0.01267  Uiso   1.00
C287   C     0.53770   0.96630   0.78953   0.01267  Uiso   1.00
C288   C     0.59920   0.01660   0.83068   0.01267  Uiso   1.00
C289   C     0.10290   0.68260   0.16364   0.01267  Uiso   1.00
C290   C     0.08620   0.77130   0.20170   0.01267  Uiso   1.00
C291   C     0.12010   0.71040   0.19142   0.01267  Uiso   1.00
C292   C     0.16810   0.67660   0.20871   0.01267  Uiso   1.00
C293   C     0.18210   0.70510   0.23459   0.01267  Uiso   1.00
C294   C     0.14710   0.76740   0.24328   0.01267  Uiso   1.00
C295   C     0.16110   0.80290   0.26957   0.01267  Uiso   1.00
C296   C     0.20820   0.77570   0.28853   0.01267  Uiso   1.00
C297   C     0.22260   0.81370   0.31170   0.01267  Uiso   1.00
C298   C     0.19060   0.88060   0.31542   0.01267  Uiso   1.00
C299   C     0.14130   0.90310   0.29612   0.01267  Uiso   1.00
C300   C     0.21170   0.92760   0.33907   0.01267  Uiso   1.00
C301   C     0.36050   0.55010   0.15658   0.01267  Uiso   1.00
C302   C     0.43830   0.58730   0.19696   0.01267  Uiso   1.00
C303   C     0.38410   0.60260   0.17883   0.01267  Uiso   1.00
C304   C     0.34690   0.66610   0.18252   0.01267  Uiso   1.00
C305   C     0.36160   0.70750   0.20447   0.01267  Uiso   1.00
C306   C     0.41380   0.68670   0.22304   0.01267  Uiso   1.00
C307   C     0.42560   0.72420   0.24963   0.01267  Uiso   1.00
C308   C     0.38490   0.78210   0.25817   0.01267  Uiso   1.00
C309   C     0.39490   0.81040   0.28418   0.01267  Uiso   1.00
C310   C     0.44350   0.77920   0.30123   0.01267  Uiso   1.00
C311   C     0.48580   0.72280   0.29084   0.01267  Uiso   1.00
C312   C     0.45490   0.80510   0.33080   0.01267  Uiso   1.00
C313   C     0.21310   0.41540   0.08434   0.01267  Uiso   1.00
C314   C     0.16420   0.34600   0.04321   0.01267  Uiso   1.00
C315   C     0.15690   0.40080   0.06265   0.01267  Uiso   1.00
C316   C     0.09630   0.44160   0.06105   0.01267  Uiso   1.00
C317   C     0.04730   0.43100   0.03994   0.01267  Uiso   1.00
C318   C     0.05910   0.37910   0.02074   0.01267  Uiso   1.00
C319   C     0.01110   0.36580   0.99714   0.01267  Uiso   1.00
C320   C     0.95220   0.40700   0.99152   0.01267  Uiso   1.00
C321   C     0.91440   0.39310   0.96828   0.01267  Uiso   1.00
C322   C     0.93500   0.33850   0.95101   0.01267  Uiso   1.00
C323   C     0.99280   0.29600   0.95879   0.01267  Uiso   1.00
C324   C     0.89470   0.32450   0.92420   0.01267  Uiso   1.00
C325   C     0.22870   0.07840   0.07310   0.01267  Uiso   1.00
C326   C     0.18050   0.15710   0.03530   0.01267  Uiso   1.00
C327   C     0.23980   0.12830   0.04830   0.01267  Uiso   1.00
C328   C     0.30550   0.15170   0.04060   0.01267  Uiso   1.00
C329   C     0.31330   0.19990   0.01884   0.01267  Uiso   1.00
C330   C     0.25160   0.22580   0.00553   0.01267  Uiso   1.00
C331   C     0.24920   0.27260   0.98207   0.01267  Uiso   1.00
C332   C     0.30830   0.29840   0.96840   0.01267  Uiso   1.00
C333   C     0.29910   0.34020   0.94480   0.01267  Uiso   1.00
C334   C     0.23050   0.35450   0.93580   0.01267  Uiso   1.00
C335   C     0.17410   0.32820   0.95134   0.01267  Uiso   1.00
C336   C     0.21500   0.39940   0.91063   0.01267  Uiso   1.00
C337   C     0.92390   0.24220   0.08637   0.01267  Uiso   1.00
C338   C     0.00890   0.23740   0.04644   0.01267  Uiso   1.00
C339   C     0.94930   0.20870   0.05992   0.01267  Uiso   1.00
C340   C     0.91210   0.15370   0.04761   0.01267  Uiso   1.00
C341   C     0.93640   0.12830   0.02257   0.01267  Uiso   1.00
C342   C     0.99490   0.15740   0.00986   0.01267  Uiso   1.00
C343   C     0.02910   0.13010   0.98486   0.01267  Uiso   1.00
C344   C     0.00530   0.07050   0.97097   0.01267  Uiso   1.00
C345   C     0.04450   0.04510   0.94919   0.01267  Uiso   1.00
C346   C     0.10670   0.07950   0.94196   0.01267  Uiso   1.00
C347   C     0.12530   0.14310   0.95580   0.01267  Uiso   1.00
C348   C     0.15500   0.05200   0.91924   0.01267  Uiso   1.00
C349   C     0.29990   0.51420   0.83787   0.01267  Uiso   1.00
C350   C     0.37180   0.46510   0.79869   0.01267  Uiso   1.00
C351   C     0.35020   0.52390   0.81381   0.01267  Uiso   1.00
C352   C     0.37560   0.58920   0.80560   0.01267  Uiso   1.00
C353   C     0.41780   0.59630   0.78233   0.01267  Uiso   1.00
C354   C     0.43530   0.53490   0.76795   0.01267  Uiso   1.00
C355   C     0.47830   0.53580   0.74269   0.01267  Uiso   1.00
C356   C     0.49630   0.59680   0.72822   0.01267  Uiso   1.00
C357   C     0.53480   0.59270   0.70376   0.01267  Uiso   1.00
C358   C     0.55630   0.52620   0.69501   0.01267  Uiso   1.00
C359   C     0.53770   0.46630   0.71047   0.01267  Uiso   1.00
C360   C     0.59920   0.51660   0.66932   0.01267  Uiso   1.00
C361   C     0.60290   0.31740   0.33636   0.01267  Uiso   1.00
C362   C     0.58620   0.22870   0.29830   0.01267  Uiso   1.00
C363   C     0.62010   0.28960   0.30858   0.01267  Uiso   1.00
C364   C     0.66810   0.32340   0.29129   0.01267  Uiso   1.00
C365   C     0.68210   0.29490   0.26541   0.01267  Uiso   1.00
C366   C     0.64710   0.23260   0.25672   0.01267  Uiso   1.00
C367   C     0.66110   0.19710   0.23043   0.01267  Uiso   1.00
C368   C     0.70820   0.22430   0.21147   0.01267  Uiso   1.00
C369   C     0.72260   0.18630   0.18830   0.01267  Uiso   1.00
C370   C     0.69060   0.11940   0.18458   0.01267  Uiso   1.00
C371   C     0.64130   0.09690   0.20388   0.01267  Uiso   1.00
C372   C     0.71170   0.07240   0.16093   0.01267  Uiso   1.00
C373   C     0.86050   0.44990   0.34342   0.01267  Uiso   1.00
C374   C     0.93830   0.41270   0.30304   0.01267  Uiso   1.00
C375   C     0.88410   0.39740   0.32117   0.01267  Uiso   1.00
C376   C     0.84690   0.33390   0.31748   0.01267  Uiso   1.00
C377   C     0.86160   0.29250   0.29553   0.01267  Uiso   1.00
C378   C     0.91380   0.31330   0.27696   0.01267  Uiso   1.00
C379   C     0.92560   0.27580   0.25037   0.01267  Uiso   1.00
C380   C     0.88490   0.21790   0.24183   0.01267  Uiso   1.00
C381   C     0.89490   0.18960   0.21582   0.01267  Uiso   1.00
C382   C     0.94350   0.22080   0.19877   0.01267  Uiso   1.00
C383   C     0.98580   0.27720   0.20916   0.01267  Uiso   1.00
C384   C     0.95490   0.19490   0.16920   0.01267  Uiso   1.00
C385   C     0.71310   0.58460   0.41566   0.01267  Uiso   1.00
C386   C     0.66420   0.65400   0.45679   0.01267  Uiso   1.00
C387   C     0.65690   0.59920   0.43735   0.01267  Uiso   1.00
C388   C     0.59630   0.55840   0.43895   0.01267  Uiso   1.00
C389   C     0.54730   0.56900   0.46006   0.01267  Uiso   1.00
C390   C     0.55910   0.62090   0.47926   0.01267  Uiso   1.00
C391   C     0.51110   0.63420   0.50286   0.01267  Uiso   1.00
C392   C     0.45220   0.59300   0.50848   0.01267  Uiso   1.00
C393   C     0.41440   0.60690   0.53172   0.01267  Uiso   1.00
C394   C     0.43500   0.66150   0.54899   0.01267  Uiso   1.00
C395   C     0.49280   0.70400   0.54121   0.01267  Uiso   1.00
C396   C     0.39470   0.67550   0.57580   0.01267  Uiso   1.00
C397   C     0.72870   0.92160   0.42690   0.01267  Uiso   1.00
C398   C     0.68050   0.84290   0.46470   0.01267  Uiso   1.00
C399   C     0.73980   0.87170   0.45170   0.01267  Uiso   1.00
C400   C     0.80550   0.84830   0.45940   0.01267  Uiso   1.00
C401   C     0.81330   0.80010   0.48116   0.01267  Uiso   1.00
C402   C     0.75160   0.77420   0.49447   0.01267  Uiso   1.00
C403   C     0.74920   0.72740   0.51793   0.01267  Uiso   1.00
C404   C     0.80830   0.70160   0.53160   0.01267  Uiso   1.00
C405   C     0.79910   0.65980   0.55520   0.01267  Uiso   1.00
C406   C     0.73050   0.64550   0.56420   0.01267  Uiso   1.00
C407   C     0.67410   0.67180   0.54866   0.01267  Uiso   1.00
C408   C     0.71500   0.60060   0.58937   0.01267  Uiso   1.00
C409   C     0.42390   0.75780   0.41363   0.01267  Uiso   1.00
C410   C     0.50890   0.76260   0.45356   0.01267  Uiso   1.00
C411   C     0.44930   0.79130   0.44008   0.01267  Uiso   1.00
C412   C     0.41210   0.84630   0.45239   0.01267  Uiso   1.00
C413   C     0.43640   0.87170   0.47743   0.01267  Uiso   1.00
C414   C     0.49490   0.84260   0.49014   0.01267  Uiso   1.00
C415   C     0.52910   0.86990   0.51514   0.01267  Uiso   1.00
C416   C     0.50530   0.92950   0.52903   0.01267  Uiso   1.00
C417   C     0.54450   0.95490   0.55081   0.01267  Uiso   1.00
C418   C     0.60670   0.92050   0.55804   0.01267  Uiso   1.00
C419   C     0.62530   0.85690   0.54420   0.01267  Uiso   1.00
C420   C     0.65500   0.94800   0.58076   0.01267  Uiso   1.00
C421   C     0.79990   0.48580   0.66213   0.01267  Uiso   1.00
C422   C     0.87180   0.53490   0.70131   0.01267  Uiso   1.00
C423   C     0.85020   0.47610   0.68619   0.01267  Uiso   1.00
C424   C     0.87560   0.41080   0.69440   0.01267  Uiso   1.00
C425   C     0.91780   0.40370   0.71767   0.01267  Uiso   1.00
C426   C     0.93530   0.46510   0.73205   0.01267  Uiso   1.00
C427   C     0.97830   0.46420   0.75731   0.01267  Uiso   1.00
C428   C     0.99630   0.40320   0.77178   0.01267  Uiso   1.00
C429   C     0.03480   0.40730   0.79624   0.01267  Uiso   1.00
C430   C     0.05630   0.47380   0.80499   0.01267  Uiso   1.00
C431   C     0.03770   0.53370   0.78953   0.01267  Uiso   1.00
C432   C     0.09920   0.48340   0.83068   0.01267  Uiso   1.00
C433   C     0.39710   0.18260   0.83636   0.01267  Uiso   1.00
C434   C     0.41380   0.27130   0.79830   0.01267  Uiso   1.00
C435   C     0.37990   0.21040   0.80858   0.01267  Uiso   1.00
C436   C     0.33190   0.17660   0.79129   0.01267  Uiso   1.00
C437   C     0.31790   0.20510   0.76541   0.01267  Uiso   1.00
C438   C     0.35290   0.26740   0.75672   0.01267  Uiso   1.00
C439   C     0.33890   0.30290   0.73043   0.01267  Uiso   1.00
C440   C     0.29180   0.27570   0.71147   0.01267  Uiso   1.00
C441   C     0.27740   0.31370   0.68830   0.01267  Uiso   1.00
C442   C     0.30940   0.38060   0.68458   0.01267  Uiso   1.00
C443   C     0.35870   0.40310   0.70388   0.01267  Uiso   1.00
C444   C     0.28830   0.42760   0.66093   0.01267  Uiso   1.00
C445   C     0.13950   0.05010   0.84342   0.01267  Uiso   1.00
C446   C     0.06170   0.08730   0.80304   0.01267  Uiso   1.00
C447   C     0.11590   0.10260   0.82117   0.01267  Uiso   1.00
C448   C     0.15310   0.16610   0.81748   0.01267  Uiso   1.00
C449   C     0.13840   0.20750   0.79553   0.01267  Uiso   1.00
C450   C     0.08620   0.18670   0.77696   0.01267  Uiso   1.00
C451   C     0.07440   0.22420   0.75037   0.01267  Uiso   1.00
C452   C     0.11510   0.28210   0.74183   0.01267  Uiso   1.00
C453   C     0.10510   0.31040   0.71582   0.01267  Uiso   1.00
C454   C     0.05650   0.27920   0.69877   0.01267  Uiso   1.00
C455   C     0.01420   0.22280   0.70916   0.01267  Uiso   1.00
C456   C     0.04510   0.30510   0.66920   0.01267  Uiso   1.00
C457   C     0.28690   0.91540   0.91566   0.01267  Uiso   1.00
C458   C     0.33580   0.84600   0.95679   0.01267  Uiso   1.00
C459   C     0.34310   0.90080   0.93735   0.01267  Uiso   1.00
C460   C     0.40370   0.94160   0.93895   0.01267  Uiso   1.00
C461   C     0.45270   0.93100   0.96006   0.01267  Uiso   1.00
C462   C     0.44090   0.87910   0.97926   0.01267  Uiso   1.00
C463   C     0.48890   0.86580   0.00286   0.01267  Uiso   1.00
C464   C     0.54780   0.90700   0.00848   0.01267  Uiso   1.00
C465   C     0.58560   0.89310   0.03172   0.01267  Uiso   1.00
C466   C     0.56500   0.83850   0.04899   0.01267  Uiso   1.00
C467   C     0.50720   0.79600   0.04121   0.01267  Uiso   1.00
C468   C     0.60530   0.82450   0.07580   0.01267  Uiso   1.00
C469   C     0.27130   0.57840   0.92690   0.01267  Uiso   1.00
C470   C     0.31950   0.65710   0.96470   0.01267  Uiso   1.00
C471   C     0.26020   0.62830   0.95170   0.01267  Uiso   1.00
C472   C     0.19450   0.65170   0.95940   0.01267  Uiso   1.00
C473   C     0.18670   0.69990   0.98116   0.01267  Uiso   1.00
C474   C     0.24840   0.72580   0.99447   0.01267  Uiso   1.00
C475   C     0.25080   0.77260   0.01793   0.01267  Uiso   1.00
C476   C     0.19170   0.79840   0.03160   0.01267  Uiso   1.00
C477   C     0.20090   0.84020   0.05520   0.01267  Uiso   1.00
C478   C     0.26950   0.85450   0.06420   0.01267  Uiso   1.00
C479   C     0.32590   0.82820   0.04866   0.01267  Uiso   1.00
C480   C     0.28500   0.89940   0.08937   0.01267  Uiso   1.00
C481   C     0.57610   0.74220   0.91363   0.01267  Uiso   1.00
C482   C     0.49110   0.73740   0.95356   0.01267  Uiso   1.00
C483   C     0.55070   0.70870   0.94008   0.01267  Uiso   1.00
C484   C     0.58790   0.65370   0.95239   0.01267  Uiso   1.00
C485   C     0.56360   0.62830   0.97743   0.01267  Uiso   1.00
C486   C     0.50510   0.65740   0.99014   0.01267  Uiso   1.00
C487   C     0.47090   0.63010   0.01514   0.01267  Uiso   1.00
C488   C     0.49470   0.57050   0.02903   0.01267  Uiso   1.00
C489   C     0.45550   0.54510   0.05081   0.01267  Uiso   1.00
C490   C     0.39330   0.57950   0.05804   0.01267  Uiso   1.00
C491   C     0.37470   0.64310   0.04420   0.01267  Uiso   1.00
C492   C     0.34500   0.55200   0.08076   0.01267  Uiso   1.00
C493   C     0.20010   0.01420   0.16213   0.01267  Uiso   1.00
C494   C     0.12820   0.96510   0.20131   0.01267  Uiso   1.00
C495   C     0.14980   0.02390   0.18619   0.01267  Uiso   1.00
C496   C     0.12440   0.08920   0.19440   0.01267  Uiso   1.00
C497   C     0.08220   0.09630   0.21767   0.01267  Uiso   1.00
C498   C     0.06470   0.03490   0.23205   0.01267  Uiso   1.00
C499   C     0.02170   0.03580   0.25731   0.01267  Uiso   1.00
C500   C     0.00370   0.09680   0.27178   0.01267  Uiso   1.00
C501   C     0.96520   0.09270   0.29624   0.01267  Uiso   1.00
C502   C     0.94370   0.02620   0.30499   0.01267  Uiso   1.00
C503   C     0.96230   0.96630   0.28953   0.01267  Uiso   1.00
C504   C     0.90080   0.01660   0.33068   0.01267  Uiso   1.00
C505   C     0.89710   0.81740   0.66364   0.01267  Uiso   1.00
C506   C     0.91380   0.72870   0.70170   0.01267  Uiso   1.00
C507   C     0.87990   0.78960   0.69142   0.01267  Uiso   1.00
C508   C     0.83190   0.82340   0.70871   0.01267  Uiso   1.00
C509   C     0.81790   0.79490   0.73459   0.01267  Uiso   1.00
C510   C     0.85290   0.73260   0.74328   0.01267  Uiso   1.00
C511   C     0.83890   0.69710   0.76957   0.01267  Uiso   1.00
C512   C     0.79180   0.72430   0.78853   0.01267  Uiso   1.00
C513   C     0.77740   0.68630   0.81170   0.01267  Uiso   1.00
C514   C     0.80940   0.61940   0.81542   0.01267  Uiso   1.00
C515   C     0.85870   0.59690   0.79612   0.01267  Uiso   1.00
C516   C     0.78830   0.57240   0.83907   0.01267  Uiso   1.00
C517   C     0.63950   0.94990   0.65658   0.01267  Uiso   1.00
C518   C     0.56170   0.91270   0.69696   0.01267  Uiso   1.00
C519   C     0.61590   0.89740   0.67883   0.01267  Uiso   1.00
C520   C     0.65310   0.83390   0.68252   0.01267  Uiso   1.00
C521   C     0.63840   0.79250   0.70447   0.01267  Uiso   1.00
C522   C     0.58620   0.81330   0.72304   0.01267  Uiso   1.00
C523   C     0.57440   0.77580   0.74963   0.01267  Uiso   1.00
C524   C     0.61510   0.71790   0.75817   0.01267  Uiso   1.00
C525   C     0.60510   0.68960   0.78418   0.01267  Uiso   1.00
C526   C     0.55650   0.72080   0.80123   0.01267  Uiso   1.00
C527   C     0.51420   0.77720   0.79084   0.01267  Uiso   1.00
C528   C     0.54510   0.69490   0.83080   0.01267  Uiso   1.00
C529   C     0.78690   0.08460   0.58434   0.01267  Uiso   1.00
C530   C     0.83580   0.15400   0.54321   0.01267  Uiso   1.00
C531   C     0.84310   0.09920   0.56265   0.01267  Uiso   1.00
C532   C     0.90370   0.05840   0.56105   0.01267  Uiso   1.00
C533   C     0.95270   0.06900   0.53994   0.01267  Uiso   1.00
C534   C     0.94090   0.12090   0.52074   0.01267  Uiso   1.00
C535   C     0.98890   0.13420   0.49714   0.01267  Uiso   1.00
C536   C     0.04780   0.09300   0.49152   0.01267  Uiso   1.00
C537   C     0.08560   0.10690   0.46828   0.01267  Uiso   1.00
C538   C     0.06500   0.16150   0.45101   0.01267  Uiso   1.00
C539   C     0.00720   0.20400   0.45879   0.01267  Uiso   1.00
C540   C     0.10530   0.17550   0.42420   0.01267  Uiso   1.00
C541   C     0.77130   0.42160   0.57310   0.01267  Uiso   1.00
C542   C     0.81950   0.34290   0.53530   0.01267  Uiso   1.00
C543   C     0.76020   0.37170   0.54830   0.01267  Uiso   1.00
C544   C     0.69450   0.34830   0.54060   0.01267  Uiso   1.00
C545   C     0.68670   0.30010   0.51884   0.01267  Uiso   1.00
C546   C     0.74840   0.27420   0.50553   0.01267  Uiso   1.00
C547   C     0.75080   0.22740   0.48207   0.01267  Uiso   1.00
C548   C     0.69170   0.20160   0.46840   0.01267  Uiso   1.00
C549   C     0.70090   0.15980   0.44480   0.01267  Uiso   1.00
C550   C     0.76950   0.14550   0.43580   0.01267  Uiso   1.00
C551   C     0.82590   0.17180   0.45134   0.01267  Uiso   1.00
C552   C     0.78500   0.10060   0.41063   0.01267  Uiso   1.00
C553   C     0.07610   0.25780   0.58637   0.01267  Uiso   1.00
C554   C     0.99110   0.26260   0.54644   0.01267  Uiso   1.00
C555   C     0.05070   0.29130   0.55992   0.01267  Uiso   1.00
C556   C     0.08790   0.34630   0.54761   0.01267  Uiso   1.00
C557   C     0.06360   0.37170   0.52257   0.01267  Uiso   1.00
C558   C     0.00510   0.34260   0.50986   0.01267  Uiso   1.00
C559   C     0.97090   0.36990   0.48486   0.01267  Uiso   1.00
C560   C     0.99470   0.42950   0.47097   0.01267  Uiso   1.00
C561   C     0.95550   0.45490   0.44919   0.01267  Uiso   1.00
C562   C     0.89330   0.42050   0.44196   0.01267  Uiso   1.00
C563   C     0.87470   0.35690   0.45580   0.01267  Uiso   1.00
C564   C     0.84500   0.44800   0.41924   0.01267  Uiso   1.00
C565   C     0.70010   0.98580   0.33787   0.01267  Uiso   1.00
C566   C     0.62820   0.03490   0.29869   0.01267  Uiso   1.00
C567   C     0.64980   0.97610   0.31381   0.01267  Uiso   1.00
C568   C     0.62440   0.91080   0.30560   0.01267  Uiso   1.00
C569   C     0.58220   0.90370   0.28233   0.01267  Uiso   1.00
C570   C     0.56470   0.96510   0.26795   0.01267  Uiso   1.00
C571   C     0.52170   0.96420   0.24269   0.01267  Uiso   1.00
C572   C     0.50370   0.90320   0.22822   0.01267  Uiso   1.00
C573   C     0.46520   0.90730   0.20376   0.01267  Uiso   1.00
C574   C     0.44370   0.97380   0.19501   0.01267  Uiso   1.00
C575   C     0.46230   0.03370   0.21047   0.01267  Uiso   1.00
C576   C     0.40080   0.98340   0.16932   0.01267  Uiso   1.00
N1     N     0.54560   0.37190   0.78163   0.01267  Uiso   1.00
N2     N     0.52240   0.30400   0.73421   0.01267  Uiso   1.00
N3     N     0.87480   0.13420   0.72640   0.01267  Uiso   1.00
N4     N     0.90170   0.20110   0.77340   0.01267  Uiso   1.00
N5     N     0.81430   0.79540   0.98523   0.01267  Uiso   1.00
N6     N     0.81800   0.71130   0.02657   0.01267  Uiso   1.00
N7     N     0.96830   0.78760   0.97792   0.01267  Uiso   1.00
N8     N     0.91280   0.83200   0.02368   0.01267  Uiso   1.00
N9     N     0.96980   0.69080   0.01838   0.01267  Uiso   1.00
N10    N     0.88290   0.66470   0.97753   0.01267  Uiso   1.00
N11    N     0.50180   0.52840   0.26675   0.01267  Uiso   1.00
N12    N     0.58590   0.53060   0.22339   0.01267  Uiso   1.00
N13    N     0.04560   0.62810   0.71837   0.01267  Uiso   1.00
N14    N     0.02240   0.69600   0.76579   0.01267  Uiso   1.00
N15    N     0.37480   0.86580   0.77360   0.01267  Uiso   1.00
N16    N     0.40170   0.79890   0.72660   0.01267  Uiso   1.00
N17    N     0.31430   0.20460   0.51477   0.01267  Uiso   1.00
N18    N     0.31800   0.28870   0.47343   0.01267  Uiso   1.00
N19    N     0.46830   0.21240   0.52208   0.01267  Uiso   1.00
N20    N     0.41280   0.16800   0.47632   0.01267  Uiso   1.00
N21    N     0.46980   0.30920   0.48162   0.01267  Uiso   1.00
N22    N     0.38290   0.33530   0.52247   0.01267  Uiso   1.00
N23    N     0.00180   0.47160   0.23325   0.01267  Uiso   1.00
N24    N     0.08590   0.46940   0.27661   0.01267  Uiso   1.00
N25    N     0.95440   0.87190   0.21837   0.01267  Uiso   1.00
N26    N     0.97760   0.80400   0.26579   0.01267  Uiso   1.00
N27    N     0.62520   0.63420   0.27360   0.01267  Uiso   1.00
N28    N     0.59830   0.70110   0.22660   0.01267  Uiso   1.00
N29    N     0.68570   0.29540   0.01477   0.01267  Uiso   1.00
N30    N     0.68200   0.21130   0.97343   0.01267  Uiso   1.00
N31    N     0.53170   0.28760   0.02208   0.01267  Uiso   1.00
N32    N     0.58720   0.33200   0.97632   0.01267  Uiso   1.00
N33    N     0.53020   0.19080   0.98162   0.01267  Uiso   1.00
N34    N     0.61710   0.16470   0.02247   0.01267  Uiso   1.00
N35    N     0.99820   0.02840   0.73325   0.01267  Uiso   1.00
N36    N     0.91410   0.03060   0.77661   0.01267  Uiso   1.00
N37    N     0.45440   0.12810   0.28163   0.01267  Uiso   1.00
N38    N     0.47760   0.19600   0.23421   0.01267  Uiso   1.00
N39    N     0.12520   0.36580   0.22640   0.01267  Uiso   1.00
N40    N     0.09830   0.29890   0.27340   0.01267  Uiso   1.00
N41    N     0.18570   0.70460   0.48523   0.01267  Uiso   1.00
N42    N     0.18200   0.78870   0.52657   0.01267  Uiso   1.00
N43    N     0.03170   0.71240   0.47792   0.01267  Uiso   1.00
N44    N     0.08720   0.66800   0.52368   0.01267  Uiso   1.00
N45    N     0.03020   0.80920   0.51838   0.01267  Uiso   1.00
N46    N     0.11710   0.83530   0.47753   0.01267  Uiso   1.00
N47    N     0.49820   0.97160   0.76675   0.01267  Uiso   1.00
N48    N     0.41410   0.96940   0.72339   0.01267  Uiso   1.00
N49    N     0.45440   0.62810   0.21837   0.01267  Uiso   1.00
N50    N     0.47760   0.69600   0.26579   0.01267  Uiso   1.00
N51    N     0.12520   0.86580   0.27360   0.01267  Uiso   1.00
N52    N     0.09830   0.79890   0.22660   0.01267  Uiso   1.00
N53    N     0.18570   0.20460   0.01477   0.01267  Uiso   1.00
N54    N     0.18200   0.28870   0.97343   0.01267  Uiso   1.00
N55    N     0.03170   0.21240   0.02208   0.01267  Uiso   1.00
N56    N     0.08720   0.16800   0.97632   0.01267  Uiso   1.00
N57    N     0.03020   0.30920   0.98162   0.01267  Uiso   1.00
N58    N     0.11710   0.33530   0.02247   0.01267  Uiso   1.00
N59    N     0.49820   0.47160   0.73325   0.01267  Uiso   1.00
N60    N     0.41410   0.46940   0.77661   0.01267  Uiso   1.00
N61    N     0.95440   0.37190   0.28163   0.01267  Uiso   1.00
N62    N     0.97760   0.30400   0.23421   0.01267  Uiso   1.00
N63    N     0.62520   0.13420   0.22640   0.01267  Uiso   1.00
N64    N     0.59830   0.20110   0.27340   0.01267  Uiso   1.00
N65    N     0.68570   0.79540   0.48523   0.01267  Uiso   1.00
N66    N     0.68200   0.71130   0.52657   0.01267  Uiso   1.00
N67    N     0.53170   0.78760   0.47792   0.01267  Uiso   1.00
N68    N     0.58720   0.83200   0.52368   0.01267  Uiso   1.00
N69    N     0.53020   0.69080   0.51838   0.01267  Uiso   1.00
N70    N     0.61710   0.66470   0.47753   0.01267  Uiso   1.00
N71    N     0.99820   0.52840   0.76675   0.01267  Uiso   1.00
N72    N     0.91410   0.53060   0.72339   0.01267  Uiso   1.00
N73    N     0.04560   0.12810   0.78163   0.01267  Uiso   1.00
N74    N     0.02240   0.19600   0.73421   0.01267  Uiso   1.00
N75    N     0.37480   0.36580   0.72640   0.01267  Uiso   1.00
N76    N     0.40170   0.29890   0.77340   0.01267  Uiso   1.00
N77    N     0.31430   0.70460   0.98523   0.01267  Uiso   1.00
N78    N     0.31800   0.78870   0.02657   0.01267  Uiso   1.00
N79    N     0.46830   0.71240   0.97792   0.01267  Uiso   1.00
N80    N     0.41280   0.66800   0.02368   0.01267  Uiso   1.00
N81    N     0.46980   0.80920   0.01838   0.01267  Uiso   1.00
N82    N     0.38290   0.83530   0.97753   0.01267  Uiso   1.00
N83    N     0.00180   0.97160   0.26675   0.01267  Uiso   1.00
N84    N     0.08590   0.96940   0.22339   0.01267  Uiso   1.00
N85    N     0.54560   0.87190   0.71837   0.01267  Uiso   1.00
N86    N     0.52240   0.80400   0.76579   0.01267  Uiso   1.00
N87    N     0.87480   0.63420   0.77360   0.01267  Uiso   1.00
N88    N     0.90170   0.70110   0.72660   0.01267  Uiso   1.00
N89    N     0.81430   0.29540   0.51477   0.01267  Uiso   1.00
N90    N     0.81800   0.21130   0.47343   0.01267  Uiso   1.00
N91    N     0.96830   0.28760   0.52208   0.01267  Uiso   1.00
N92    N     0.91280   0.33200   0.47632   0.01267  Uiso   1.00
N93    N     0.96980   0.19080   0.48162   0.01267  Uiso   1.00
N94    N     0.88290   0.16470   0.52247   0.01267  Uiso   1.00
N95    N     0.50180   0.02840   0.23325   0.01267  Uiso   1.00
N96    N     0.58590   0.03060   0.27661   0.01267  Uiso   1.00
O1     O     0.86060   0.36810   0.84484   0.01267  Uiso   1.00
O2     O     0.94590   0.28690   0.84915   0.01267  Uiso   1.00
O3     O     0.73600   0.09460   0.64668   0.01267  Uiso   1.00
O4     O     0.82290   0.01640   0.65640   0.01267  Uiso   1.00
O5     O     0.69610   0.43540   0.85562   0.01267  Uiso   1.00
O6     O     0.60060   0.50300   0.84807   0.01267  Uiso   1.00
O7     O     0.59310   0.15810   0.65911   0.01267  Uiso   1.00
O8     O     0.48950   0.21380   0.65745   0.01267  Uiso   1.00
O9     O     0.79690   0.52860   0.90256   0.01267  Uiso   1.00
O10    O     0.73400   0.62730   0.91242   0.01267  Uiso   1.00
O11    O     0.13620   0.62110   0.08552   0.01267  Uiso   1.00
O12    O     0.10650   0.73570   0.08524   0.01267  Uiso   1.00
O13    O     0.05780   0.69530   0.90937   0.01267  Uiso   1.00
O14    O     0.11330   0.79620   0.89789   0.01267  Uiso   1.00
O15    O     0.86520   0.00520   0.09188   0.01267  Uiso   1.00
O16    O     0.79120   0.91210   0.08709   0.01267  Uiso   1.00
O17    O     0.83540   0.94220   0.92409   0.01267  Uiso   1.00
O18    O     0.71600   0.94530   0.91735   0.01267  Uiso   1.00
O19    O     0.84780   0.58000   0.09349   0.01267  Uiso   1.00
O20    O     0.73360   0.58370   0.10451   0.01267  Uiso   1.00
O21    O     0.70320   0.43800   0.14419   0.01267  Uiso   1.00
O22    O     0.74000   0.53860   0.16171   0.01267  Uiso   1.00
O23    O     0.39200   0.43490   0.34764   0.01267  Uiso   1.00
O24    O     0.37450   0.54510   0.33485   0.01267  Uiso   1.00
O25    O     0.51530   0.58710   0.88883   0.01267  Uiso   1.00
O26    O     0.76140   0.30270   0.87938   0.01267  Uiso   1.00
O27    O     0.93140   0.47440   0.87812   0.01267  Uiso   1.00
O28    O     0.92830   0.45290   0.10617   0.01267  Uiso   1.00
O29    O     0.82330   0.35660   0.12693   0.01267  Uiso   1.00
O30    O     0.36060   0.63190   0.65516   0.01267  Uiso   1.00
O31    O     0.44590   0.71310   0.65085   0.01267  Uiso   1.00
O32    O     0.23600   0.90540   0.85332   0.01267  Uiso   1.00
O33    O     0.32290   0.98360   0.84360   0.01267  Uiso   1.00
O34    O     0.19610   0.56460   0.64438   0.01267  Uiso   1.00
O35    O     0.10060   0.49700   0.65193   0.01267  Uiso   1.00
O36    O     0.09310   0.84190   0.84089   0.01267  Uiso   1.00
O37    O     0.98950   0.78620   0.84255   0.01267  Uiso   1.00
O38    O     0.29690   0.47140   0.59744   0.01267  Uiso   1.00
O39    O     0.23400   0.37270   0.58758   0.01267  Uiso   1.00
O40    O     0.63620   0.37890   0.41448   0.01267  Uiso   1.00
O41    O     0.60650   0.26430   0.41476   0.01267  Uiso   1.00
O42    O     0.55780   0.30470   0.59063   0.01267  Uiso   1.00
O43    O     0.61330   0.20380   0.60211   0.01267  Uiso   1.00
O44    O     0.36520   0.99480   0.40812   0.01267  Uiso   1.00
O45    O     0.29120   0.08790   0.41291   0.01267  Uiso   1.00
O46    O     0.33540   0.05780   0.57591   0.01267  Uiso   1.00
O47    O     0.21600   0.05470   0.58265   0.01267  Uiso   1.00
O48    O     0.34780   0.42000   0.40651   0.01267  Uiso   1.00
O49    O     0.23360   0.41630   0.39549   0.01267  Uiso   1.00
O50    O     0.20320   0.56200   0.35581   0.01267  Uiso   1.00
O51    O     0.24000   0.46140   0.33829   0.01267  Uiso   1.00
O52    O     0.89200   0.56510   0.15236   0.01267  Uiso   1.00
O53    O     0.87450   0.45490   0.16515   0.01267  Uiso   1.00
O54    O     0.01530   0.41290   0.61117   0.01267  Uiso   1.00
O55    O     0.26140   0.69730   0.62062   0.01267  Uiso   1.00
O56    O     0.43140   0.52560   0.62188   0.01267  Uiso   1.00
O57    O     0.42830   0.54710   0.39383   0.01267  Uiso   1.00
O58    O     0.32330   0.64340   0.37307   0.01267  Uiso   1.00
O59    O     0.63940   0.86810   0.15516   0.01267  Uiso   1.00
O60    O     0.55410   0.78690   0.15085   0.01267  Uiso   1.00
O61    O     0.76400   0.59460   0.35332   0.01267  Uiso   1.00
O62    O     0.67710   0.51640   0.34360   0.01267  Uiso   1.00
O63    O     0.80390   0.93540   0.14438   0.01267  Uiso   1.00
O64    O     0.89940   0.00300   0.15193   0.01267  Uiso   1.00
O65    O     0.90690   0.65810   0.34089   0.01267  Uiso   1.00
O66    O     0.01050   0.71380   0.34255   0.01267  Uiso   1.00
O67    O     0.70310   0.02860   0.09744   0.01267  Uiso   1.00
O68    O     0.76600   0.12730   0.08758   0.01267  Uiso   1.00
O69    O     0.36380   0.12110   0.91448   0.01267  Uiso   1.00
O70    O     0.39350   0.23570   0.91476   0.01267  Uiso   1.00
O71    O     0.44220   0.19530   0.09063   0.01267  Uiso   1.00
O72    O     0.38670   0.29620   0.10211   0.01267  Uiso   1.00
O73    O     0.63480   0.50520   0.90812   0.01267  Uiso   1.00
O74    O     0.70880   0.41210   0.91291   0.01267  Uiso   1.00
O75    O     0.66460   0.44220   0.07591   0.01267  Uiso   1.00
O76    O     0.78400   0.44530   0.08265   0.01267  Uiso   1.00
O77    O     0.65220   0.08000   0.90651   0.01267  Uiso   1.00
O78    O     0.76640   0.08370   0.89549   0.01267  Uiso   1.00
O79    O     0.79680   0.93800   0.85581   0.01267  Uiso   1.00
O80    O     0.76000   0.03860   0.83829   0.01267  Uiso   1.00
O81    O     0.10800   0.93490   0.65236   0.01267  Uiso   1.00
O82    O     0.12550   0.04510   0.66515   0.01267  Uiso   1.00
O83    O     0.98470   0.08710   0.11117   0.01267  Uiso   1.00
O84    O     0.73860   0.80270   0.12062   0.01267  Uiso   1.00
O85    O     0.56860   0.97440   0.12188   0.01267  Uiso   1.00
O86    O     0.57170   0.95290   0.89383   0.01267  Uiso   1.00
O87    O     0.67670   0.85660   0.87307   0.01267  Uiso   1.00
O88    O     0.13940   0.13190   0.34484   0.01267  Uiso   1.00
O89    O     0.05410   0.21310   0.34915   0.01267  Uiso   1.00
O90    O     0.26400   0.40540   0.14668   0.01267  Uiso   1.00
O91    O     0.17710   0.48360   0.15640   0.01267  Uiso   1.00
O92    O     0.30390   0.06460   0.35562   0.01267  Uiso   1.00
O93    O     0.39940   0.99700   0.34807   0.01267  Uiso   1.00
O94    O     0.40690   0.34190   0.15911   0.01267  Uiso   1.00
O95    O     0.51050   0.28620   0.15745   0.01267  Uiso   1.00
O96    O     0.20310   0.97140   0.40256   0.01267  Uiso   1.00
O97    O     0.26600   0.87270   0.41242   0.01267  Uiso   1.00
O98    O     0.86380   0.87890   0.58552   0.01267  Uiso   1.00
O99    O     0.89350   0.76430   0.58524   0.01267  Uiso   1.00
O100   O     0.94220   0.80470   0.40937   0.01267  Uiso   1.00
O101   O     0.88670   0.70380   0.39789   0.01267  Uiso   1.00
O102   O     0.13480   0.49480   0.59188   0.01267  Uiso   1.00
O103   O     0.20880   0.58790   0.58709   0.01267  Uiso   1.00
O104   O     0.16460   0.55780   0.42409   0.01267  Uiso   1.00
O105   O     0.28400   0.55470   0.41735   0.01267  Uiso   1.00
O106   O     0.15220   0.92000   0.59349   0.01267  Uiso   1.00
O107   O     0.26640   0.91630   0.60451   0.01267  Uiso   1.00
O108   O     0.29680   0.06200   0.64419   0.01267  Uiso   1.00
O109   O     0.26000   0.96140   0.66171   0.01267  Uiso   1.00
O110   O     0.60800   0.06510   0.84764   0.01267  Uiso   1.00
O111   O     0.62550   0.95490   0.83485   0.01267  Uiso   1.00
O112   O     0.48470   0.91290   0.38883   0.01267  Uiso   1.00
O113   O     0.23860   0.19730   0.37938   0.01267  Uiso   1.00
O114   O     0.06860   0.02560   0.37812   0.01267  Uiso   1.00
O115   O     0.07170   0.04710   0.60617   0.01267  Uiso   1.00
O116   O     0.17670   0.14340   0.62693   0.01267  Uiso   1.00
O117   O     0.13940   0.63190   0.15516   0.01267  Uiso   1.00
O118   O     0.05410   0.71310   0.15085   0.01267  Uiso   1.00
O119   O     0.26400   0.90540   0.35332   0.01267  Uiso   1.00
O120   O     0.17710   0.98360   0.34360   0.01267  Uiso   1.00
O121   O     0.30390   0.56460   0.14438   0.01267  Uiso   1.00
O122   O     0.39940   0.49700   0.15193   0.01267  Uiso   1.00
O123   O     0.40690   0.84190   0.34089   0.01267  Uiso   1.00
O124   O     0.51050   0.78620   0.34255   0.01267  Uiso   1.00
O125   O     0.20310   0.47140   0.09744   0.01267  Uiso   1.00
O126   O     0.26600   0.37270   0.08758   0.01267  Uiso   1.00
O127   O     0.86380   0.37890   0.91448   0.01267  Uiso   1.00
O128   O     0.89350   0.26430   0.91476   0.01267  Uiso   1.00
O129   O     0.94220   0.30470   0.09063   0.01267  Uiso   1.00
O130   O     0.88670   0.20380   0.10211   0.01267  Uiso   1.00
O131   O     0.13480   0.99480   0.90812   0.01267  Uiso   1.00
O132   O     0.20880   0.08790   0.91291   0.01267  Uiso   1.00
O133   O     0.16460   0.05780   0.07591   0.01267  Uiso   1.00
O134   O     0.28400   0.05470   0.08265   0.01267  Uiso   1.00
O135   O     0.15220   0.42000   0.90651   0.01267  Uiso   1.00
O136   O     0.26640   0.41630   0.89549   0.01267  Uiso   1.00
O137   O     0.29680   0.56200   0.85581   0.01267  Uiso   1.00
O138   O     0.26000   0.46140   0.83829   0.01267  Uiso   1.00
O139   O     0.60800   0.56510   0.65236   0.01267  Uiso   1.00
O140   O     0.62550   0.45490   0.66515   0.01267  Uiso   1.00
O141   O     0.48470   0.41290   0.11117   0.01267  Uiso   1.00
O142   O     0.23860   0.69730   0.12062   0.01267  Uiso   1.00
O143   O     0.06860   0.52560   0.12188   0.01267  Uiso   1.00
O144   O     0.07170   0.54710   0.89383   0.01267  Uiso   1.00
O145   O     0.17670   0.64340   0.87307   0.01267  Uiso   1.00
O146   O     0.63940   0.36810   0.34484   0.01267  Uiso   1.00
O147   O     0.55410   0.28690   0.34915   0.01267  Uiso   1.00
O148   O     0.76400   0.09460   0.14668   0.01267  Uiso   1.00
O149   O     0.67710   0.01640   0.15640   0.01267  Uiso   1.00
O150   O     0.80390   0.43540   0.35562   0.01267  Uiso   1.00
O151   O     0.89940   0.50300   0.34807   0.01267  Uiso   1.00
O152   O     0.90690   0.15810   0.15911   0.01267  Uiso   1.00
O153   O     0.01050   0.21380   0.15745   0.01267  Uiso   1.00
O154   O     0.70310   0.52860   0.40256   0.01267  Uiso   1.00
O155   O     0.76600   0.62730   0.41242   0.01267  Uiso   1.00
O156   O     0.36380   0.62110   0.58552   0.01267  Uiso   1.00
O157   O     0.39350   0.73570   0.58524   0.01267  Uiso   1.00
O158   O     0.44220   0.69530   0.40937   0.01267  Uiso   1.00
O159   O     0.38670   0.79620   0.39789   0.01267  Uiso   1.00
O160   O     0.63480   0.00520   0.59188   0.01267  Uiso   1.00
O161   O     0.70880   0.91210   0.58709   0.01267  Uiso   1.00
O162   O     0.66460   0.94220   0.42409   0.01267  Uiso   1.00
O163   O     0.78400   0.94530   0.41735   0.01267  Uiso   1.00
O164   O     0.65220   0.58000   0.59349   0.01267  Uiso   1.00
O165   O     0.76640   0.58370   0.60451   0.01267  Uiso   1.00
O166   O     0.79680   0.43800   0.64419   0.01267  Uiso   1.00
O167   O     0.76000   0.53860   0.66171   0.01267  Uiso   1.00
O168   O     0.10800   0.43490   0.84764   0.01267  Uiso   1.00
O169   O     0.12550   0.54510   0.83485   0.01267  Uiso   1.00
O170   O     0.98470   0.58710   0.38883   0.01267  Uiso   1.00
O171   O     0.73860   0.30270   0.37938   0.01267  Uiso   1.00
O172   O     0.56860   0.47440   0.37812   0.01267  Uiso   1.00
O173   O     0.57170   0.45290   0.60617   0.01267  Uiso   1.00
O174   O     0.67670   0.35660   0.62693   0.01267  Uiso   1.00
O175   O     0.36060   0.13190   0.84484   0.01267  Uiso   1.00
O176   O     0.44590   0.21310   0.84915   0.01267  Uiso   1.00
O177   O     0.23600   0.40540   0.64668   0.01267  Uiso   1.00
O178   O     0.32290   0.48360   0.65640   0.01267  Uiso   1.00
O179   O     0.19610   0.06460   0.85562   0.01267  Uiso   1.00
O180   O     0.10060   0.99700   0.84807   0.01267  Uiso   1.00
O181   O     0.09310   0.34190   0.65911   0.01267  Uiso   1.00
O182   O     0.98950   0.28620   0.65745   0.01267  Uiso   1.00
O183   O     0.29690   0.97140   0.90256   0.01267  Uiso   1.00
O184   O     0.23400   0.87270   0.91242   0.01267  Uiso   1.00
O185   O     0.63620   0.87890   0.08552   0.01267  Uiso   1.00
O186   O     0.60650   0.76430   0.08524   0.01267  Uiso   1.00
O187   O     0.55780   0.80470   0.90937   0.01267  Uiso   1.00
O188   O     0.61330   0.70380   0.89789   0.01267  Uiso   1.00
O189   O     0.36520   0.49480   0.09188   0.01267  Uiso   1.00
O190   O     0.29120   0.58790   0.08709   0.01267  Uiso   1.00
O191   O     0.33540   0.55780   0.92409   0.01267  Uiso   1.00
O192   O     0.21600   0.55470   0.91735   0.01267  Uiso   1.00
O193   O     0.34780   0.92000   0.09349   0.01267  Uiso   1.00
O194   O     0.23360   0.91630   0.10451   0.01267  Uiso   1.00
O195   O     0.20320   0.06200   0.14419   0.01267  Uiso   1.00
O196   O     0.24000   0.96140   0.16171   0.01267  Uiso   1.00
O197   O     0.89200   0.06510   0.34764   0.01267  Uiso   1.00
O198   O     0.87450   0.95490   0.33485   0.01267  Uiso   1.00
O199   O     0.01530   0.91290   0.88883   0.01267  Uiso   1.00
O200   O     0.26140   0.19730   0.87938   0.01267  Uiso   1.00
O201   O     0.43140   0.02560   0.87812   0.01267  Uiso   1.00
O202   O     0.42830   0.04710   0.10617   0.01267  Uiso   1.00
O203   O     0.32330   0.14340   0.12693   0.01267  Uiso   1.00
O204   O     0.86060   0.86810   0.65516   0.01267  Uiso   1.00
O205   O     0.94590   0.78690   0.65085   0.01267  Uiso   1.00
O206   O     0.73600   0.59460   0.85332   0.01267  Uiso   1.00
O207   O     0.82290   0.51640   0.84360   0.01267  Uiso   1.00
O208   O     0.69610   0.93540   0.64438   0.01267  Uiso   1.00
O209   O     0.60060   0.00300   0.65193   0.01267  Uiso   1.00
O210   O     0.59310   0.65810   0.84089   0.01267  Uiso   1.00
O211   O     0.48950   0.71380   0.84255   0.01267  Uiso   1.00
O212   O     0.79690   0.02860   0.59744   0.01267  Uiso   1.00
O213   O     0.73400   0.12730   0.58758   0.01267  Uiso   1.00
O214   O     0.13620   0.12110   0.41448   0.01267  Uiso   1.00
O215   O     0.10650   0.23570   0.41476   0.01267  Uiso   1.00
O216   O     0.05780   0.19530   0.59063   0.01267  Uiso   1.00
O217   O     0.11330   0.29620   0.60211   0.01267  Uiso   1.00
O218   O     0.86520   0.50520   0.40812   0.01267  Uiso   1.00
O219   O     0.79120   0.41210   0.41291   0.01267  Uiso   1.00
O220   O     0.83540   0.44220   0.57591   0.01267  Uiso   1.00
O221   O     0.71600   0.44530   0.58265   0.01267  Uiso   1.00
O222   O     0.84780   0.08000   0.40651   0.01267  Uiso   1.00
O223   O     0.73360   0.08370   0.39549   0.01267  Uiso   1.00
O224   O     0.70320   0.93800   0.35581   0.01267  Uiso   1.00
O225   O     0.74000   0.03860   0.33829   0.01267  Uiso   1.00
O226   O     0.39200   0.93490   0.15236   0.01267  Uiso   1.00
O227   O     0.37450   0.04510   0.16515   0.01267  Uiso   1.00
O228   O     0.51530   0.08710   0.61117   0.01267  Uiso   1.00
O229   O     0.76140   0.80270   0.62062   0.01267  Uiso   1.00
O230   O     0.93140   0.97440   0.62188   0.01267  Uiso   1.00
O231   O     0.92830   0.95290   0.39383   0.01267  Uiso   1.00
O232   O     0.82330   0.85660   0.37307   0.01267  Uiso   1.00
Cl1    Cl    0.72515   0.50570   0.99342   0.01267  Uiso   1.00
O233   O     0.77570   0.53980   0.00910   0.01267  Uiso   1.00
O234   O     0.75190   0.43920   0.98543   0.01267  Uiso   1.00
O235   O     0.71060   0.54740   0.96971   0.01267  Uiso   1.00
O236   O     0.65940   0.49440   0.00791   0.01267  Uiso   1.00
Cl2    Cl    0.78730   0.49830   0.26075   0.01267  Uiso   1.00
O237   O     0.80810   0.42320   0.25290   0.01267  Uiso   1.00
O238   O     0.71910   0.46560   0.25980   0.01267  Uiso   1.00
O239   O     0.73150   0.51430   0.24240   0.01267  Uiso   1.00
O240   O     0.85260   0.53640   0.25960   0.01267  Uiso   1.00
Cl3    Cl    0.22515   0.49430   0.50658   0.01267  Uiso   1.00
O241   O     0.27570   0.46020   0.49090   0.01267  Uiso   1.00
O242   O     0.25190   0.56080   0.51457   0.01267  Uiso   1.00
O243   O     0.21060   0.45260   0.53029   0.01267  Uiso   1.00
O244   O     0.15940   0.50560   0.49209   0.01267  Uiso   1.00
Cl4    Cl    0.28730   0.50170   0.23925   0.01267  Uiso   1.00
O245   O     0.30810   0.57680   0.24710   0.01267  Uiso   1.00
O246   O     0.21910   0.53440   0.24020   0.01267  Uiso   1.00
O247   O     0.23150   0.48570   0.25760   0.01267  Uiso   1.00
O248   O     0.35260   0.46360   0.24040   0.01267  Uiso   1.00
Cl5    Cl    0.77485   0.00570   0.00658   0.01267  Uiso   1.00
O249   O     0.72430   0.03980   0.99090   0.01267  Uiso   1.00
O250   O     0.74810   0.93920   0.01457   0.01267  Uiso   1.00
O251   O     0.78940   0.04740   0.03029   0.01267  Uiso   1.00
O252   O     0.84060   0.99440   0.99209   0.01267  Uiso   1.00
Cl6    Cl    0.71270   0.99830   0.73925   0.01267  Uiso   1.00
O253   O     0.69190   0.92320   0.74710   0.01267  Uiso   1.00
O254   O     0.78090   0.96560   0.74020   0.01267  Uiso   1.00
O255   O     0.76850   0.01430   0.75760   0.01267  Uiso   1.00
O256   O     0.64740   0.03640   0.74040   0.01267  Uiso   1.00
Cl7    Cl    0.27485   0.99430   0.49342   0.01267  Uiso   1.00
O257   O     0.22430   0.96020   0.50910   0.01267  Uiso   1.00
O258   O     0.24810   0.06080   0.48543   0.01267  Uiso   1.00
O259   O     0.28940   0.95260   0.46971   0.01267  Uiso   1.00
O260   O     0.34060   0.00560   0.50791   0.01267  Uiso   1.00
Cl8    Cl    0.21270   0.00170   0.76075   0.01267  Uiso   1.00
O261   O     0.19190   0.07680   0.75290   0.01267  Uiso   1.00
O262   O     0.28090   0.03440   0.75980   0.01267  Uiso   1.00
O263   O     0.26850   0.98570   0.74240   0.01267  Uiso   1.00
O264   O     0.14740   0.96360   0.75960   0.01267  Uiso   1.00
Cl9    Cl    0.27485   0.49430   0.00658   0.01267  Uiso   1.00
O265   O     0.22430   0.46020   0.99090   0.01267  Uiso   1.00
O266   O     0.24810   0.56080   0.01457   0.01267  Uiso   1.00
O267   O     0.28940   0.45260   0.03029   0.01267  Uiso   1.00
O268   O     0.34060   0.50560   0.99209   0.01267  Uiso   1.00
Cl10   Cl    0.21270   0.50170   0.73925   0.01267  Uiso   1.00
O269   O     0.19190   0.57680   0.74710   0.01267  Uiso   1.00
O270   O     0.28090   0.53440   0.74020   0.01267  Uiso   1.00
O271   O     0.26850   0.48570   0.75760   0.01267  Uiso   1.00
O272   O     0.14740   0.46360   0.74040   0.01267  Uiso   1.00
Cl11   Cl    0.77485   0.50570   0.49342   0.01267  Uiso   1.00
O273   O     0.72430   0.53980   0.50910   0.01267  Uiso   1.00
O274   O     0.74810   0.43920   0.48543   0.01267  Uiso   1.00
O275   O     0.78940   0.54740   0.46971   0.01267  Uiso   1.00
O276   O     0.84060   0.49440   0.50791   0.01267  Uiso   1.00
Cl12   Cl    0.71270   0.49830   0.76075   0.01267  Uiso   1.00
O277   O     0.69190   0.42320   0.75290   0.01267  Uiso   1.00
O278   O     0.78090   0.46560   0.75980   0.01267  Uiso   1.00
O279   O     0.76850   0.51430   0.74240   0.01267  Uiso   1.00
O280   O     0.64740   0.53640   0.75960   0.01267  Uiso   1.00
Cl13   Cl    0.22515   0.99430   0.99342   0.01267  Uiso   1.00
O281   O     0.27570   0.96020   0.00910   0.01267  Uiso   1.00
O282   O     0.25190   0.06080   0.98543   0.01267  Uiso   1.00
O283   O     0.21060   0.95260   0.96971   0.01267  Uiso   1.00
O284   O     0.15940   0.00560   0.00791   0.01267  Uiso   1.00
Cl14   Cl    0.28730   0.00170   0.26075   0.01267  Uiso   1.00
O285   O     0.30810   0.07680   0.25290   0.01267  Uiso   1.00
O286   O     0.21910   0.03440   0.25980   0.01267  Uiso   1.00
O287   O     0.23150   0.98570   0.24240   0.01267  Uiso   1.00
O288   O     0.35260   0.96360   0.25960   0.01267  Uiso   1.00
Cl15   Cl    0.72515   0.00570   0.50658   0.01267  Uiso   1.00
O289   O     0.77570   0.03980   0.49090   0.01267  Uiso   1.00
O290   O     0.75190   0.93920   0.51457   0.01267  Uiso   1.00
O291   O     0.71060   0.04740   0.53029   0.01267  Uiso   1.00
O292   O     0.65940   0.99440   0.49209   0.01267  Uiso   1.00
Cl16   Cl    0.78730   0.99830   0.23925   0.01267  Uiso   1.00
O293   O     0.80810   0.92320   0.24710   0.01267  Uiso   1.00
O294   O     0.71910   0.96560   0.24020   0.01267  Uiso   1.00
O295   O     0.73150   0.01430   0.25760   0.01267  Uiso   1.00
O296   O     0.85260   0.03640   0.24040   0.01267  Uiso   1.00
