data_image0
_cell_length_a       49.3489
_cell_length_b       18.528
_cell_length_c       18.4705
_cell_angle_alpha    90
_cell_angle_beta     90
_cell_angle_gamma    90

_symmetry_space_group_name_H-M    "P 1"
_symmetry_int_tables_number       1

loop_
  _symmetry_equiv_pos_as_xyz
  'x, y, z'

loop_
  _atom_site_label
  _atom_site_occupancy
  _atom_site_fract_x
  _atom_site_fract_y
  _atom_site_fract_z
  _atom_site_thermal_displace_type
  _atom_site_B_iso_or_equiv
  _atom_site_type_symbol
  Eu1      1.0000 0.12131  0.58068  0.69833  Biso   1.000  Eu
  Eu2      1.0000 0.87778  0.60114  0.14371  Biso   1.000  Eu
  Eu3      1.0000 0.12434  0.47843  0.29880  Biso   1.000  Eu
  Co1      1.0000 0.24658  0.61658  0.03495  Biso   1.000  Co
  Co2      1.0000 0.00235  0.75185  0.88617  Biso   1.000  Co
  O1       1.0000 0.89987  0.71080  0.11630  Biso   1.000  O
  O2       1.0000 0.91065  0.80820  0.05070  Biso   1.000  O
  O3       1.0000 0.09297  0.49420  0.87040  Biso   1.000  O
  O4       1.0000 0.08848  0.58940  0.79500  Biso   1.000  O
  O5       1.0000 0.08689  0.41350  0.20690  Biso   1.000  O
  O6       1.0000 0.07714  0.44620  0.31650  Biso   1.000  O
  O7       1.0000 0.90346  0.08550  0.16360  Biso   1.000  O
  O8       1.0000 0.90019  0.06780  0.28140  Biso   1.000  O
  O9       1.0000 0.08693  0.75340  0.58610  Biso   1.000  O
  O10      1.0000 0.08655  0.64680  0.64170  Biso   1.000  O
  O11      1.0000 0.91399  0.62520  0.23790  Biso   1.000  O
  O12      1.0000 0.90441  0.52510  0.29930  Biso   1.000  O
  O13      1.0000 0.14782  0.43450  0.19340  Biso   1.000  O
  O14      1.0000 0.15962  0.54480  0.22230  Biso   1.000  O
  O15      1.0000 0.34731  0.44310  0.88100  Biso   1.000  O
  O16      1.0000 0.33151  0.55070  0.85000  Biso   1.000  O
  O17      1.0000 0.15441  0.48910  0.89990  Biso   1.000  O
  O18      1.0000 0.14546  0.55780  0.80380  Biso   1.000  O
  O19      1.0000 0.33889  0.80670  0.01140  Biso   1.000  O
  O20      1.0000 0.33978  0.83120  0.89460  Biso   1.000  O
  O21      1.0000 0.14615  0.40640  0.75370  Biso   1.000  O
  O22      1.0000 0.15701  0.48850  0.66870  Biso   1.000  O
  O23      1.0000 0.34621  0.14520  0.63500  Biso   1.000  O
  O24      1.0000 0.34463  0.20990  0.53270  Biso   1.000  O
  O25      1.0000 0.11545  0.53750  0.57070  Biso   1.000  O
  H1       1.0000 0.10580  0.57550  0.56540  Biso   1.000  H
  H2       1.0000 0.13200  0.54990  0.56570  Biso   1.000  H
  O26      1.0000 0.11432  0.44440  0.42550  Biso   1.000  O
  H3       1.0000 0.09860  0.43260  0.43980  Biso   1.000  H
  H4       1.0000 0.11600  0.43040  0.38190  Biso   1.000  H
  N1       1.0000 0.97731  0.71000  0.96270  Biso   1.000  N
  N2       1.0000 0.02292  0.66440  0.90840  Biso   1.000  N
  N3       1.0000 0.01436  0.29260  0.19730  Biso   1.000  N
  N4       1.0000 0.97271  0.21020  0.18970  Biso   1.000  N
  N5       1.0000 0.01944  0.69460  0.46550  Biso   1.000  N
  N6       1.0000 0.97867  0.66330  0.38090  Biso   1.000  N
  N7       1.0000 0.22597  0.53380  0.07970  Biso   1.000  N
  N8       1.0000 0.26748  0.53470  0.99270  Biso   1.000  N
  N9       1.0000 0.21981  0.62430  0.95010  Biso   1.000  N
  N10      1.0000 0.26543  0.69600  0.97450  Biso   1.000  N
  N11      1.0000 0.22672  0.36860  0.61770  Biso   1.000  N
  N12      1.0000 0.27261  0.30310  0.58950  Biso   1.000  N
  C1       1.0000 0.91470  0.74580  0.07360  Biso   1.000  C
  C2       1.0000 0.95334  0.73590  0.98650  Biso   1.000  C
  H5       1.0000 0.94520  0.77330  0.96090  Biso   1.000  H
  C3       1.0000 0.94040  0.70890  0.04760  Biso   1.000  C
  C4       1.0000 0.95208  0.65160  0.08440  Biso   1.000  C
  H6       1.0000 0.94360  0.63200  0.12480  Biso   1.000  H
  C5       1.0000 0.97670  0.62390  0.06020  Biso   1.000  C
  H7       1.0000 0.98490  0.58590  0.08450  Biso   1.000  H
  C6       1.0000 0.98878  0.65370  0.99930  Biso   1.000  C
  C7       1.0000 0.01409  0.62860  0.96850  Biso   1.000  C
  C8       1.0000 0.02916  0.57090  0.99580  Biso   1.000  C
  H8       1.0000 0.02400  0.54870  0.03880  Biso   1.000  H
  C9       1.0000 0.05155  0.54700  0.95940  Biso   1.000  C
  H9       1.0000 0.06170  0.50890  0.97760  Biso   1.000  H
  C10      1.0000 0.05893  0.58020  0.89510  Biso   1.000  C
  C11      1.0000 0.04457  0.64050  0.87190  Biso   1.000  C
  H10      1.0000 0.05010  0.66460  0.83020  Biso   1.000  H
  C12      1.0000 0.08246  0.55300  0.84890  Biso   1.000  C
  C13      1.0000 0.07220  0.41160  0.25980  Biso   1.000  C
  C14      1.0000 0.03600  0.33880  0.19610  Biso   1.000  C
  H11      1.0000 0.04290  0.35360  0.15180  Biso   1.000  H
  C15      1.0000 0.04780  0.36410  0.25940  Biso   1.000  C
  C16      1.0000 0.03820  0.34160  0.32440  Biso   1.000  C
  H12      1.0000 0.04610  0.35750  0.36710  Biso   1.000  H
  C17      1.0000 0.01620  0.29440  0.32660  Biso   1.000  C
  H13      1.0000 0.00930  0.27830  0.37050  Biso   1.000  H
  C18      1.0000 0.00500  0.27210  0.26140  Biso   1.000  C
  C19      1.0000 0.98110  0.22340  0.25760  Biso   1.000  C
  C20      1.0000 0.96850  0.19500  0.31690  Biso   1.000  C
  H14      1.0000 0.97540  0.20350  0.36310  Biso   1.000  H
  C21      1.0000 0.94530  0.15300  0.30780  Biso   1.000  C
  H15      1.0000 0.93640  0.13330  0.34750  Biso   1.000  H
  C22      1.0000 0.93600  0.14160  0.23940  Biso   1.000  C
  C23      1.0000 0.95060  0.16990  0.18120  Biso   1.000  C
  H16      1.0000 0.94460  0.16020  0.13450  Biso   1.000  H
  C24      1.0000 0.91110  0.09670  0.22620  Biso   1.000  C
  C25      1.0000 0.07770  0.69370  0.59940  Biso   1.000  C
  C26      1.0000 0.04210  0.71110  0.50010  Biso   1.000  C
  H17      1.0000 0.05250  0.74970  0.48350  Biso   1.000  H
  C27      1.0000 0.05120  0.67250  0.56100  Biso   1.000  C
  C28      1.0000 0.03539  0.61550  0.58430  Biso   1.000  C
  H18      1.0000 0.04070  0.58890  0.62470  Biso   1.000  H
  C29      1.0000 0.01160  0.59740  0.54780  Biso   1.000  C
  H19      1.0000 0.00070  0.55980  0.56410  Biso   1.000  H
  C30      1.0000 0.00457  0.63680  0.48660  Biso   1.000  C
  C31      1.0000 0.98113  0.62040  0.43940  Biso   1.000  C
  C32      1.0000 0.96270  0.56760  0.45420  Biso   1.000  C
  H20      1.0000 0.96440  0.54010  0.49610  Biso   1.000  H
  C33      1.0000 0.94136  0.55480  0.40650  Biso   1.000  C
  H21      1.0000 0.92850  0.51960  0.41650  Biso   1.000  H
  C34      1.0000 0.93978  0.59610  0.34330  Biso   1.000  C
  C35      1.0000 0.95895  0.65010  0.33310  Biso   1.000  C
  H22      1.0000 0.95800  0.67820  0.29140  Biso   1.000  H
  C36      1.0000 0.91790  0.58160  0.28830  Biso   1.000  C
  C37      1.0000 0.16360  0.48760  0.18750  Biso   1.000  C
  C38      1.0000 0.20380  0.53800  0.12160  Biso   1.000  C
  H23      1.0000 0.19850  0.58330  0.13790  Biso   1.000  H
  C39      1.0000 0.18860  0.47930  0.14180  Biso   1.000  C
  C40      1.0000 0.19690  0.41100  0.11980  Biso   1.000  C
  H24      1.0000 0.18700  0.37010  0.13230  Biso   1.000  H
  C41      1.0000 0.22070  0.40570  0.07810  Biso   1.000  C
  H25      1.0000 0.22680  0.36070  0.06270  Biso   1.000  H
  C42      1.0000 0.23480  0.46660  0.06010  Biso   1.000  C
  C43      1.0000 0.25960  0.46720  0.01520  Biso   1.000  C
  C44      1.0000 0.27390  0.40640  0.99680  Biso   1.000  C
  H26      1.0000 0.26790  0.36130  0.01210  Biso   1.000  H
  C45      1.0000 0.29740  0.41210  0.95550  Biso   1.000  C
  H27      1.0000 0.30790  0.37170  0.94530  Biso   1.000  H
  C46      1.0000 0.30450  0.47820  0.93030  Biso   1.000  C
  C47      1.0000 0.28960  0.53880  0.95050  Biso   1.000  C
  H28      1.0000 0.29530  0.58380  0.93420  Biso   1.000  H
  C48      1.0000 0.32940  0.49150  0.88330  Biso   1.000  C
  C49      1.0000 0.15790  0.54330  0.86140  Biso   1.000  C
  C50      1.0000 0.19928  0.58090  0.93630  Biso   1.000  C
  H29      1.0000 0.19740  0.53870  0.96330  Biso   1.000  H
  C51      1.0000 0.17981  0.59650  0.88140  Biso   1.000  C
  C52      1.0000 0.18247  0.66110  0.84490  Biso   1.000  C
  H30      1.0000 0.16970  0.67440  0.81050  Biso   1.000  H
  C53      1.0000 0.20422  0.70600  0.85970  Biso   1.000  C
  H31      1.0000 0.20590  0.75010  0.83600  Biso   1.000  H
  C54      1.0000 0.22368  0.68450  0.91030  Biso   1.000  C
  C55      1.0000 0.24890  0.72330  0.92290  Biso   1.000  C
  C56      1.0000 0.25670  0.78360  0.88070  Biso   1.000  C
  H32      1.0000 0.24480  0.80430  0.84780  Biso   1.000  H
  C57      1.0000 0.28238  0.81070  0.88960  Biso   1.000  C
  H33      1.0000 0.28820  0.84900  0.86100  Biso   1.000  H
  C58      1.0000 0.29990  0.78060  0.94200  Biso   1.000  C
  C59      1.0000 0.29010  0.72360  0.98350  Biso   1.000  C
  H34      1.0000 0.30130  0.70400  0.01900  Biso   1.000  H
  C60      1.0000 0.32840  0.80790  0.94960  Biso   1.000  C
  C61      1.0000 0.16090  0.43150  0.70290  Biso   1.000  C
  C62      1.0000 0.20430  0.40690  0.63300  Biso   1.000  C
  H35      1.0000 0.20150  0.45020  0.60860  Biso   1.000  H
  C63      1.0000 0.18520  0.38500  0.68340  Biso   1.000  C
  C64      1.0000 0.18850  0.31980  0.71730  Biso   1.000  C
  H36      1.0000 0.17530  0.30290  0.74890  Biso   1.000  H
  C65      1.0000 0.21160  0.27900  0.70430  Biso   1.000  C
  H37      1.0000 0.21440  0.23520  0.72770  Biso   1.000  H
  C66      1.0000 0.23050  0.30590  0.65490  Biso   1.000  C
  C67      1.0000 0.25690  0.27100  0.64080  Biso   1.000  C
  C68      1.0000 0.26620  0.20920  0.67820  Biso   1.000  C
  H38      1.0000 0.25520  0.18700  0.71240  Biso   1.000  H
  C69      1.0000 0.29130  0.18240  0.66370  Biso   1.000  C
  H39      1.0000 0.29760  0.14200  0.68830  Biso   1.000  H
  C70      1.0000 0.30720  0.21540  0.61260  Biso   1.000  C
  C71      1.0000 0.29740  0.27650  0.57670  Biso   1.000  C
  H40      1.0000 0.30850  0.29940  0.54300  Biso   1.000  H
  C72      1.0000 0.33530  0.18770  0.59090  Biso   1.000  C
  Eu4      1.0000 0.37869  0.41932  0.19833  Biso   1.000  Eu
  Eu5      1.0000 0.62222  0.39886  0.64371  Biso   1.000  Eu
  Eu6      1.0000 0.37566  0.52157  0.79880  Biso   1.000  Eu
  Co3      1.0000 0.25342  0.38342  0.53495  Biso   1.000  Co
  Co4      1.0000 0.49765  0.24815  0.38617  Biso   1.000  Co
  O27      1.0000 0.60013  0.28920  0.61630  Biso   1.000  O
  O28      1.0000 0.58935  0.19180  0.55070  Biso   1.000  O
  O29      1.0000 0.40703  0.50580  0.37040  Biso   1.000  O
  O30      1.0000 0.41152  0.41060  0.29500  Biso   1.000  O
  O31      1.0000 0.41311  0.58650  0.70690  Biso   1.000  O
  O32      1.0000 0.42286  0.55380  0.81650  Biso   1.000  O
  O33      1.0000 0.59654  0.91450  0.66360  Biso   1.000  O
  O34      1.0000 0.59981  0.93220  0.78140  Biso   1.000  O
  O35      1.0000 0.41307  0.24660  0.08610  Biso   1.000  O
  O36      1.0000 0.41345  0.35320  0.14170  Biso   1.000  O
  O37      1.0000 0.58601  0.37480  0.73790  Biso   1.000  O
  O38      1.0000 0.59559  0.47490  0.79930  Biso   1.000  O
  O39      1.0000 0.35218  0.56550  0.69340  Biso   1.000  O
  O40      1.0000 0.34038  0.45520  0.72230  Biso   1.000  O
  O41      1.0000 0.15269  0.55690  0.38100  Biso   1.000  O
  O42      1.0000 0.16849  0.44930  0.35000  Biso   1.000  O
  O43      1.0000 0.34559  0.51090  0.39990  Biso   1.000  O
  O44      1.0000 0.35454  0.44220  0.30380  Biso   1.000  O
  O45      1.0000 0.16111  0.19330  0.51140  Biso   1.000  O
  O46      1.0000 0.16022  0.16880  0.39460  Biso   1.000  O
  O47      1.0000 0.35385  0.59360  0.25370  Biso   1.000  O
  O48      1.0000 0.34299  0.51150  0.16870  Biso   1.000  O
  O49      1.0000 0.15379  0.85480  0.13500  Biso   1.000  O
  O50      1.0000 0.15537  0.79010  0.03270  Biso   1.000  O
  O51      1.0000 0.38455  0.46250  0.07070  Biso   1.000  O
  H41      1.0000 0.39420  0.42450  0.06540  Biso   1.000  H
  H42      1.0000 0.36800  0.45010  0.06570  Biso   1.000  H
  O52      1.0000 0.38568  0.55560  0.92550  Biso   1.000  O
  H43      1.0000 0.40140  0.56740  0.93980  Biso   1.000  H
  H44      1.0000 0.38400  0.56960  0.88190  Biso   1.000  H
  N13      1.0000 0.52269  0.29000  0.46270  Biso   1.000  N
  N14      1.0000 0.47708  0.33560  0.40840  Biso   1.000  N
  N15      1.0000 0.48564  0.70740  0.69730  Biso   1.000  N
  N16      1.0000 0.52729  0.78980  0.68970  Biso   1.000  N
  N17      1.0000 0.48056  0.30540  0.96550  Biso   1.000  N
  N18      1.0000 0.52133  0.33670  0.88090  Biso   1.000  N
  N19      1.0000 0.27403  0.46620  0.57970  Biso   1.000  N
  N20      1.0000 0.23252  0.46530  0.49270  Biso   1.000  N
  N21      1.0000 0.28019  0.37570  0.45010  Biso   1.000  N
  N22      1.0000 0.23457  0.30400  0.47450  Biso   1.000  N
  N23      1.0000 0.27328  0.63140  0.11770  Biso   1.000  N
  N24      1.0000 0.22739  0.69690  0.08950  Biso   1.000  N
  C73      1.0000 0.58530  0.25420  0.57360  Biso   1.000  C
  C74      1.0000 0.54666  0.26410  0.48650  Biso   1.000  C
  H45      1.0000 0.55480  0.22670  0.46090  Biso   1.000  H
  C75      1.0000 0.55960  0.29110  0.54760  Biso   1.000  C
  C76      1.0000 0.54792  0.34840  0.58440  Biso   1.000  C
  H46      1.0000 0.55640  0.36800  0.62480  Biso   1.000  H
  C77      1.0000 0.52330  0.37610  0.56020  Biso   1.000  C
  H47      1.0000 0.51510  0.41410  0.58450  Biso   1.000  H
  C78      1.0000 0.51122  0.34630  0.49930  Biso   1.000  C
  C79      1.0000 0.48591  0.37140  0.46850  Biso   1.000  C
  C80      1.0000 0.47084  0.42910  0.49580  Biso   1.000  C
  H48      1.0000 0.47600  0.45130  0.53880  Biso   1.000  H
  C81      1.0000 0.44845  0.45300  0.45940  Biso   1.000  C
  H49      1.0000 0.43830  0.49110  0.47760  Biso   1.000  H
  C82      1.0000 0.44107  0.41980  0.39510  Biso   1.000  C
  C83      1.0000 0.45543  0.35950  0.37190  Biso   1.000  C
  H50      1.0000 0.44990  0.33540  0.33020  Biso   1.000  H
  C84      1.0000 0.41754  0.44700  0.34890  Biso   1.000  C
  C85      1.0000 0.42780  0.58840  0.75980  Biso   1.000  C
  C86      1.0000 0.46400  0.66120  0.69610  Biso   1.000  C
  H51      1.0000 0.45710  0.64640  0.65180  Biso   1.000  H
  C87      1.0000 0.45220  0.63590  0.75940  Biso   1.000  C
  C88      1.0000 0.46180  0.65840  0.82440  Biso   1.000  C
  H52      1.0000 0.45390  0.64250  0.86710  Biso   1.000  H
  C89      1.0000 0.48380  0.70560  0.82660  Biso   1.000  C
  H53      1.0000 0.49070  0.72170  0.87050  Biso   1.000  H
  C90      1.0000 0.49500  0.72790  0.76140  Biso   1.000  C
  C91      1.0000 0.51890  0.77660  0.75760  Biso   1.000  C
  C92      1.0000 0.53150  0.80500  0.81690  Biso   1.000  C
  H54      1.0000 0.52460  0.79650  0.86310  Biso   1.000  H
  C93      1.0000 0.55470  0.84700  0.80780  Biso   1.000  C
  H55      1.0000 0.56360  0.86670  0.84750  Biso   1.000  H
  C94      1.0000 0.56400  0.85840  0.73940  Biso   1.000  C
  C95      1.0000 0.54940  0.83010  0.68120  Biso   1.000  C
  H56      1.0000 0.55540  0.83980  0.63450  Biso   1.000  H
  C96      1.0000 0.58890  0.90330  0.72620  Biso   1.000  C
  C97      1.0000 0.42230  0.30630  0.09940  Biso   1.000  C
  C98      1.0000 0.45790  0.28890  0.00010  Biso   1.000  C
  H57      1.0000 0.44750  0.25030  0.98350  Biso   1.000  H
  C99      1.0000 0.44880  0.32750  0.06100  Biso   1.000  C
  C100     1.0000 0.46461  0.38450  0.08430  Biso   1.000  C
  H58      1.0000 0.45930  0.41110  0.12470  Biso   1.000  H
  C101     1.0000 0.48840  0.40260  0.04780  Biso   1.000  C
  H59      1.0000 0.49930  0.44020  0.06410  Biso   1.000  H
  C102     1.0000 0.49543  0.36320  0.98660  Biso   1.000  C
  C103     1.0000 0.51887  0.37960  0.93940  Biso   1.000  C
  C104     1.0000 0.53730  0.43240  0.95420  Biso   1.000  C
  H60      1.0000 0.53560  0.45990  0.99610  Biso   1.000  H
  C105     1.0000 0.55864  0.44520  0.90650  Biso   1.000  C
  H61      1.0000 0.57150  0.48040  0.91650  Biso   1.000  H
  C106     1.0000 0.56022  0.40390  0.84330  Biso   1.000  C
  C107     1.0000 0.54105  0.34990  0.83310  Biso   1.000  C
  H62      1.0000 0.54200  0.32180  0.79140  Biso   1.000  H
  C108     1.0000 0.58210  0.41840  0.78830  Biso   1.000  C
  C109     1.0000 0.33640  0.51240  0.68750  Biso   1.000  C
  C110     1.0000 0.29620  0.46200  0.62160  Biso   1.000  C
  H63      1.0000 0.30150  0.41670  0.63790  Biso   1.000  H
  C111     1.0000 0.31140  0.52070  0.64180  Biso   1.000  C
  C112     1.0000 0.30310  0.58900  0.61980  Biso   1.000  C
  H64      1.0000 0.31300  0.62990  0.63230  Biso   1.000  H
  C113     1.0000 0.27930  0.59430  0.57810  Biso   1.000  C
  H65      1.0000 0.27320  0.63930  0.56270  Biso   1.000  H
  C114     1.0000 0.26520  0.53340  0.56010  Biso   1.000  C
  C115     1.0000 0.24040  0.53280  0.51520  Biso   1.000  C
  C116     1.0000 0.22610  0.59360  0.49680  Biso   1.000  C
  H66      1.0000 0.23210  0.63870  0.51210  Biso   1.000  H
  C117     1.0000 0.20260  0.58790  0.45550  Biso   1.000  C
  H67      1.0000 0.19210  0.62830  0.44530  Biso   1.000  H
  C118     1.0000 0.19550  0.52180  0.43030  Biso   1.000  C
  C119     1.0000 0.21040  0.46120  0.45050  Biso   1.000  C
  H68      1.0000 0.20470  0.41620  0.43420  Biso   1.000  H
  C120     1.0000 0.17060  0.50850  0.38330  Biso   1.000  C
  C121     1.0000 0.34210  0.45670  0.36140  Biso   1.000  C
  C122     1.0000 0.30072  0.41910  0.43630  Biso   1.000  C
  H69      1.0000 0.30260  0.46130  0.46330  Biso   1.000  H
  C123     1.0000 0.32019  0.40350  0.38140  Biso   1.000  C
  C124     1.0000 0.31753  0.33890  0.34490  Biso   1.000  C
  H70      1.0000 0.33030  0.32560  0.31050  Biso   1.000  H
  C125     1.0000 0.29578  0.29400  0.35970  Biso   1.000  C
  H71      1.0000 0.29410  0.24990  0.33600  Biso   1.000  H
  C126     1.0000 0.27632  0.31550  0.41030  Biso   1.000  C
  C127     1.0000 0.25110  0.27670  0.42290  Biso   1.000  C
  C128     1.0000 0.24330  0.21640  0.38070  Biso   1.000  C
  H72      1.0000 0.25520  0.19570  0.34780  Biso   1.000  H
  C129     1.0000 0.21762  0.18930  0.38960  Biso   1.000  C
  H73      1.0000 0.21180  0.15100  0.36100  Biso   1.000  H
  C130     1.0000 0.20010  0.21940  0.44200  Biso   1.000  C
  C131     1.0000 0.20990  0.27640  0.48350  Biso   1.000  C
  H74      1.0000 0.19870  0.29600  0.51900  Biso   1.000  H
  C132     1.0000 0.17160  0.19210  0.44960  Biso   1.000  C
  C133     1.0000 0.33910  0.56850  0.20290  Biso   1.000  C
  C134     1.0000 0.29570  0.59310  0.13300  Biso   1.000  C
  H75      1.0000 0.29850  0.54980  0.10860  Biso   1.000  H
  C135     1.0000 0.31480  0.61500  0.18340  Biso   1.000  C
  C136     1.0000 0.31150  0.68020  0.21730  Biso   1.000  C
  H76      1.0000 0.32470  0.69710  0.24890  Biso   1.000  H
  C137     1.0000 0.28840  0.72100  0.20430  Biso   1.000  C
  H77      1.0000 0.28560  0.76480  0.22770  Biso   1.000  H
  C138     1.0000 0.26950  0.69410  0.15490  Biso   1.000  C
  C139     1.0000 0.24310  0.72900  0.14080  Biso   1.000  C
  C140     1.0000 0.23380  0.79080  0.17820  Biso   1.000  C
  H78      1.0000 0.24480  0.81300  0.21240  Biso   1.000  H
  C141     1.0000 0.20870  0.81760  0.16370  Biso   1.000  C
  H79      1.0000 0.20240  0.85800  0.18830  Biso   1.000  H
  C142     1.0000 0.19280  0.78460  0.11260  Biso   1.000  C
  C143     1.0000 0.20260  0.72350  0.07670  Biso   1.000  C
  H80      1.0000 0.19150  0.70060  0.04300  Biso   1.000  H
  C144     1.0000 0.16470  0.81230  0.09090  Biso   1.000  C
  Eu7      1.0000 0.87869  0.08068  0.80167  Biso   1.000  Eu
  Eu8      1.0000 0.12222  0.10114  0.35629  Biso   1.000  Eu
  Eu9      1.0000 0.87566  0.97843  0.20120  Biso   1.000  Eu
  Co5      1.0000 0.75342  0.11658  0.46505  Biso   1.000  Co
  Co6      1.0000 0.99765  0.25185  0.61383  Biso   1.000  Co
  O53      1.0000 0.10013  0.21080  0.38370  Biso   1.000  O
  O54      1.0000 0.08935  0.30820  0.44930  Biso   1.000  O
  O55      1.0000 0.90703  0.99420  0.62960  Biso   1.000  O
  O56      1.0000 0.91152  0.08940  0.70500  Biso   1.000  O
  O57      1.0000 0.91311  0.91350  0.29310  Biso   1.000  O
  O58      1.0000 0.92286  0.94620  0.18350  Biso   1.000  O
  O59      1.0000 0.09654  0.58550  0.33640  Biso   1.000  O
  O60      1.0000 0.09981  0.56780  0.21860  Biso   1.000  O
  O61      1.0000 0.91307  0.25340  0.91390  Biso   1.000  O
  O62      1.0000 0.91345  0.14680  0.85830  Biso   1.000  O
  O63      1.0000 0.08601  0.12520  0.26210  Biso   1.000  O
  O64      1.0000 0.09559  0.02510  0.20070  Biso   1.000  O
  O65      1.0000 0.85218  0.93450  0.30660  Biso   1.000  O
  O66      1.0000 0.84038  0.04480  0.27770  Biso   1.000  O
  O67      1.0000 0.65269  0.94310  0.61900  Biso   1.000  O
  O68      1.0000 0.66849  0.05070  0.65000  Biso   1.000  O
  O69      1.0000 0.84559  0.98910  0.60010  Biso   1.000  O
  O70      1.0000 0.85454  0.05780  0.69620  Biso   1.000  O
  O71      1.0000 0.66111  0.30670  0.48860  Biso   1.000  O
  O72      1.0000 0.66022  0.33120  0.60540  Biso   1.000  O
  O73      1.0000 0.85385  0.90640  0.74630  Biso   1.000  O
  O74      1.0000 0.84299  0.98850  0.83130  Biso   1.000  O
  O75      1.0000 0.65379  0.64520  0.86500  Biso   1.000  O
  O76      1.0000 0.65537  0.70990  0.96730  Biso   1.000  O
  O77      1.0000 0.88455  0.03750  0.92930  Biso   1.000  O
  H81      1.0000 0.89420  0.07550  0.93460  Biso   1.000  H
  H82      1.0000 0.86800  0.04990  0.93430  Biso   1.000  H
  O78      1.0000 0.88568  0.94440  0.07450  Biso   1.000  O
  H83      1.0000 0.90140  0.93260  0.06020  Biso   1.000  H
  H84      1.0000 0.88400  0.93040  0.11810  Biso   1.000  H
  N25      1.0000 0.02269  0.21000  0.53730  Biso   1.000  N
  N26      1.0000 0.97708  0.16440  0.59160  Biso   1.000  N
  N27      1.0000 0.98564  0.79260  0.30270  Biso   1.000  N
  N28      1.0000 0.02729  0.71020  0.31030  Biso   1.000  N
  N29      1.0000 0.98056  0.19460  0.03450  Biso   1.000  N
  N30      1.0000 0.02133  0.16330  0.11910  Biso   1.000  N
  N31      1.0000 0.77403  0.03380  0.42030  Biso   1.000  N
  N32      1.0000 0.73252  0.03470  0.50730  Biso   1.000  N
  N33      1.0000 0.78019  0.12430  0.54990  Biso   1.000  N
  N34      1.0000 0.73457  0.19600  0.52550  Biso   1.000  N
  N35      1.0000 0.77328  0.86860  0.88230  Biso   1.000  N
  N36      1.0000 0.72739  0.80310  0.91050  Biso   1.000  N
  C145     1.0000 0.08530  0.24580  0.42640  Biso   1.000  C
  C146     1.0000 0.04666  0.23590  0.51350  Biso   1.000  C
  H85      1.0000 0.05480  0.27330  0.53910  Biso   1.000  H
  C147     1.0000 0.05960  0.20890  0.45240  Biso   1.000  C
  C148     1.0000 0.04792  0.15160  0.41560  Biso   1.000  C
  H86      1.0000 0.05640  0.13200  0.37520  Biso   1.000  H
  C149     1.0000 0.02330  0.12390  0.43980  Biso   1.000  C
  H87      1.0000 0.01510  0.08590  0.41550  Biso   1.000  H
  C150     1.0000 0.01122  0.15370  0.50070  Biso   1.000  C
  C151     1.0000 0.98591  0.12860  0.53150  Biso   1.000  C
  C152     1.0000 0.97084  0.07090  0.50420  Biso   1.000  C
  H88      1.0000 0.97600  0.04870  0.46120  Biso   1.000  H
  C153     1.0000 0.94845  0.04700  0.54060  Biso   1.000  C
  H89      1.0000 0.93830  0.00890  0.52240  Biso   1.000  H
  C154     1.0000 0.94107  0.08020  0.60490  Biso   1.000  C
  C155     1.0000 0.95543  0.14050  0.62810  Biso   1.000  C
  H90      1.0000 0.94990  0.16460  0.66980  Biso   1.000  H
  C156     1.0000 0.91754  0.05300  0.65110  Biso   1.000  C
  C157     1.0000 0.92780  0.91160  0.24020  Biso   1.000  C
  C158     1.0000 0.96400  0.83880  0.30390  Biso   1.000  C
  H91      1.0000 0.95710  0.85360  0.34820  Biso   1.000  H
  C159     1.0000 0.95220  0.86410  0.24060  Biso   1.000  C
  C160     1.0000 0.96180  0.84160  0.17560  Biso   1.000  C
  H92      1.0000 0.95390  0.85750  0.13290  Biso   1.000  H
  C161     1.0000 0.98380  0.79440  0.17340  Biso   1.000  C
  H93      1.0000 0.99070  0.77830  0.12950  Biso   1.000  H
  C162     1.0000 0.99500  0.77210  0.23860  Biso   1.000  C
  C163     1.0000 0.01890  0.72340  0.24240  Biso   1.000  C
  C164     1.0000 0.03150  0.69500  0.18310  Biso   1.000  C
  H94      1.0000 0.02460  0.70350  0.13690  Biso   1.000  H
  C165     1.0000 0.05470  0.65300  0.19220  Biso   1.000  C
  H95      1.0000 0.06360  0.63330  0.15250  Biso   1.000  H
  C166     1.0000 0.06400  0.64160  0.26060  Biso   1.000  C
  C167     1.0000 0.04940  0.66990  0.31880  Biso   1.000  C
  H96      1.0000 0.05540  0.66020  0.36550  Biso   1.000  H
  C168     1.0000 0.08890  0.59670  0.27380  Biso   1.000  C
  C169     1.0000 0.92230  0.19370  0.90060  Biso   1.000  C
  C170     1.0000 0.95790  0.21110  0.99990  Biso   1.000  C
  H97      1.0000 0.94750  0.24970  0.01650  Biso   1.000  H
  C171     1.0000 0.94880  0.17250  0.93900  Biso   1.000  C
  C172     1.0000 0.96461  0.11550  0.91570  Biso   1.000  C
  H98      1.0000 0.95930  0.08890  0.87530  Biso   1.000  H
  C173     1.0000 0.98840  0.09740  0.95220  Biso   1.000  C
  H99      1.0000 0.99930  0.05980  0.93590  Biso   1.000  H
  C174     1.0000 0.99543  0.13680  0.01340  Biso   1.000  C
  C175     1.0000 0.01887  0.12040  0.06060  Biso   1.000  C
  C176     1.0000 0.03730  0.06760  0.04580  Biso   1.000  C
  H100     1.0000 0.03560  0.04010  0.00390  Biso   1.000  H
  C177     1.0000 0.05864  0.05480  0.09350  Biso   1.000  C
  H101     1.0000 0.07150  0.01960  0.08350  Biso   1.000  H
  C178     1.0000 0.06022  0.09610  0.15670  Biso   1.000  C
  C179     1.0000 0.04105  0.15010  0.16690  Biso   1.000  C
  H102     1.0000 0.04200  0.17820  0.20860  Biso   1.000  H
  C180     1.0000 0.08210  0.08160  0.21170  Biso   1.000  C
  C181     1.0000 0.83640  0.98760  0.31250  Biso   1.000  C
  C182     1.0000 0.79620  0.03800  0.37840  Biso   1.000  C
  H103     1.0000 0.80150  0.08330  0.36210  Biso   1.000  H
  C183     1.0000 0.81140  0.97930  0.35820  Biso   1.000  C
  C184     1.0000 0.80310  0.91100  0.38020  Biso   1.000  C
  H104     1.0000 0.81300  0.87010  0.36770  Biso   1.000  H
  C185     1.0000 0.77930  0.90570  0.42190  Biso   1.000  C
  H105     1.0000 0.77320  0.86070  0.43730  Biso   1.000  H
  C186     1.0000 0.76520  0.96660  0.43990  Biso   1.000  C
  C187     1.0000 0.74040  0.96720  0.48480  Biso   1.000  C
  C188     1.0000 0.72610  0.90640  0.50320  Biso   1.000  C
  H106     1.0000 0.73210  0.86130  0.48790  Biso   1.000  H
  C189     1.0000 0.70260  0.91210  0.54450  Biso   1.000  C
  H107     1.0000 0.69210  0.87170  0.55470  Biso   1.000  H
  C190     1.0000 0.69550  0.97820  0.56970  Biso   1.000  C
  C191     1.0000 0.71040  0.03880  0.54950  Biso   1.000  C
  H108     1.0000 0.70470  0.08380  0.56580  Biso   1.000  H
  C192     1.0000 0.67060  0.99150  0.61670  Biso   1.000  C
  C193     1.0000 0.84210  0.04330  0.63860  Biso   1.000  C
  C194     1.0000 0.80072  0.08090  0.56370  Biso   1.000  C
  H109     1.0000 0.80260  0.03870  0.53670  Biso   1.000  H
  C195     1.0000 0.82019  0.09650  0.61860  Biso   1.000  C
  C196     1.0000 0.81753  0.16110  0.65510  Biso   1.000  C
  H110     1.0000 0.83030  0.17440  0.68950  Biso   1.000  H
  C197     1.0000 0.79578  0.20600  0.64030  Biso   1.000  C
  H111     1.0000 0.79410  0.25010  0.66400  Biso   1.000  H
  C198     1.0000 0.77632  0.18450  0.58970  Biso   1.000  C
  C199     1.0000 0.75110  0.22330  0.57710  Biso   1.000  C
  C200     1.0000 0.74330  0.28360  0.61930  Biso   1.000  C
  H112     1.0000 0.75520  0.30430  0.65220  Biso   1.000  H
  C201     1.0000 0.71762  0.31070  0.61040  Biso   1.000  C
  H113     1.0000 0.71180  0.34900  0.63900  Biso   1.000  H
  C202     1.0000 0.70010  0.28060  0.55800  Biso   1.000  C
  C203     1.0000 0.70990  0.22360  0.51650  Biso   1.000  C
  H114     1.0000 0.69870  0.20400  0.48100  Biso   1.000  H
  C204     1.0000 0.67160  0.30790  0.55040  Biso   1.000  C
  C205     1.0000 0.83910  0.93150  0.79710  Biso   1.000  C
  C206     1.0000 0.79570  0.90690  0.86700  Biso   1.000  C
  H115     1.0000 0.79850  0.95020  0.89140  Biso   1.000  H
  C207     1.0000 0.81480  0.88500  0.81660  Biso   1.000  C
  C208     1.0000 0.81150  0.81980  0.78270  Biso   1.000  C
  H116     1.0000 0.82470  0.80290  0.75110  Biso   1.000  H
  C209     1.0000 0.78840  0.77900  0.79570  Biso   1.000  C
  H117     1.0000 0.78560  0.73520  0.77230  Biso   1.000  H
  C210     1.0000 0.76950  0.80590  0.84510  Biso   1.000  C
  C211     1.0000 0.74310  0.77100  0.85920  Biso   1.000  C
  C212     1.0000 0.73380  0.70920  0.82180  Biso   1.000  C
  H118     1.0000 0.74480  0.68700  0.78760  Biso   1.000  H
  C213     1.0000 0.70870  0.68240  0.83630  Biso   1.000  C
  H119     1.0000 0.70240  0.64200  0.81170  Biso   1.000  H
  C214     1.0000 0.69280  0.71540  0.88740  Biso   1.000  C
  C215     1.0000 0.70260  0.77650  0.92330  Biso   1.000  C
  H120     1.0000 0.69150  0.79940  0.95700  Biso   1.000  H
  C216     1.0000 0.66470  0.68770  0.90910  Biso   1.000  C
  Eu10     1.0000 0.62131  0.91932  0.30167  Biso   1.000  Eu
  Eu11     1.0000 0.37778  0.89886  0.85629  Biso   1.000  Eu
  Eu12     1.0000 0.62434  0.02157  0.70120  Biso   1.000  Eu
  Co7      1.0000 0.74658  0.88342  0.96505  Biso   1.000  Co
  Co8      1.0000 0.50235  0.74815  0.11383  Biso   1.000  Co
  O79      1.0000 0.39987  0.78920  0.88370  Biso   1.000  O
  O80      1.0000 0.41065  0.69180  0.94930  Biso   1.000  O
  O81      1.0000 0.59297  0.00580  0.12960  Biso   1.000  O
  O82      1.0000 0.58848  0.91060  0.20500  Biso   1.000  O
  O83      1.0000 0.58689  0.08650  0.79310  Biso   1.000  O
  O84      1.0000 0.57714  0.05380  0.68350  Biso   1.000  O
  O85      1.0000 0.40346  0.41450  0.83640  Biso   1.000  O
  O86      1.0000 0.40019  0.43220  0.71860  Biso   1.000  O
  O87      1.0000 0.58693  0.74660  0.41390  Biso   1.000  O
  O88      1.0000 0.58655  0.85320  0.35830  Biso   1.000  O
  O89      1.0000 0.41399  0.87480  0.76210  Biso   1.000  O
  O90      1.0000 0.40441  0.97490  0.70070  Biso   1.000  O
  O91      1.0000 0.64782  0.06550  0.80660  Biso   1.000  O
  O92      1.0000 0.65962  0.95520  0.77770  Biso   1.000  O
  O93      1.0000 0.84731  0.05690  0.11900  Biso   1.000  O
  O94      1.0000 0.83151  0.94930  0.15000  Biso   1.000  O
  O95      1.0000 0.65441  0.01090  0.10010  Biso   1.000  O
  O96      1.0000 0.64546  0.94220  0.19620  Biso   1.000  O
  O97      1.0000 0.83889  0.69330  0.98860  Biso   1.000  O
  O98      1.0000 0.83978  0.66880  0.10540  Biso   1.000  O
  O99      1.0000 0.64615  0.09360  0.24630  Biso   1.000  O
  O100     1.0000 0.65701  0.01150  0.33130  Biso   1.000  O
  O101     1.0000 0.84621  0.35480  0.36500  Biso   1.000  O
  O102     1.0000 0.84463  0.29010  0.46730  Biso   1.000  O
  O103     1.0000 0.61545  0.96250  0.42930  Biso   1.000  O
  H121     1.0000 0.60580  0.92450  0.43460  Biso   1.000  H
  H122     1.0000 0.63200  0.95010  0.43430  Biso   1.000  H
  O104     1.0000 0.61432  0.05560  0.57450  Biso   1.000  O
  H123     1.0000 0.59860  0.06740  0.56020  Biso   1.000  H
  H124     1.0000 0.61600  0.06960  0.61810  Biso   1.000  H
  N37      1.0000 0.47731  0.79000  0.03730  Biso   1.000  N
  N38      1.0000 0.52292  0.83560  0.09160  Biso   1.000  N
  N39      1.0000 0.51436  0.20740  0.80270  Biso   1.000  N
  N40      1.0000 0.47271  0.28980  0.81030  Biso   1.000  N
  N41      1.0000 0.51944  0.80540  0.53450  Biso   1.000  N
  N42      1.0000 0.47867  0.83670  0.61910  Biso   1.000  N
  N43      1.0000 0.72597  0.96620  0.92030  Biso   1.000  N
  N44      1.0000 0.76748  0.96530  0.00730  Biso   1.000  N
  N45      1.0000 0.71981  0.87570  0.04990  Biso   1.000  N
  N46      1.0000 0.76543  0.80400  0.02550  Biso   1.000  N
  N47      1.0000 0.72672  0.13140  0.38230  Biso   1.000  N
  N48      1.0000 0.77261  0.19690  0.41050  Biso   1.000  N
  C217     1.0000 0.41470  0.75420  0.92640  Biso   1.000  C
  C218     1.0000 0.45334  0.76410  0.01350  Biso   1.000  C
  H125     1.0000 0.44520  0.72670  0.03910  Biso   1.000  H
  C219     1.0000 0.44040  0.79110  0.95240  Biso   1.000  C
  C220     1.0000 0.45208  0.84840  0.91560  Biso   1.000  C
  H126     1.0000 0.44360  0.86800  0.87520  Biso   1.000  H
  C221     1.0000 0.47670  0.87610  0.93980  Biso   1.000  C
  H127     1.0000 0.48490  0.91410  0.91550  Biso   1.000  H
  C222     1.0000 0.48878  0.84630  0.00070  Biso   1.000  C
  C223     1.0000 0.51409  0.87140  0.03150  Biso   1.000  C
  C224     1.0000 0.52916  0.92910  0.00420  Biso   1.000  C
  H128     1.0000 0.52400  0.95130  0.96120  Biso   1.000  H
  C225     1.0000 0.55155  0.95300  0.04060  Biso   1.000  C
  H129     1.0000 0.56170  0.99110  0.02240  Biso   1.000  H
  C226     1.0000 0.55893  0.91980  0.10490  Biso   1.000  C
  C227     1.0000 0.54457  0.85950  0.12810  Biso   1.000  C
  H130     1.0000 0.55010  0.83540  0.16980  Biso   1.000  H
  C228     1.0000 0.58246  0.94700  0.15110  Biso   1.000  C
  C229     1.0000 0.57220  0.08840  0.74020  Biso   1.000  C
  C230     1.0000 0.53600  0.16120  0.80390  Biso   1.000  C
  H131     1.0000 0.54290  0.14640  0.84820  Biso   1.000  H
  C231     1.0000 0.54780  0.13590  0.74060  Biso   1.000  C
  C232     1.0000 0.53820  0.15840  0.67560  Biso   1.000  C
  H132     1.0000 0.54610  0.14250  0.63290  Biso   1.000  H
  C233     1.0000 0.51620  0.20560  0.67340  Biso   1.000  C
  H133     1.0000 0.50930  0.22170  0.62950  Biso   1.000  H
  C234     1.0000 0.50500  0.22790  0.73860  Biso   1.000  C
  C235     1.0000 0.48110  0.27660  0.74240  Biso   1.000  C
  C236     1.0000 0.46850  0.30500  0.68310  Biso   1.000  C
  H134     1.0000 0.47540  0.29650  0.63690  Biso   1.000  H
  C237     1.0000 0.44530  0.34700  0.69220  Biso   1.000  C
  H135     1.0000 0.43640  0.36670  0.65250  Biso   1.000  H
  C238     1.0000 0.43600  0.35840  0.76060  Biso   1.000  C
  C239     1.0000 0.45060  0.33010  0.81880  Biso   1.000  C
  H136     1.0000 0.44460  0.33980  0.86550  Biso   1.000  H
  C240     1.0000 0.41110  0.40330  0.77380  Biso   1.000  C
  C241     1.0000 0.57770  0.80630  0.40060  Biso   1.000  C
  C242     1.0000 0.54210  0.78890  0.49990  Biso   1.000  C
  H137     1.0000 0.55250  0.75030  0.51650  Biso   1.000  H
  C243     1.0000 0.55120  0.82750  0.43900  Biso   1.000  C
  C244     1.0000 0.53539  0.88450  0.41570  Biso   1.000  C
  H138     1.0000 0.54070  0.91110  0.37530  Biso   1.000  H
  C245     1.0000 0.51160  0.90260  0.45220  Biso   1.000  C
  H139     1.0000 0.50070  0.94020  0.43590  Biso   1.000  H
  C246     1.0000 0.50457  0.86320  0.51340  Biso   1.000  C
  C247     1.0000 0.48113  0.87960  0.56060  Biso   1.000  C
  C248     1.0000 0.46270  0.93240  0.54580  Biso   1.000  C
  H140     1.0000 0.46440  0.95990  0.50390  Biso   1.000  H
  C249     1.0000 0.44136  0.94520  0.59350  Biso   1.000  C
  H141     1.0000 0.42850  0.98040  0.58350  Biso   1.000  H
  C250     1.0000 0.43978  0.90390  0.65670  Biso   1.000  C
  C251     1.0000 0.45895  0.84990  0.66690  Biso   1.000  C
  H142     1.0000 0.45800  0.82180  0.70860  Biso   1.000  H
  C252     1.0000 0.41790  0.91840  0.71170  Biso   1.000  C
  C253     1.0000 0.66360  0.01240  0.81250  Biso   1.000  C
  C254     1.0000 0.70380  0.96200  0.87840  Biso   1.000  C
  H143     1.0000 0.69850  0.91670  0.86210  Biso   1.000  H
  C255     1.0000 0.68860  0.02070  0.85820  Biso   1.000  C
  C256     1.0000 0.69690  0.08900  0.88020  Biso   1.000  C
  H144     1.0000 0.68700  0.12990  0.86770  Biso   1.000  H
  C257     1.0000 0.72070  0.09430  0.92190  Biso   1.000  C
  H145     1.0000 0.72680  0.13930  0.93730  Biso   1.000  H
  C258     1.0000 0.73480  0.03340  0.93990  Biso   1.000  C
  C259     1.0000 0.75960  0.03280  0.98480  Biso   1.000  C
  C260     1.0000 0.77390  0.09360  0.00320  Biso   1.000  C
  H146     1.0000 0.76790  0.13870  0.98790  Biso   1.000  H
  C261     1.0000 0.79740  0.08790  0.04450  Biso   1.000  C
  H147     1.0000 0.80790  0.12830  0.05470  Biso   1.000  H
  C262     1.0000 0.80450  0.02180  0.06970  Biso   1.000  C
  C263     1.0000 0.78960  0.96120  0.04950  Biso   1.000  C
  H148     1.0000 0.79530  0.91620  0.06580  Biso   1.000  H
  C264     1.0000 0.82940  0.00850  0.11670  Biso   1.000  C
  C265     1.0000 0.65790  0.95670  0.13860  Biso   1.000  C
  C266     1.0000 0.69928  0.91910  0.06370  Biso   1.000  C
  H149     1.0000 0.69740  0.96130  0.03670  Biso   1.000  H
  C267     1.0000 0.67981  0.90350  0.11860  Biso   1.000  C
  C268     1.0000 0.68247  0.83890  0.15510  Biso   1.000  C
  H150     1.0000 0.66970  0.82560  0.18950  Biso   1.000  H
  C269     1.0000 0.70422  0.79400  0.14030  Biso   1.000  C
  H151     1.0000 0.70590  0.74990  0.16400  Biso   1.000  H
  C270     1.0000 0.72368  0.81550  0.08970  Biso   1.000  C
  C271     1.0000 0.74890  0.77670  0.07710  Biso   1.000  C
  C272     1.0000 0.75670  0.71640  0.11930  Biso   1.000  C
  H152     1.0000 0.74480  0.69570  0.15220  Biso   1.000  H
  C273     1.0000 0.78238  0.68930  0.11040  Biso   1.000  C
  H153     1.0000 0.78820  0.65100  0.13900  Biso   1.000  H
  C274     1.0000 0.79990  0.71940  0.05800  Biso   1.000  C
  C275     1.0000 0.79010  0.77640  0.01650  Biso   1.000  C
  H154     1.0000 0.80130  0.79600  0.98100  Biso   1.000  H
  C276     1.0000 0.82840  0.69210  0.05040  Biso   1.000  C
  C277     1.0000 0.66090  0.06850  0.29710  Biso   1.000  C
  C278     1.0000 0.70430  0.09310  0.36700  Biso   1.000  C
  H155     1.0000 0.70150  0.04980  0.39140  Biso   1.000  H
  C279     1.0000 0.68520  0.11500  0.31660  Biso   1.000  C
  C280     1.0000 0.68850  0.18020  0.28270  Biso   1.000  C
  H156     1.0000 0.67530  0.19710  0.25110  Biso   1.000  H
  C281     1.0000 0.71160  0.22100  0.29570  Biso   1.000  C
  H157     1.0000 0.71440  0.26480  0.27230  Biso   1.000  H
  C282     1.0000 0.73050  0.19410  0.34510  Biso   1.000  C
  C283     1.0000 0.75690  0.22900  0.35920  Biso   1.000  C
  C284     1.0000 0.76620  0.29080  0.32180  Biso   1.000  C
  H158     1.0000 0.75520  0.31300  0.28760  Biso   1.000  H
  C285     1.0000 0.79130  0.31760  0.33630  Biso   1.000  C
  H159     1.0000 0.79760  0.35800  0.31170  Biso   1.000  H
  C286     1.0000 0.80720  0.28460  0.38740  Biso   1.000  C
  C287     1.0000 0.79740  0.22350  0.42330  Biso   1.000  C
  H160     1.0000 0.80850  0.20060  0.45700  Biso   1.000  H
  C288     1.0000 0.83530  0.31230  0.40910  Biso   1.000  C
  Eu13     1.0000 0.87869  0.41932  0.30167  Biso   1.000  Eu
  Eu14     1.0000 0.12222  0.39886  0.85629  Biso   1.000  Eu
  Eu15     1.0000 0.87566  0.52157  0.70120  Biso   1.000  Eu
  Co9      1.0000 0.75342  0.38342  0.96505  Biso   1.000  Co
  Co10     1.0000 0.99765  0.24815  0.11383  Biso   1.000  Co
  O105     1.0000 0.10013  0.28920  0.88370  Biso   1.000  O
  O106     1.0000 0.08935  0.19180  0.94930  Biso   1.000  O
  O107     1.0000 0.90703  0.50580  0.12960  Biso   1.000  O
  O108     1.0000 0.91152  0.41060  0.20500  Biso   1.000  O
  O109     1.0000 0.91311  0.58650  0.79310  Biso   1.000  O
  O110     1.0000 0.92286  0.55380  0.68350  Biso   1.000  O
  O111     1.0000 0.09654  0.91450  0.83640  Biso   1.000  O
  O112     1.0000 0.09981  0.93220  0.71860  Biso   1.000  O
  O113     1.0000 0.91307  0.24660  0.41390  Biso   1.000  O
  O114     1.0000 0.91345  0.35320  0.35830  Biso   1.000  O
  O115     1.0000 0.08601  0.37480  0.76210  Biso   1.000  O
  O116     1.0000 0.09559  0.47490  0.70070  Biso   1.000  O
  O117     1.0000 0.85218  0.56550  0.80660  Biso   1.000  O
  O118     1.0000 0.84038  0.45520  0.77770  Biso   1.000  O
  O119     1.0000 0.65269  0.55690  0.11900  Biso   1.000  O
  O120     1.0000 0.66849  0.44930  0.15000  Biso   1.000  O
  O121     1.0000 0.84559  0.51090  0.10010  Biso   1.000  O
  O122     1.0000 0.85454  0.44220  0.19620  Biso   1.000  O
  O123     1.0000 0.66111  0.19330  0.98860  Biso   1.000  O
  O124     1.0000 0.66022  0.16880  0.10540  Biso   1.000  O
  O125     1.0000 0.85385  0.59360  0.24630  Biso   1.000  O
  O126     1.0000 0.84299  0.51150  0.33130  Biso   1.000  O
  O127     1.0000 0.65379  0.85480  0.36500  Biso   1.000  O
  O128     1.0000 0.65537  0.79010  0.46730  Biso   1.000  O
  O129     1.0000 0.88455  0.46250  0.42930  Biso   1.000  O
  H161     1.0000 0.89420  0.42450  0.43460  Biso   1.000  H
  H162     1.0000 0.86800  0.45010  0.43430  Biso   1.000  H
  O130     1.0000 0.88568  0.55560  0.57450  Biso   1.000  O
  H163     1.0000 0.90140  0.56740  0.56020  Biso   1.000  H
  H164     1.0000 0.88400  0.56960  0.61810  Biso   1.000  H
  N49      1.0000 0.02269  0.29000  0.03730  Biso   1.000  N
  N50      1.0000 0.97708  0.33560  0.09160  Biso   1.000  N
  N51      1.0000 0.98564  0.70740  0.80270  Biso   1.000  N
  N52      1.0000 0.02729  0.78980  0.81030  Biso   1.000  N
  N53      1.0000 0.98056  0.30540  0.53450  Biso   1.000  N
  N54      1.0000 0.02133  0.33670  0.61910  Biso   1.000  N
  N55      1.0000 0.77403  0.46620  0.92030  Biso   1.000  N
  N56      1.0000 0.73252  0.46530  0.00730  Biso   1.000  N
  N57      1.0000 0.78019  0.37570  0.04990  Biso   1.000  N
  N58      1.0000 0.73457  0.30400  0.02550  Biso   1.000  N
  N59      1.0000 0.77328  0.63140  0.38230  Biso   1.000  N
  N60      1.0000 0.72739  0.69690  0.41050  Biso   1.000  N
  C289     1.0000 0.08530  0.25420  0.92640  Biso   1.000  C
  C290     1.0000 0.04666  0.26410  0.01350  Biso   1.000  C
  H165     1.0000 0.05480  0.22670  0.03910  Biso   1.000  H
  C291     1.0000 0.05960  0.29110  0.95240  Biso   1.000  C
  C292     1.0000 0.04792  0.34840  0.91560  Biso   1.000  C
  H166     1.0000 0.05640  0.36800  0.87520  Biso   1.000  H
  C293     1.0000 0.02330  0.37610  0.93980  Biso   1.000  C
  H167     1.0000 0.01510  0.41410  0.91550  Biso   1.000  H
  C294     1.0000 0.01122  0.34630  0.00070  Biso   1.000  C
  C295     1.0000 0.98591  0.37140  0.03150  Biso   1.000  C
  C296     1.0000 0.97084  0.42910  0.00420  Biso   1.000  C
  H168     1.0000 0.97600  0.45130  0.96120  Biso   1.000  H
  C297     1.0000 0.94845  0.45300  0.04060  Biso   1.000  C
  H169     1.0000 0.93830  0.49110  0.02240  Biso   1.000  H
  C298     1.0000 0.94107  0.41980  0.10490  Biso   1.000  C
  C299     1.0000 0.95543  0.35950  0.12810  Biso   1.000  C
  H170     1.0000 0.94990  0.33540  0.16980  Biso   1.000  H
  C300     1.0000 0.91754  0.44700  0.15110  Biso   1.000  C
  C301     1.0000 0.92780  0.58840  0.74020  Biso   1.000  C
  C302     1.0000 0.96400  0.66120  0.80390  Biso   1.000  C
  H171     1.0000 0.95710  0.64640  0.84820  Biso   1.000  H
  C303     1.0000 0.95220  0.63590  0.74060  Biso   1.000  C
  C304     1.0000 0.96180  0.65840  0.67560  Biso   1.000  C
  H172     1.0000 0.95390  0.64250  0.63290  Biso   1.000  H
  C305     1.0000 0.98380  0.70560  0.67340  Biso   1.000  C
  H173     1.0000 0.99070  0.72170  0.62950  Biso   1.000  H
  C306     1.0000 0.99500  0.72790  0.73860  Biso   1.000  C
  C307     1.0000 0.01890  0.77660  0.74240  Biso   1.000  C
  C308     1.0000 0.03150  0.80500  0.68310  Biso   1.000  C
  H174     1.0000 0.02460  0.79650  0.63690  Biso   1.000  H
  C309     1.0000 0.05470  0.84700  0.69220  Biso   1.000  C
  H175     1.0000 0.06360  0.86670  0.65250  Biso   1.000  H
  C310     1.0000 0.06400  0.85840  0.76060  Biso   1.000  C
  C311     1.0000 0.04940  0.83010  0.81880  Biso   1.000  C
  H176     1.0000 0.05540  0.83980  0.86550  Biso   1.000  H
  C312     1.0000 0.08890  0.90330  0.77380  Biso   1.000  C
  C313     1.0000 0.92230  0.30630  0.40060  Biso   1.000  C
  C314     1.0000 0.95790  0.28890  0.49990  Biso   1.000  C
  H177     1.0000 0.94750  0.25030  0.51650  Biso   1.000  H
  C315     1.0000 0.94880  0.32750  0.43900  Biso   1.000  C
  C316     1.0000 0.96461  0.38450  0.41570  Biso   1.000  C
  H178     1.0000 0.95930  0.41110  0.37530  Biso   1.000  H
  C317     1.0000 0.98840  0.40260  0.45220  Biso   1.000  C
  H179     1.0000 0.99930  0.44020  0.43590  Biso   1.000  H
  C318     1.0000 0.99543  0.36320  0.51340  Biso   1.000  C
  C319     1.0000 0.01887  0.37960  0.56060  Biso   1.000  C
  C320     1.0000 0.03730  0.43240  0.54580  Biso   1.000  C
  H180     1.0000 0.03560  0.45990  0.50390  Biso   1.000  H
  C321     1.0000 0.05864  0.44520  0.59350  Biso   1.000  C
  H181     1.0000 0.07150  0.48040  0.58350  Biso   1.000  H
  C322     1.0000 0.06022  0.40390  0.65670  Biso   1.000  C
  C323     1.0000 0.04105  0.34990  0.66690  Biso   1.000  C
  H182     1.0000 0.04200  0.32180  0.70860  Biso   1.000  H
  C324     1.0000 0.08210  0.41840  0.71170  Biso   1.000  C
  C325     1.0000 0.83640  0.51240  0.81250  Biso   1.000  C
  C326     1.0000 0.79620  0.46200  0.87840  Biso   1.000  C
  H183     1.0000 0.80150  0.41670  0.86210  Biso   1.000  H
  C327     1.0000 0.81140  0.52070  0.85820  Biso   1.000  C
  C328     1.0000 0.80310  0.58900  0.88020  Biso   1.000  C
  H184     1.0000 0.81300  0.62990  0.86770  Biso   1.000  H
  C329     1.0000 0.77930  0.59430  0.92190  Biso   1.000  C
  H185     1.0000 0.77320  0.63930  0.93730  Biso   1.000  H
  C330     1.0000 0.76520  0.53340  0.93990  Biso   1.000  C
  C331     1.0000 0.74040  0.53280  0.98480  Biso   1.000  C
  C332     1.0000 0.72610  0.59360  0.00320  Biso   1.000  C
  H186     1.0000 0.73210  0.63870  0.98790  Biso   1.000  H
  C333     1.0000 0.70260  0.58790  0.04450  Biso   1.000  C
  H187     1.0000 0.69210  0.62830  0.05470  Biso   1.000  H
  C334     1.0000 0.69550  0.52180  0.06970  Biso   1.000  C
  C335     1.0000 0.71040  0.46120  0.04950  Biso   1.000  C
  H188     1.0000 0.70470  0.41620  0.06580  Biso   1.000  H
  C336     1.0000 0.67060  0.50850  0.11670  Biso   1.000  C
  C337     1.0000 0.84210  0.45670  0.13860  Biso   1.000  C
  C338     1.0000 0.80072  0.41910  0.06370  Biso   1.000  C
  H189     1.0000 0.80260  0.46130  0.03670  Biso   1.000  H
  C339     1.0000 0.82019  0.40350  0.11860  Biso   1.000  C
  C340     1.0000 0.81753  0.33890  0.15510  Biso   1.000  C
  H190     1.0000 0.83030  0.32560  0.18950  Biso   1.000  H
  C341     1.0000 0.79578  0.29400  0.14030  Biso   1.000  C
  H191     1.0000 0.79410  0.24990  0.16400  Biso   1.000  H
  C342     1.0000 0.77632  0.31550  0.08970  Biso   1.000  C
  C343     1.0000 0.75110  0.27670  0.07710  Biso   1.000  C
  C344     1.0000 0.74330  0.21640  0.11930  Biso   1.000  C
  H192     1.0000 0.75520  0.19570  0.15220  Biso   1.000  H
  C345     1.0000 0.71762  0.18930  0.11040  Biso   1.000  C
  H193     1.0000 0.71180  0.15100  0.13900  Biso   1.000  H
  C346     1.0000 0.70010  0.21940  0.05800  Biso   1.000  C
  C347     1.0000 0.70990  0.27640  0.01650  Biso   1.000  C
  H194     1.0000 0.69870  0.29600  0.98100  Biso   1.000  H
  C348     1.0000 0.67160  0.19210  0.05040  Biso   1.000  C
  C349     1.0000 0.83910  0.56850  0.29710  Biso   1.000  C
  C350     1.0000 0.79570  0.59310  0.36700  Biso   1.000  C
  H195     1.0000 0.79850  0.54980  0.39140  Biso   1.000  H
  C351     1.0000 0.81480  0.61500  0.31660  Biso   1.000  C
  C352     1.0000 0.81150  0.68020  0.28270  Biso   1.000  C
  H196     1.0000 0.82470  0.69710  0.25110  Biso   1.000  H
  C353     1.0000 0.78840  0.72100  0.29570  Biso   1.000  C
  H197     1.0000 0.78560  0.76480  0.27230  Biso   1.000  H
  C354     1.0000 0.76950  0.69410  0.34510  Biso   1.000  C
  C355     1.0000 0.74310  0.72900  0.35920  Biso   1.000  C
  C356     1.0000 0.73380  0.79080  0.32180  Biso   1.000  C
  H198     1.0000 0.74480  0.81300  0.28760  Biso   1.000  H
  C357     1.0000 0.70870  0.81760  0.33630  Biso   1.000  C
  H199     1.0000 0.70240  0.85800  0.31170  Biso   1.000  H
  C358     1.0000 0.69280  0.78460  0.38740  Biso   1.000  C
  C359     1.0000 0.70260  0.72350  0.42330  Biso   1.000  C
  H200     1.0000 0.69150  0.70060  0.45700  Biso   1.000  H
  C360     1.0000 0.66470  0.81230  0.40910  Biso   1.000  C
  Eu16     1.0000 0.62131  0.58068  0.80167  Biso   1.000  Eu
  Eu17     1.0000 0.37778  0.60114  0.35629  Biso   1.000  Eu
  Eu18     1.0000 0.62434  0.47843  0.20120  Biso   1.000  Eu
  Co11     1.0000 0.74658  0.61658  0.46505  Biso   1.000  Co
  Co12     1.0000 0.50235  0.75185  0.61383  Biso   1.000  Co
  O131     1.0000 0.39987  0.71080  0.38370  Biso   1.000  O
  O132     1.0000 0.41065  0.80820  0.44930  Biso   1.000  O
  O133     1.0000 0.59297  0.49420  0.62960  Biso   1.000  O
  O134     1.0000 0.58848  0.58940  0.70500  Biso   1.000  O
  O135     1.0000 0.58689  0.41350  0.29310  Biso   1.000  O
  O136     1.0000 0.57714  0.44620  0.18350  Biso   1.000  O
  O137     1.0000 0.40346  0.08550  0.33640  Biso   1.000  O
  O138     1.0000 0.40019  0.06780  0.21860  Biso   1.000  O
  O139     1.0000 0.58693  0.75340  0.91390  Biso   1.000  O
  O140     1.0000 0.58655  0.64680  0.85830  Biso   1.000  O
  O141     1.0000 0.41399  0.62520  0.26210  Biso   1.000  O
  O142     1.0000 0.40441  0.52510  0.20070  Biso   1.000  O
  O143     1.0000 0.64782  0.43450  0.30660  Biso   1.000  O
  O144     1.0000 0.65962  0.54480  0.27770  Biso   1.000  O
  O145     1.0000 0.84731  0.44310  0.61900  Biso   1.000  O
  O146     1.0000 0.83151  0.55070  0.65000  Biso   1.000  O
  O147     1.0000 0.65441  0.48910  0.60010  Biso   1.000  O
  O148     1.0000 0.64546  0.55780  0.69620  Biso   1.000  O
  O149     1.0000 0.83889  0.80670  0.48860  Biso   1.000  O
  O150     1.0000 0.83978  0.83120  0.60540  Biso   1.000  O
  O151     1.0000 0.64615  0.40640  0.74630  Biso   1.000  O
  O152     1.0000 0.65701  0.48850  0.83130  Biso   1.000  O
  O153     1.0000 0.84621  0.14520  0.86500  Biso   1.000  O
  O154     1.0000 0.84463  0.20990  0.96730  Biso   1.000  O
  O155     1.0000 0.61545  0.53750  0.92930  Biso   1.000  O
  H201     1.0000 0.60580  0.57550  0.93460  Biso   1.000  H
  H202     1.0000 0.63200  0.54990  0.93430  Biso   1.000  H
  O156     1.0000 0.61432  0.44440  0.07450  Biso   1.000  O
  H203     1.0000 0.59860  0.43260  0.06020  Biso   1.000  H
  H204     1.0000 0.61600  0.43040  0.11810  Biso   1.000  H
  N61      1.0000 0.47731  0.71000  0.53730  Biso   1.000  N
  N62      1.0000 0.52292  0.66440  0.59160  Biso   1.000  N
  N63      1.0000 0.51436  0.29260  0.30270  Biso   1.000  N
  N64      1.0000 0.47271  0.21020  0.31030  Biso   1.000  N
  N65      1.0000 0.51944  0.69460  0.03450  Biso   1.000  N
  N66      1.0000 0.47867  0.66330  0.11910  Biso   1.000  N
  N67      1.0000 0.72597  0.53380  0.42030  Biso   1.000  N
  N68      1.0000 0.76748  0.53470  0.50730  Biso   1.000  N
  N69      1.0000 0.71981  0.62430  0.54990  Biso   1.000  N
  N70      1.0000 0.76543  0.69600  0.52550  Biso   1.000  N
  N71      1.0000 0.72672  0.36860  0.88230  Biso   1.000  N
  N72      1.0000 0.77261  0.30310  0.91050  Biso   1.000  N
  C361     1.0000 0.41470  0.74580  0.42640  Biso   1.000  C
  C362     1.0000 0.45334  0.73590  0.51350  Biso   1.000  C
  H205     1.0000 0.44520  0.77330  0.53910  Biso   1.000  H
  C363     1.0000 0.44040  0.70890  0.45240  Biso   1.000  C
  C364     1.0000 0.45208  0.65160  0.41560  Biso   1.000  C
  H206     1.0000 0.44360  0.63200  0.37520  Biso   1.000  H
  C365     1.0000 0.47670  0.62390  0.43980  Biso   1.000  C
  H207     1.0000 0.48490  0.58590  0.41550  Biso   1.000  H
  C366     1.0000 0.48878  0.65370  0.50070  Biso   1.000  C
  C367     1.0000 0.51409  0.62860  0.53150  Biso   1.000  C
  C368     1.0000 0.52916  0.57090  0.50420  Biso   1.000  C
  H208     1.0000 0.52400  0.54870  0.46120  Biso   1.000  H
  C369     1.0000 0.55155  0.54700  0.54060  Biso   1.000  C
  H209     1.0000 0.56170  0.50890  0.52240  Biso   1.000  H
  C370     1.0000 0.55893  0.58020  0.60490  Biso   1.000  C
  C371     1.0000 0.54457  0.64050  0.62810  Biso   1.000  C
  H210     1.0000 0.55010  0.66460  0.66980  Biso   1.000  H
  C372     1.0000 0.58246  0.55300  0.65110  Biso   1.000  C
  C373     1.0000 0.57220  0.41160  0.24020  Biso   1.000  C
  C374     1.0000 0.53600  0.33880  0.30390  Biso   1.000  C
  H211     1.0000 0.54290  0.35360  0.34820  Biso   1.000  H
  C375     1.0000 0.54780  0.36410  0.24060  Biso   1.000  C
  C376     1.0000 0.53820  0.34160  0.17560  Biso   1.000  C
  H212     1.0000 0.54610  0.35750  0.13290  Biso   1.000  H
  C377     1.0000 0.51620  0.29440  0.17340  Biso   1.000  C
  H213     1.0000 0.50930  0.27830  0.12950  Biso   1.000  H
  C378     1.0000 0.50500  0.27210  0.23860  Biso   1.000  C
  C379     1.0000 0.48110  0.22340  0.24240  Biso   1.000  C
  C380     1.0000 0.46850  0.19500  0.18310  Biso   1.000  C
  H214     1.0000 0.47540  0.20350  0.13690  Biso   1.000  H
  C381     1.0000 0.44530  0.15300  0.19220  Biso   1.000  C
  H215     1.0000 0.43640  0.13330  0.15250  Biso   1.000  H
  C382     1.0000 0.43600  0.14160  0.26060  Biso   1.000  C
  C383     1.0000 0.45060  0.16990  0.31880  Biso   1.000  C
  H216     1.0000 0.44460  0.16020  0.36550  Biso   1.000  H
  C384     1.0000 0.41110  0.09670  0.27380  Biso   1.000  C
  C385     1.0000 0.57770  0.69370  0.90060  Biso   1.000  C
  C386     1.0000 0.54210  0.71110  0.99990  Biso   1.000  C
  H217     1.0000 0.55250  0.74970  0.01650  Biso   1.000  H
  C387     1.0000 0.55120  0.67250  0.93900  Biso   1.000  C
  C388     1.0000 0.53539  0.61550  0.91570  Biso   1.000  C
  H218     1.0000 0.54070  0.58890  0.87530  Biso   1.000  H
  C389     1.0000 0.51160  0.59740  0.95220  Biso   1.000  C
  H219     1.0000 0.50070  0.55980  0.93590  Biso   1.000  H
  C390     1.0000 0.50457  0.63680  0.01340  Biso   1.000  C
  C391     1.0000 0.48113  0.62040  0.06060  Biso   1.000  C
  C392     1.0000 0.46270  0.56760  0.04580  Biso   1.000  C
  H220     1.0000 0.46440  0.54010  0.00390  Biso   1.000  H
  C393     1.0000 0.44136  0.55480  0.09350  Biso   1.000  C
  H221     1.0000 0.42850  0.51960  0.08350  Biso   1.000  H
  C394     1.0000 0.43978  0.59610  0.15670  Biso   1.000  C
  C395     1.0000 0.45895  0.65010  0.16690  Biso   1.000  C
  H222     1.0000 0.45800  0.67820  0.20860  Biso   1.000  H
  C396     1.0000 0.41790  0.58160  0.21170  Biso   1.000  C
  C397     1.0000 0.66360  0.48760  0.31250  Biso   1.000  C
  C398     1.0000 0.70380  0.53800  0.37840  Biso   1.000  C
  H223     1.0000 0.69850  0.58330  0.36210  Biso   1.000  H
  C399     1.0000 0.68860  0.47930  0.35820  Biso   1.000  C
  C400     1.0000 0.69690  0.41100  0.38020  Biso   1.000  C
  H224     1.0000 0.68700  0.37010  0.36770  Biso   1.000  H
  C401     1.0000 0.72070  0.40570  0.42190  Biso   1.000  C
  H225     1.0000 0.72680  0.36070  0.43730  Biso   1.000  H
  C402     1.0000 0.73480  0.46660  0.43990  Biso   1.000  C
  C403     1.0000 0.75960  0.46720  0.48480  Biso   1.000  C
  C404     1.0000 0.77390  0.40640  0.50320  Biso   1.000  C
  H226     1.0000 0.76790  0.36130  0.48790  Biso   1.000  H
  C405     1.0000 0.79740  0.41210  0.54450  Biso   1.000  C
  H227     1.0000 0.80790  0.37170  0.55470  Biso   1.000  H
  C406     1.0000 0.80450  0.47820  0.56970  Biso   1.000  C
  C407     1.0000 0.78960  0.53880  0.54950  Biso   1.000  C
  H228     1.0000 0.79530  0.58380  0.56580  Biso   1.000  H
  C408     1.0000 0.82940  0.49150  0.61670  Biso   1.000  C
  C409     1.0000 0.65790  0.54330  0.63860  Biso   1.000  C
  C410     1.0000 0.69928  0.58090  0.56370  Biso   1.000  C
  H229     1.0000 0.69740  0.53870  0.53670  Biso   1.000  H
  C411     1.0000 0.67981  0.59650  0.61860  Biso   1.000  C
  C412     1.0000 0.68247  0.66110  0.65510  Biso   1.000  C
  H230     1.0000 0.66970  0.67440  0.68950  Biso   1.000  H
  C413     1.0000 0.70422  0.70600  0.64030  Biso   1.000  C
  H231     1.0000 0.70590  0.75010  0.66400  Biso   1.000  H
  C414     1.0000 0.72368  0.68450  0.58970  Biso   1.000  C
  C415     1.0000 0.74890  0.72330  0.57710  Biso   1.000  C
  C416     1.0000 0.75670  0.78360  0.61930  Biso   1.000  C
  H232     1.0000 0.74480  0.80430  0.65220  Biso   1.000  H
  C417     1.0000 0.78238  0.81070  0.61040  Biso   1.000  C
  H233     1.0000 0.78820  0.84900  0.63900  Biso   1.000  H
  C418     1.0000 0.79990  0.78060  0.55800  Biso   1.000  C
  C419     1.0000 0.79010  0.72360  0.51650  Biso   1.000  C
  H234     1.0000 0.80130  0.70400  0.48100  Biso   1.000  H
  C420     1.0000 0.82840  0.80790  0.55040  Biso   1.000  C
  C421     1.0000 0.66090  0.43150  0.79710  Biso   1.000  C
  C422     1.0000 0.70430  0.40690  0.86700  Biso   1.000  C
  H235     1.0000 0.70150  0.45020  0.89140  Biso   1.000  H
  C423     1.0000 0.68520  0.38500  0.81660  Biso   1.000  C
  C424     1.0000 0.68850  0.31980  0.78270  Biso   1.000  C
  H236     1.0000 0.67530  0.30290  0.75110  Biso   1.000  H
  C425     1.0000 0.71160  0.27900  0.79570  Biso   1.000  C
  H237     1.0000 0.71440  0.23520  0.77230  Biso   1.000  H
  C426     1.0000 0.73050  0.30590  0.84510  Biso   1.000  C
  C427     1.0000 0.75690  0.27100  0.85920  Biso   1.000  C
  C428     1.0000 0.76620  0.20920  0.82180  Biso   1.000  C
  H238     1.0000 0.75520  0.18700  0.78760  Biso   1.000  H
  C429     1.0000 0.79130  0.18240  0.83630  Biso   1.000  C
  H239     1.0000 0.79760  0.14200  0.81170  Biso   1.000  H
  C430     1.0000 0.80720  0.21540  0.88740  Biso   1.000  C
  C431     1.0000 0.79740  0.27650  0.92330  Biso   1.000  C
  H240     1.0000 0.80850  0.29940  0.95700  Biso   1.000  H
  C432     1.0000 0.83530  0.18770  0.90910  Biso   1.000  C
  Eu19     1.0000 0.12131  0.91932  0.19833  Biso   1.000  Eu
  Eu20     1.0000 0.87778  0.89886  0.64371  Biso   1.000  Eu
  Eu21     1.0000 0.12434  0.02157  0.79880  Biso   1.000  Eu
  Co13     1.0000 0.24658  0.88342  0.53495  Biso   1.000  Co
  Co14     1.0000 0.00235  0.74815  0.38617  Biso   1.000  Co
  O157     1.0000 0.89987  0.78920  0.61630  Biso   1.000  O
  O158     1.0000 0.91065  0.69180  0.55070  Biso   1.000  O
  O159     1.0000 0.09297  0.00580  0.37040  Biso   1.000  O
  O160     1.0000 0.08848  0.91060  0.29500  Biso   1.000  O
  O161     1.0000 0.08689  0.08650  0.70690  Biso   1.000  O
  O162     1.0000 0.07714  0.05380  0.81650  Biso   1.000  O
  O163     1.0000 0.90346  0.41450  0.66360  Biso   1.000  O
  O164     1.0000 0.90019  0.43220  0.78140  Biso   1.000  O
  O165     1.0000 0.08693  0.74660  0.08610  Biso   1.000  O
  O166     1.0000 0.08655  0.85320  0.14170  Biso   1.000  O
  O167     1.0000 0.91399  0.87480  0.73790  Biso   1.000  O
  O168     1.0000 0.90441  0.97490  0.79930  Biso   1.000  O
  O169     1.0000 0.14782  0.06550  0.69340  Biso   1.000  O
  O170     1.0000 0.15962  0.95520  0.72230  Biso   1.000  O
  O171     1.0000 0.34731  0.05690  0.38100  Biso   1.000  O
  O172     1.0000 0.33151  0.94930  0.35000  Biso   1.000  O
  O173     1.0000 0.15441  0.01090  0.39990  Biso   1.000  O
  O174     1.0000 0.14546  0.94220  0.30380  Biso   1.000  O
  O175     1.0000 0.33889  0.69330  0.51140  Biso   1.000  O
  O176     1.0000 0.33978  0.66880  0.39460  Biso   1.000  O
  O177     1.0000 0.14615  0.09360  0.25370  Biso   1.000  O
  O178     1.0000 0.15701  0.01150  0.16870  Biso   1.000  O
  O179     1.0000 0.34621  0.35480  0.13500  Biso   1.000  O
  O180     1.0000 0.34463  0.29010  0.03270  Biso   1.000  O
  O181     1.0000 0.11545  0.96250  0.07070  Biso   1.000  O
  H241     1.0000 0.10580  0.92450  0.06540  Biso   1.000  H
  H242     1.0000 0.13200  0.95010  0.06570  Biso   1.000  H
  O182     1.0000 0.11432  0.05560  0.92550  Biso   1.000  O
  H243     1.0000 0.09860  0.06740  0.93980  Biso   1.000  H
  H244     1.0000 0.11600  0.06960  0.88190  Biso   1.000  H
  N73      1.0000 0.97731  0.79000  0.46270  Biso   1.000  N
  N74      1.0000 0.02292  0.83560  0.40840  Biso   1.000  N
  N75      1.0000 0.01436  0.20740  0.69730  Biso   1.000  N
  N76      1.0000 0.97271  0.28980  0.68970  Biso   1.000  N
  N77      1.0000 0.01944  0.80540  0.96550  Biso   1.000  N
  N78      1.0000 0.97867  0.83670  0.88090  Biso   1.000  N
  N79      1.0000 0.22597  0.96620  0.57970  Biso   1.000  N
  N80      1.0000 0.26748  0.96530  0.49270  Biso   1.000  N
  N81      1.0000 0.21981  0.87570  0.45010  Biso   1.000  N
  N82      1.0000 0.26543  0.80400  0.47450  Biso   1.000  N
  N83      1.0000 0.22672  0.13140  0.11770  Biso   1.000  N
  N84      1.0000 0.27261  0.19690  0.08950  Biso   1.000  N
  C433     1.0000 0.91470  0.75420  0.57360  Biso   1.000  C
  C434     1.0000 0.95334  0.76410  0.48650  Biso   1.000  C
  H245     1.0000 0.94520  0.72670  0.46090  Biso   1.000  H
  C435     1.0000 0.94040  0.79110  0.54760  Biso   1.000  C
  C436     1.0000 0.95208  0.84840  0.58440  Biso   1.000  C
  H246     1.0000 0.94360  0.86800  0.62480  Biso   1.000  H
  C437     1.0000 0.97670  0.87610  0.56020  Biso   1.000  C
  H247     1.0000 0.98490  0.91410  0.58450  Biso   1.000  H
  C438     1.0000 0.98878  0.84630  0.49930  Biso   1.000  C
  C439     1.0000 0.01409  0.87140  0.46850  Biso   1.000  C
  C440     1.0000 0.02916  0.92910  0.49580  Biso   1.000  C
  H248     1.0000 0.02400  0.95130  0.53880  Biso   1.000  H
  C441     1.0000 0.05155  0.95300  0.45940  Biso   1.000  C
  H249     1.0000 0.06170  0.99110  0.47760  Biso   1.000  H
  C442     1.0000 0.05893  0.91980  0.39510  Biso   1.000  C
  C443     1.0000 0.04457  0.85950  0.37190  Biso   1.000  C
  H250     1.0000 0.05010  0.83540  0.33020  Biso   1.000  H
  C444     1.0000 0.08246  0.94700  0.34890  Biso   1.000  C
  C445     1.0000 0.07220  0.08840  0.75980  Biso   1.000  C
  C446     1.0000 0.03600  0.16120  0.69610  Biso   1.000  C
  H251     1.0000 0.04290  0.14640  0.65180  Biso   1.000  H
  C447     1.0000 0.04780  0.13590  0.75940  Biso   1.000  C
  C448     1.0000 0.03820  0.15840  0.82440  Biso   1.000  C
  H252     1.0000 0.04610  0.14250  0.86710  Biso   1.000  H
  C449     1.0000 0.01620  0.20560  0.82660  Biso   1.000  C
  H253     1.0000 0.00930  0.22170  0.87050  Biso   1.000  H
  C450     1.0000 0.00500  0.22790  0.76140  Biso   1.000  C
  C451     1.0000 0.98110  0.27660  0.75760  Biso   1.000  C
  C452     1.0000 0.96850  0.30500  0.81690  Biso   1.000  C
  H254     1.0000 0.97540  0.29650  0.86310  Biso   1.000  H
  C453     1.0000 0.94530  0.34700  0.80780  Biso   1.000  C
  H255     1.0000 0.93640  0.36670  0.84750  Biso   1.000  H
  C454     1.0000 0.93600  0.35840  0.73940  Biso   1.000  C
  C455     1.0000 0.95060  0.33010  0.68120  Biso   1.000  C
  H256     1.0000 0.94460  0.33980  0.63450  Biso   1.000  H
  C456     1.0000 0.91110  0.40330  0.72620  Biso   1.000  C
  C457     1.0000 0.07770  0.80630  0.09940  Biso   1.000  C
  C458     1.0000 0.04210  0.78890  0.00010  Biso   1.000  C
  H257     1.0000 0.05250  0.75030  0.98350  Biso   1.000  H
  C459     1.0000 0.05120  0.82750  0.06100  Biso   1.000  C
  C460     1.0000 0.03539  0.88450  0.08430  Biso   1.000  C
  H258     1.0000 0.04070  0.91110  0.12470  Biso   1.000  H
  C461     1.0000 0.01160  0.90260  0.04780  Biso   1.000  C
  H259     1.0000 0.00070  0.94020  0.06410  Biso   1.000  H
  C462     1.0000 0.00457  0.86320  0.98660  Biso   1.000  C
  C463     1.0000 0.98113  0.87960  0.93940  Biso   1.000  C
  C464     1.0000 0.96270  0.93240  0.95420  Biso   1.000  C
  H260     1.0000 0.96440  0.95990  0.99610  Biso   1.000  H
  C465     1.0000 0.94136  0.94520  0.90650  Biso   1.000  C
  H261     1.0000 0.92850  0.98040  0.91650  Biso   1.000  H
  C466     1.0000 0.93978  0.90390  0.84330  Biso   1.000  C
  C467     1.0000 0.95895  0.84990  0.83310  Biso   1.000  C
  H262     1.0000 0.95800  0.82180  0.79140  Biso   1.000  H
  C468     1.0000 0.91790  0.91840  0.78830  Biso   1.000  C
  C469     1.0000 0.16360  0.01240  0.68750  Biso   1.000  C
  C470     1.0000 0.20380  0.96200  0.62160  Biso   1.000  C
  H263     1.0000 0.19850  0.91670  0.63790  Biso   1.000  H
  C471     1.0000 0.18860  0.02070  0.64180  Biso   1.000  C
  C472     1.0000 0.19690  0.08900  0.61980  Biso   1.000  C
  H264     1.0000 0.18700  0.12990  0.63230  Biso   1.000  H
  C473     1.0000 0.22070  0.09430  0.57810  Biso   1.000  C
  H265     1.0000 0.22680  0.13930  0.56270  Biso   1.000  H
  C474     1.0000 0.23480  0.03340  0.56010  Biso   1.000  C
  C475     1.0000 0.25960  0.03280  0.51520  Biso   1.000  C
  C476     1.0000 0.27390  0.09360  0.49680  Biso   1.000  C
  H266     1.0000 0.26790  0.13870  0.51210  Biso   1.000  H
  C477     1.0000 0.29740  0.08790  0.45550  Biso   1.000  C
  H267     1.0000 0.30790  0.12830  0.44530  Biso   1.000  H
  C478     1.0000 0.30450  0.02180  0.43030  Biso   1.000  C
  C479     1.0000 0.28960  0.96120  0.45050  Biso   1.000  C
  H268     1.0000 0.29530  0.91620  0.43420  Biso   1.000  H
  C480     1.0000 0.32940  0.00850  0.38330  Biso   1.000  C
  C481     1.0000 0.15790  0.95670  0.36140  Biso   1.000  C
  C482     1.0000 0.19928  0.91910  0.43630  Biso   1.000  C
  H269     1.0000 0.19740  0.96130  0.46330  Biso   1.000  H
  C483     1.0000 0.17981  0.90350  0.38140  Biso   1.000  C
  C484     1.0000 0.18247  0.83890  0.34490  Biso   1.000  C
  H270     1.0000 0.16970  0.82560  0.31050  Biso   1.000  H
  C485     1.0000 0.20422  0.79400  0.35970  Biso   1.000  C
  H271     1.0000 0.20590  0.74990  0.33600  Biso   1.000  H
  C486     1.0000 0.22368  0.81550  0.41030  Biso   1.000  C
  C487     1.0000 0.24890  0.77670  0.42290  Biso   1.000  C
  C488     1.0000 0.25670  0.71640  0.38070  Biso   1.000  C
  H272     1.0000 0.24480  0.69570  0.34780  Biso   1.000  H
  C489     1.0000 0.28238  0.68930  0.38960  Biso   1.000  C
  H273     1.0000 0.28820  0.65100  0.36100  Biso   1.000  H
  C490     1.0000 0.29990  0.71940  0.44200  Biso   1.000  C
  C491     1.0000 0.29010  0.77640  0.48350  Biso   1.000  C
  H274     1.0000 0.30130  0.79600  0.51900  Biso   1.000  H
  C492     1.0000 0.32840  0.69210  0.44960  Biso   1.000  C
  C493     1.0000 0.16090  0.06850  0.20290  Biso   1.000  C
  C494     1.0000 0.20430  0.09310  0.13300  Biso   1.000  C
  H275     1.0000 0.20150  0.04980  0.10860  Biso   1.000  H
  C495     1.0000 0.18520  0.11500  0.18340  Biso   1.000  C
  C496     1.0000 0.18850  0.18020  0.21730  Biso   1.000  C
  H276     1.0000 0.17530  0.19710  0.24890  Biso   1.000  H
  C497     1.0000 0.21160  0.22100  0.20430  Biso   1.000  C
  H277     1.0000 0.21440  0.26480  0.22770  Biso   1.000  H
  C498     1.0000 0.23050  0.19410  0.15490  Biso   1.000  C
  C499     1.0000 0.25690  0.22900  0.14080  Biso   1.000  C
  C500     1.0000 0.26620  0.29080  0.17820  Biso   1.000  C
  H278     1.0000 0.25520  0.31300  0.21240  Biso   1.000  H
  C501     1.0000 0.29130  0.31760  0.16370  Biso   1.000  C
  H279     1.0000 0.29760  0.35800  0.18830  Biso   1.000  H
  C502     1.0000 0.30720  0.28460  0.11260  Biso   1.000  C
  C503     1.0000 0.29740  0.22350  0.07670  Biso   1.000  C
  H280     1.0000 0.30850  0.20060  0.04300  Biso   1.000  H
  C504     1.0000 0.33530  0.31230  0.09090  Biso   1.000  C
  Eu22     1.0000 0.37869  0.08068  0.69833  Biso   1.000  Eu
  Eu23     1.0000 0.62222  0.10114  0.14371  Biso   1.000  Eu
  Eu24     1.0000 0.37566  0.97843  0.29880  Biso   1.000  Eu
  Co15     1.0000 0.25342  0.11658  0.03495  Biso   1.000  Co
  Co16     1.0000 0.49765  0.25185  0.88617  Biso   1.000  Co
  O183     1.0000 0.60013  0.21080  0.11630  Biso   1.000  O
  O184     1.0000 0.58935  0.30820  0.05070  Biso   1.000  O
  O185     1.0000 0.40703  0.99420  0.87040  Biso   1.000  O
  O186     1.0000 0.41152  0.08940  0.79500  Biso   1.000  O
  O187     1.0000 0.41311  0.91350  0.20690  Biso   1.000  O
  O188     1.0000 0.42286  0.94620  0.31650  Biso   1.000  O
  O189     1.0000 0.59654  0.58550  0.16360  Biso   1.000  O
  O190     1.0000 0.59981  0.56780  0.28140  Biso   1.000  O
  O191     1.0000 0.41307  0.25340  0.58610  Biso   1.000  O
  O192     1.0000 0.41345  0.14680  0.64170  Biso   1.000  O
  O193     1.0000 0.58601  0.12520  0.23790  Biso   1.000  O
  O194     1.0000 0.59559  0.02510  0.29930  Biso   1.000  O
  O195     1.0000 0.35218  0.93450  0.19340  Biso   1.000  O
  O196     1.0000 0.34038  0.04480  0.22230  Biso   1.000  O
  O197     1.0000 0.15269  0.94310  0.88100  Biso   1.000  O
  O198     1.0000 0.16849  0.05070  0.85000  Biso   1.000  O
  O199     1.0000 0.34559  0.98910  0.89990  Biso   1.000  O
  O200     1.0000 0.35454  0.05780  0.80380  Biso   1.000  O
  O201     1.0000 0.16111  0.30670  0.01140  Biso   1.000  O
  O202     1.0000 0.16022  0.33120  0.89460  Biso   1.000  O
  O203     1.0000 0.35385  0.90640  0.75370  Biso   1.000  O
  O204     1.0000 0.34299  0.98850  0.66870  Biso   1.000  O
  O205     1.0000 0.15379  0.64520  0.63500  Biso   1.000  O
  O206     1.0000 0.15537  0.70990  0.53270  Biso   1.000  O
  O207     1.0000 0.38455  0.03750  0.57070  Biso   1.000  O
  H281     1.0000 0.39420  0.07550  0.56540  Biso   1.000  H
  H282     1.0000 0.36800  0.04990  0.56570  Biso   1.000  H
  O208     1.0000 0.38568  0.94440  0.42550  Biso   1.000  O
  H283     1.0000 0.40140  0.93260  0.43980  Biso   1.000  H
  H284     1.0000 0.38400  0.93040  0.38190  Biso   1.000  H
  N85      1.0000 0.52269  0.21000  0.96270  Biso   1.000  N
  N86      1.0000 0.47708  0.16440  0.90840  Biso   1.000  N
  N87      1.0000 0.48564  0.79260  0.19730  Biso   1.000  N
  N88      1.0000 0.52729  0.71020  0.18970  Biso   1.000  N
  N89      1.0000 0.48056  0.19460  0.46550  Biso   1.000  N
  N90      1.0000 0.52133  0.16330  0.38090  Biso   1.000  N
  N91      1.0000 0.27403  0.03380  0.07970  Biso   1.000  N
  N92      1.0000 0.23252  0.03470  0.99270  Biso   1.000  N
  N93      1.0000 0.28019  0.12430  0.95010  Biso   1.000  N
  N94      1.0000 0.23457  0.19600  0.97450  Biso   1.000  N
  N95      1.0000 0.27328  0.86860  0.61770  Biso   1.000  N
  N96      1.0000 0.22739  0.80310  0.58950  Biso   1.000  N
  C505     1.0000 0.58530  0.24580  0.07360  Biso   1.000  C
  C506     1.0000 0.54666  0.23590  0.98650  Biso   1.000  C
  H285     1.0000 0.55480  0.27330  0.96090  Biso   1.000  H
  C507     1.0000 0.55960  0.20890  0.04760  Biso   1.000  C
  C508     1.0000 0.54792  0.15160  0.08440  Biso   1.000  C
  H286     1.0000 0.55640  0.13200  0.12480  Biso   1.000  H
  C509     1.0000 0.52330  0.12390  0.06020  Biso   1.000  C
  H287     1.0000 0.51510  0.08590  0.08450  Biso   1.000  H
  C510     1.0000 0.51122  0.15370  0.99930  Biso   1.000  C
  C511     1.0000 0.48591  0.12860  0.96850  Biso   1.000  C
  C512     1.0000 0.47084  0.07090  0.99580  Biso   1.000  C
  H288     1.0000 0.47600  0.04870  0.03880  Biso   1.000  H
  C513     1.0000 0.44845  0.04700  0.95940  Biso   1.000  C
  H289     1.0000 0.43830  0.00890  0.97760  Biso   1.000  H
  C514     1.0000 0.44107  0.08020  0.89510  Biso   1.000  C
  C515     1.0000 0.45543  0.14050  0.87190  Biso   1.000  C
  H290     1.0000 0.44990  0.16460  0.83020  Biso   1.000  H
  C516     1.0000 0.41754  0.05300  0.84890  Biso   1.000  C
  C517     1.0000 0.42780  0.91160  0.25980  Biso   1.000  C
  C518     1.0000 0.46400  0.83880  0.19610  Biso   1.000  C
  H291     1.0000 0.45710  0.85360  0.15180  Biso   1.000  H
  C519     1.0000 0.45220  0.86410  0.25940  Biso   1.000  C
  C520     1.0000 0.46180  0.84160  0.32440  Biso   1.000  C
  H292     1.0000 0.45390  0.85750  0.36710  Biso   1.000  H
  C521     1.0000 0.48380  0.79440  0.32660  Biso   1.000  C
  H293     1.0000 0.49070  0.77830  0.37050  Biso   1.000  H
  C522     1.0000 0.49500  0.77210  0.26140  Biso   1.000  C
  C523     1.0000 0.51890  0.72340  0.25760  Biso   1.000  C
  C524     1.0000 0.53150  0.69500  0.31690  Biso   1.000  C
  H294     1.0000 0.52460  0.70350  0.36310  Biso   1.000  H
  C525     1.0000 0.55470  0.65300  0.30780  Biso   1.000  C
  H295     1.0000 0.56360  0.63330  0.34750  Biso   1.000  H
  C526     1.0000 0.56400  0.64160  0.23940  Biso   1.000  C
  C527     1.0000 0.54940  0.66990  0.18120  Biso   1.000  C
  H296     1.0000 0.55540  0.66020  0.13450  Biso   1.000  H
  C528     1.0000 0.58890  0.59670  0.22620  Biso   1.000  C
  C529     1.0000 0.42230  0.19370  0.59940  Biso   1.000  C
  C530     1.0000 0.45790  0.21110  0.50010  Biso   1.000  C
  H297     1.0000 0.44750  0.24970  0.48350  Biso   1.000  H
  C531     1.0000 0.44880  0.17250  0.56100  Biso   1.000  C
  C532     1.0000 0.46461  0.11550  0.58430  Biso   1.000  C
  H298     1.0000 0.45930  0.08890  0.62470  Biso   1.000  H
  C533     1.0000 0.48840  0.09740  0.54780  Biso   1.000  C
  H299     1.0000 0.49930  0.05980  0.56410  Biso   1.000  H
  C534     1.0000 0.49543  0.13680  0.48660  Biso   1.000  C
  C535     1.0000 0.51887  0.12040  0.43940  Biso   1.000  C
  C536     1.0000 0.53730  0.06760  0.45420  Biso   1.000  C
  H300     1.0000 0.53560  0.04010  0.49610  Biso   1.000  H
  C537     1.0000 0.55864  0.05480  0.40650  Biso   1.000  C
  H301     1.0000 0.57150  0.01960  0.41650  Biso   1.000  H
  C538     1.0000 0.56022  0.09610  0.34330  Biso   1.000  C
  C539     1.0000 0.54105  0.15010  0.33310  Biso   1.000  C
  H302     1.0000 0.54200  0.17820  0.29140  Biso   1.000  H
  C540     1.0000 0.58210  0.08160  0.28830  Biso   1.000  C
  C541     1.0000 0.33640  0.98760  0.18750  Biso   1.000  C
  C542     1.0000 0.29620  0.03800  0.12160  Biso   1.000  C
  H303     1.0000 0.30150  0.08330  0.13790  Biso   1.000  H
  C543     1.0000 0.31140  0.97930  0.14180  Biso   1.000  C
  C544     1.0000 0.30310  0.91100  0.11980  Biso   1.000  C
  H304     1.0000 0.31300  0.87010  0.13230  Biso   1.000  H
  C545     1.0000 0.27930  0.90570  0.07810  Biso   1.000  C
  H305     1.0000 0.27320  0.86070  0.06270  Biso   1.000  H
  C546     1.0000 0.26520  0.96660  0.06010  Biso   1.000  C
  C547     1.0000 0.24040  0.96720  0.01520  Biso   1.000  C
  C548     1.0000 0.22610  0.90640  0.99680  Biso   1.000  C
  H306     1.0000 0.23210  0.86130  0.01210  Biso   1.000  H
  C549     1.0000 0.20260  0.91210  0.95550  Biso   1.000  C
  H307     1.0000 0.19210  0.87170  0.94530  Biso   1.000  H
  C550     1.0000 0.19550  0.97820  0.93030  Biso   1.000  C
  C551     1.0000 0.21040  0.03880  0.95050  Biso   1.000  C
  H308     1.0000 0.20470  0.08380  0.93420  Biso   1.000  H
  C552     1.0000 0.17060  0.99150  0.88330  Biso   1.000  C
  C553     1.0000 0.34210  0.04330  0.86140  Biso   1.000  C
  C554     1.0000 0.30072  0.08090  0.93630  Biso   1.000  C
  H309     1.0000 0.30260  0.03870  0.96330  Biso   1.000  H
  C555     1.0000 0.32019  0.09650  0.88140  Biso   1.000  C
  C556     1.0000 0.31753  0.16110  0.84490  Biso   1.000  C
  H310     1.0000 0.33030  0.17440  0.81050  Biso   1.000  H
  C557     1.0000 0.29578  0.20600  0.85970  Biso   1.000  C
  H311     1.0000 0.29410  0.25010  0.83600  Biso   1.000  H
  C558     1.0000 0.27632  0.18450  0.91030  Biso   1.000  C
  C559     1.0000 0.25110  0.22330  0.92290  Biso   1.000  C
  C560     1.0000 0.24330  0.28360  0.88070  Biso   1.000  C
  H312     1.0000 0.25520  0.30430  0.84780  Biso   1.000  H
  C561     1.0000 0.21762  0.31070  0.88960  Biso   1.000  C
  H313     1.0000 0.21180  0.34900  0.86100  Biso   1.000  H
  C562     1.0000 0.20010  0.28060  0.94200  Biso   1.000  C
  C563     1.0000 0.20990  0.22360  0.98350  Biso   1.000  C
  H314     1.0000 0.19870  0.20400  0.01900  Biso   1.000  H
  C564     1.0000 0.17160  0.30790  0.94960  Biso   1.000  C
  C565     1.0000 0.33910  0.93150  0.70290  Biso   1.000  C
  C566     1.0000 0.29570  0.90690  0.63300  Biso   1.000  C
  H315     1.0000 0.29850  0.95020  0.60860  Biso   1.000  H
  C567     1.0000 0.31480  0.88500  0.68340  Biso   1.000  C
  C568     1.0000 0.31150  0.81980  0.71730  Biso   1.000  C
  H316     1.0000 0.32470  0.80290  0.74890  Biso   1.000  H
  C569     1.0000 0.28840  0.77900  0.70430  Biso   1.000  C
  H317     1.0000 0.28560  0.73520  0.72770  Biso   1.000  H
  C570     1.0000 0.26950  0.80590  0.65490  Biso   1.000  C
  C571     1.0000 0.24310  0.77100  0.64080  Biso   1.000  C
  C572     1.0000 0.23380  0.70920  0.67820  Biso   1.000  C
  H318     1.0000 0.24480  0.68700  0.71240  Biso   1.000  H
  C573     1.0000 0.20870  0.68240  0.66370  Biso   1.000  C
  H319     1.0000 0.20240  0.64200  0.68830  Biso   1.000  H
  C574     1.0000 0.19280  0.71540  0.61260  Biso   1.000  C
  C575     1.0000 0.20260  0.77650  0.57670  Biso   1.000  C
  H320     1.0000 0.19150  0.79940  0.54300  Biso   1.000  H
  C576     1.0000 0.16470  0.68770  0.59090  Biso   1.000  C
