data_image0
_cell_length_a       38.7657
_cell_length_b       38.7657
_cell_length_c       56.4541
_cell_angle_alpha    90
_cell_angle_beta     90
_cell_angle_gamma    90

_symmetry_space_group_name_H-M    "P 1"
_symmetry_int_tables_number       1

loop_
  _symmetry_equiv_pos_as_xyz
  'x, y, z'

loop_
  _atom_site_label
  _atom_site_occupancy
  _atom_site_fract_x
  _atom_site_fract_y
  _atom_site_fract_z
  _atom_site_thermal_displace_type
  _atom_site_B_iso_or_equiv
  _atom_site_type_symbol
  Zn1      1.0000 0.31680  0.42430  0.33790  Biso   1.000  Zn
  Zn2      1.0000 0.17700  0.42420  0.37260  Biso   1.000  Zn
  Zn3      1.0000 0.21980  0.32620  0.29770  Biso   1.000  Zn
  Zn4      1.0000 0.07350  0.42350  0.44810  Biso   1.000  Zn
  Cl1      1.0000 0.22500  0.43870  0.22140  Biso   1.000  Cl
  Cl2      1.0000 0.24740  0.34770  0.44750  Biso   1.000  Cl
  Cl3      1.0000 0.10280  0.42210  0.27190  Biso   1.000  Cl
  Cl4      1.0000 0.16970  0.22720  0.37520  Biso   1.000  Cl
  Cl5      1.0000 0.04520  0.34140  0.35450  Biso   1.000  Cl
  Cl6      1.0000 0.06890  0.46180  0.30060  Biso   1.000  Cl
  Cl7      1.0000 0.13620  0.27780  0.45260  Biso   1.000  Cl
  Cl8      1.0000 0.41280  0.46730  0.41810  Biso   1.000  Cl
  Cl9      1.0000 0.03140  0.44700  0.35170  Biso   1.000  Cl
  Cl10     1.0000 0.23230  0.40890  0.47820  Biso   1.000  Cl
  N1       1.0000 0.32890  0.47290  0.32970  Biso   1.000  N
  N2       1.0000 0.29310  0.40130  0.31080  Biso   1.000  N
  N3       1.0000 0.25860  0.36130  0.29530  Biso   1.000  N
  N4       1.0000 0.28360  0.42510  0.36380  Biso   1.000  N
  N5       1.0000 0.22920  0.42700  0.37660  Biso   1.000  N
  N6       1.0000 0.19210  0.32330  0.26760  Biso   1.000  N
  N7       1.0000 0.24160  0.28220  0.30490  Biso   1.000  N
  N8       1.0000 0.17110  0.38780  0.34710  Biso   1.000  N
  N9       1.0000 0.18940  0.34490  0.32230  Biso   1.000  N
  N10      1.0000 0.16210  0.46860  0.36350  Biso   1.000  N
  N11      1.0000 0.10310  0.40500  0.42590  Biso   1.000  N
  N12      1.0000 0.15120  0.40710  0.39870  Biso   1.000  N
  N13      1.0000 0.35930  0.39700  0.34540  Biso   1.000  N
  N14      1.0000 0.06500  0.47070  0.43520  Biso   1.000  N
  N15      1.0000 0.03000  0.40200  0.44880  Biso   1.000  N
  N16      1.0000 0.09350  0.42570  0.47980  Biso   1.000  N
  C1       1.0000 0.35700  0.47910  0.31470  Biso   1.000  C
  C2       1.0000 0.38330  0.46370  0.30070  Biso   1.000  C
  C3       1.0000 0.39980  0.48550  0.28440  Biso   1.000  C
  C4       1.0000 0.27860  0.37040  0.31400  Biso   1.000  C
  C5       1.0000 0.28270  0.41070  0.29180  Biso   1.000  C
  C6       1.0000 0.29170  0.44080  0.28000  Biso   1.000  C
  C7       1.0000 0.27850  0.44760  0.25760  Biso   1.000  C
  C8       1.0000 0.25630  0.42410  0.24690  Biso   1.000  C
  C9       1.0000 0.24730  0.39390  0.25870  Biso   1.000  C
  C10      1.0000 0.26050  0.38720  0.28110  Biso   1.000  C
  C11      1.0000 0.25010  0.43790  0.35890  Biso   1.000  C
  C12      1.0000 0.24360  0.40970  0.39470  Biso   1.000  C
  C13      1.0000 0.23970  0.39380  0.41660  Biso   1.000  C
  C14      1.0000 0.26770  0.37780  0.42730  Biso   1.000  C
  C15      1.0000 0.29970  0.37790  0.41620  Biso   1.000  C
  C16      1.0000 0.30370  0.39380  0.39440  Biso   1.000  C
  C17      1.0000 0.27560  0.40970  0.38360  Biso   1.000  C
  C18      1.0000 0.16350  0.34480  0.26030  Biso   1.000  C
  C19      1.0000 0.14960  0.37300  0.27310  Biso   1.000  C
  C20      1.0000 0.12520  0.38750  0.25910  Biso   1.000  C
  C21      1.0000 0.23210  0.25890  0.32230  Biso   1.000  C
  C22      1.0000 0.20410  0.25890  0.34140  Biso   1.000  C
  C23      1.0000 0.20500  0.22850  0.35500  Biso   1.000  C
  C24      1.0000 0.19860  0.37230  0.33500  Biso   1.000  C
  C25      1.0000 0.15570  0.34150  0.32760  Biso   1.000  C
  C26      1.0000 0.13300  0.31670  0.31910  Biso   1.000  C
  C27      1.0000 0.09890  0.31630  0.32670  Biso   1.000  C
  C28      1.0000 0.08750  0.34090  0.34290  Biso   1.000  C
  C29      1.0000 0.11020  0.36570  0.35140  Biso   1.000  C
  C30      1.0000 0.14430  0.36600  0.34380  Biso   1.000  C
  C31      1.0000 0.13800  0.48030  0.34510  Biso   1.000  C
  C32      1.0000 0.11830  0.45980  0.33350  Biso   1.000  C
  C33      1.0000 0.10180  0.48160  0.31990  Biso   1.000  C
  C34      1.0000 0.12420  0.42380  0.41080  Biso   1.000  C
  C35      1.0000 0.14640  0.37460  0.40520  Biso   1.000  C
  C36      1.0000 0.16290  0.34340  0.40110  Biso   1.000  C
  C37      1.0000 0.15420  0.31440  0.41430  Biso   1.000  C
  C38      1.0000 0.12890  0.31660  0.43160  Biso   1.000  C
  C39      1.0000 0.11230  0.34790  0.43580  Biso   1.000  C
  C40      1.0000 0.12100  0.37680  0.42260  Biso   1.000  C
  C41      1.0000 0.38180  0.40910  0.36200  Biso   1.000  C
  C42      1.0000 0.38370  0.43900  0.38030  Biso   1.000  C
  C43      1.0000 0.41130  0.43610  0.39420  Biso   1.000  C
  C44      1.0000 0.05930  0.48480  0.41300  Biso   1.000  C
  C45      1.0000 0.05050  0.46350  0.39400  Biso   1.000  C
  C46      1.0000 0.04340  0.48040  0.37330  Biso   1.000  C
  C47      1.0000 0.12800  0.42340  0.48790  Biso   1.000  C
  C48      1.0000 0.15810  0.40970  0.47540  Biso   1.000  C
  C49      1.0000 0.18560  0.40350  0.48760  Biso   1.000  C
  C50      1.0000 0.01730  0.37830  0.46840  Biso   1.000  C
  C51      1.0000 0.03130  0.35480  0.48460  Biso   1.000  C
  C52      1.0000 0.01840  0.32130  0.48710  Biso   1.000  C
  Zn5      1.0000 0.81680  0.92430  0.83790  Biso   1.000  Zn
  Zn6      1.0000 0.67700  0.92420  0.87260  Biso   1.000  Zn
  Zn7      1.0000 0.71980  0.82620  0.79770  Biso   1.000  Zn
  Zn8      1.0000 0.57350  0.92350  0.94810  Biso   1.000  Zn
  Cl11     1.0000 0.72500  0.93870  0.72140  Biso   1.000  Cl
  Cl12     1.0000 0.74740  0.84770  0.94750  Biso   1.000  Cl
  Cl13     1.0000 0.60280  0.92210  0.77190  Biso   1.000  Cl
  Cl14     1.0000 0.66970  0.72720  0.87520  Biso   1.000  Cl
  Cl15     1.0000 0.54520  0.84140  0.85450  Biso   1.000  Cl
  Cl16     1.0000 0.56890  0.96180  0.80060  Biso   1.000  Cl
  Cl17     1.0000 0.63620  0.77780  0.95260  Biso   1.000  Cl
  Cl18     1.0000 0.91280  0.96730  0.91810  Biso   1.000  Cl
  Cl19     1.0000 0.53140  0.94700  0.85170  Biso   1.000  Cl
  Cl20     1.0000 0.73230  0.90890  0.97820  Biso   1.000  Cl
  N17      1.0000 0.82890  0.97290  0.82970  Biso   1.000  N
  N18      1.0000 0.79310  0.90130  0.81080  Biso   1.000  N
  N19      1.0000 0.75860  0.86130  0.79530  Biso   1.000  N
  N20      1.0000 0.78360  0.92510  0.86380  Biso   1.000  N
  N21      1.0000 0.72920  0.92700  0.87660  Biso   1.000  N
  N22      1.0000 0.69210  0.82330  0.76760  Biso   1.000  N
  N23      1.0000 0.74160  0.78220  0.80490  Biso   1.000  N
  N24      1.0000 0.67110  0.88780  0.84710  Biso   1.000  N
  N25      1.0000 0.68940  0.84490  0.82230  Biso   1.000  N
  N26      1.0000 0.66210  0.96860  0.86350  Biso   1.000  N
  N27      1.0000 0.60310  0.90500  0.92590  Biso   1.000  N
  N28      1.0000 0.65120  0.90710  0.89870  Biso   1.000  N
  N29      1.0000 0.85930  0.89700  0.84540  Biso   1.000  N
  N30      1.0000 0.56500  0.97070  0.93520  Biso   1.000  N
  N31      1.0000 0.53000  0.90200  0.94880  Biso   1.000  N
  N32      1.0000 0.59350  0.92570  0.97980  Biso   1.000  N
  C53      1.0000 0.85700  0.97910  0.81470  Biso   1.000  C
  C54      1.0000 0.88330  0.96370  0.80070  Biso   1.000  C
  C55      1.0000 0.89980  0.98550  0.78440  Biso   1.000  C
  C56      1.0000 0.77860  0.87040  0.81400  Biso   1.000  C
  C57      1.0000 0.78270  0.91070  0.79180  Biso   1.000  C
  C58      1.0000 0.79170  0.94080  0.78000  Biso   1.000  C
  C59      1.0000 0.77850  0.94760  0.75760  Biso   1.000  C
  C60      1.0000 0.75630  0.92410  0.74690  Biso   1.000  C
  C61      1.0000 0.74730  0.89390  0.75870  Biso   1.000  C
  C62      1.0000 0.76050  0.88720  0.78110  Biso   1.000  C
  C63      1.0000 0.75010  0.93790  0.85890  Biso   1.000  C
  C64      1.0000 0.74360  0.90970  0.89470  Biso   1.000  C
  C65      1.0000 0.73970  0.89380  0.91660  Biso   1.000  C
  C66      1.0000 0.76770  0.87780  0.92730  Biso   1.000  C
  C67      1.0000 0.79970  0.87790  0.91620  Biso   1.000  C
  C68      1.0000 0.80370  0.89380  0.89440  Biso   1.000  C
  C69      1.0000 0.77560  0.90970  0.88360  Biso   1.000  C
  C70      1.0000 0.66350  0.84480  0.76030  Biso   1.000  C
  C71      1.0000 0.64960  0.87300  0.77310  Biso   1.000  C
  C72      1.0000 0.62520  0.88750  0.75910  Biso   1.000  C
  C73      1.0000 0.73210  0.75890  0.82230  Biso   1.000  C
  C74      1.0000 0.70410  0.75890  0.84140  Biso   1.000  C
  C75      1.0000 0.70500  0.72850  0.85500  Biso   1.000  C
  C76      1.0000 0.69860  0.87230  0.83500  Biso   1.000  C
  C77      1.0000 0.65570  0.84150  0.82760  Biso   1.000  C
  C78      1.0000 0.63300  0.81670  0.81910  Biso   1.000  C
  C79      1.0000 0.59890  0.81630  0.82670  Biso   1.000  C
  C80      1.0000 0.58750  0.84090  0.84290  Biso   1.000  C
  C81      1.0000 0.61020  0.86570  0.85140  Biso   1.000  C
  C82      1.0000 0.64430  0.86600  0.84380  Biso   1.000  C
  C83      1.0000 0.63800  0.98030  0.84510  Biso   1.000  C
  C84      1.0000 0.61830  0.95980  0.83350  Biso   1.000  C
  C85      1.0000 0.60180  0.98160  0.81990  Biso   1.000  C
  C86      1.0000 0.62420  0.92380  0.91080  Biso   1.000  C
  C87      1.0000 0.64640  0.87460  0.90520  Biso   1.000  C
  C88      1.0000 0.66290  0.84340  0.90110  Biso   1.000  C
  C89      1.0000 0.65420  0.81440  0.91430  Biso   1.000  C
  C90      1.0000 0.62890  0.81660  0.93160  Biso   1.000  C
  C91      1.0000 0.61230  0.84790  0.93580  Biso   1.000  C
  C92      1.0000 0.62100  0.87680  0.92260  Biso   1.000  C
  C93      1.0000 0.88180  0.90910  0.86200  Biso   1.000  C
  C94      1.0000 0.88370  0.93900  0.88030  Biso   1.000  C
  C95      1.0000 0.91130  0.93610  0.89420  Biso   1.000  C
  C96      1.0000 0.55930  0.98480  0.91300  Biso   1.000  C
  C97      1.0000 0.55050  0.96350  0.89400  Biso   1.000  C
  C98      1.0000 0.54340  0.98040  0.87330  Biso   1.000  C
  C99      1.0000 0.62800  0.92340  0.98790  Biso   1.000  C
  C100     1.0000 0.65810  0.90970  0.97540  Biso   1.000  C
  C101     1.0000 0.68560  0.90350  0.98760  Biso   1.000  C
  C102     1.0000 0.51730  0.87830  0.96840  Biso   1.000  C
  C103     1.0000 0.53130  0.85480  0.98460  Biso   1.000  C
  C104     1.0000 0.51840  0.82130  0.98710  Biso   1.000  C
  Zn9      1.0000 0.68320  0.57570  0.33790  Biso   1.000  Zn
  Zn10     1.0000 0.82300  0.57580  0.37260  Biso   1.000  Zn
  Zn11     1.0000 0.78020  0.67380  0.29770  Biso   1.000  Zn
  Zn12     1.0000 0.92650  0.57650  0.44810  Biso   1.000  Zn
  Cl21     1.0000 0.77500  0.56130  0.22140  Biso   1.000  Cl
  Cl22     1.0000 0.75260  0.65230  0.44750  Biso   1.000  Cl
  Cl23     1.0000 0.89720  0.57790  0.27190  Biso   1.000  Cl
  Cl24     1.0000 0.83030  0.77280  0.37520  Biso   1.000  Cl
  Cl25     1.0000 0.95480  0.65860  0.35450  Biso   1.000  Cl
  Cl26     1.0000 0.93110  0.53820  0.30060  Biso   1.000  Cl
  Cl27     1.0000 0.86380  0.72220  0.45260  Biso   1.000  Cl
  Cl28     1.0000 0.58720  0.53270  0.41810  Biso   1.000  Cl
  Cl29     1.0000 0.96860  0.55300  0.35170  Biso   1.000  Cl
  Cl30     1.0000 0.76770  0.59110  0.47820  Biso   1.000  Cl
  N33      1.0000 0.67110  0.52710  0.32970  Biso   1.000  N
  N34      1.0000 0.70690  0.59870  0.31080  Biso   1.000  N
  N35      1.0000 0.74140  0.63870  0.29530  Biso   1.000  N
  N36      1.0000 0.71640  0.57490  0.36380  Biso   1.000  N
  N37      1.0000 0.77080  0.57300  0.37660  Biso   1.000  N
  N38      1.0000 0.80790  0.67670  0.26760  Biso   1.000  N
  N39      1.0000 0.75840  0.71780  0.30490  Biso   1.000  N
  N40      1.0000 0.82890  0.61220  0.34710  Biso   1.000  N
  N41      1.0000 0.81060  0.65510  0.32230  Biso   1.000  N
  N42      1.0000 0.83790  0.53140  0.36350  Biso   1.000  N
  N43      1.0000 0.89690  0.59500  0.42590  Biso   1.000  N
  N44      1.0000 0.84880  0.59290  0.39870  Biso   1.000  N
  N45      1.0000 0.64070  0.60300  0.34540  Biso   1.000  N
  N46      1.0000 0.93500  0.52930  0.43520  Biso   1.000  N
  N47      1.0000 0.97000  0.59800  0.44880  Biso   1.000  N
  N48      1.0000 0.90650  0.57430  0.47980  Biso   1.000  N
  C105     1.0000 0.64300  0.52090  0.31470  Biso   1.000  C
  C106     1.0000 0.61670  0.53630  0.30070  Biso   1.000  C
  C107     1.0000 0.60020  0.51450  0.28440  Biso   1.000  C
  C108     1.0000 0.72140  0.62960  0.31400  Biso   1.000  C
  C109     1.0000 0.71730  0.58930  0.29180  Biso   1.000  C
  C110     1.0000 0.70830  0.55920  0.28000  Biso   1.000  C
  C111     1.0000 0.72150  0.55240  0.25760  Biso   1.000  C
  C112     1.0000 0.74370  0.57590  0.24690  Biso   1.000  C
  C113     1.0000 0.75270  0.60610  0.25870  Biso   1.000  C
  C114     1.0000 0.73950  0.61280  0.28110  Biso   1.000  C
  C115     1.0000 0.74990  0.56210  0.35890  Biso   1.000  C
  C116     1.0000 0.75640  0.59030  0.39470  Biso   1.000  C
  C117     1.0000 0.76030  0.60620  0.41660  Biso   1.000  C
  C118     1.0000 0.73230  0.62220  0.42730  Biso   1.000  C
  C119     1.0000 0.70030  0.62210  0.41620  Biso   1.000  C
  C120     1.0000 0.69630  0.60620  0.39440  Biso   1.000  C
  C121     1.0000 0.72440  0.59030  0.38360  Biso   1.000  C
  C122     1.0000 0.83650  0.65520  0.26030  Biso   1.000  C
  C123     1.0000 0.85040  0.62700  0.27310  Biso   1.000  C
  C124     1.0000 0.87480  0.61250  0.25910  Biso   1.000  C
  C125     1.0000 0.76790  0.74110  0.32230  Biso   1.000  C
  C126     1.0000 0.79590  0.74110  0.34140  Biso   1.000  C
  C127     1.0000 0.79500  0.77150  0.35500  Biso   1.000  C
  C128     1.0000 0.80140  0.62770  0.33500  Biso   1.000  C
  C129     1.0000 0.84430  0.65850  0.32760  Biso   1.000  C
  C130     1.0000 0.86700  0.68330  0.31910  Biso   1.000  C
  C131     1.0000 0.90110  0.68370  0.32670  Biso   1.000  C
  C132     1.0000 0.91250  0.65910  0.34290  Biso   1.000  C
  C133     1.0000 0.88980  0.63430  0.35140  Biso   1.000  C
  C134     1.0000 0.85570  0.63400  0.34380  Biso   1.000  C
  C135     1.0000 0.86200  0.51970  0.34510  Biso   1.000  C
  C136     1.0000 0.88170  0.54020  0.33350  Biso   1.000  C
  C137     1.0000 0.89820  0.51840  0.31990  Biso   1.000  C
  C138     1.0000 0.87580  0.57620  0.41080  Biso   1.000  C
  C139     1.0000 0.85360  0.62540  0.40520  Biso   1.000  C
  C140     1.0000 0.83710  0.65660  0.40110  Biso   1.000  C
  C141     1.0000 0.84580  0.68560  0.41430  Biso   1.000  C
  C142     1.0000 0.87110  0.68340  0.43160  Biso   1.000  C
  C143     1.0000 0.88770  0.65210  0.43580  Biso   1.000  C
  C144     1.0000 0.87900  0.62320  0.42260  Biso   1.000  C
  C145     1.0000 0.61820  0.59090  0.36200  Biso   1.000  C
  C146     1.0000 0.61630  0.56100  0.38030  Biso   1.000  C
  C147     1.0000 0.58870  0.56390  0.39420  Biso   1.000  C
  C148     1.0000 0.94070  0.51520  0.41300  Biso   1.000  C
  C149     1.0000 0.94950  0.53650  0.39400  Biso   1.000  C
  C150     1.0000 0.95660  0.51960  0.37330  Biso   1.000  C
  C151     1.0000 0.87200  0.57660  0.48790  Biso   1.000  C
  C152     1.0000 0.84190  0.59030  0.47540  Biso   1.000  C
  C153     1.0000 0.81440  0.59650  0.48760  Biso   1.000  C
  C154     1.0000 0.98270  0.62170  0.46840  Biso   1.000  C
  C155     1.0000 0.96870  0.64520  0.48460  Biso   1.000  C
  C156     1.0000 0.98160  0.67870  0.48710  Biso   1.000  C
  Zn13     1.0000 0.18320  0.07570  0.83790  Biso   1.000  Zn
  Zn14     1.0000 0.32300  0.07580  0.87260  Biso   1.000  Zn
  Zn15     1.0000 0.28020  0.17380  0.79770  Biso   1.000  Zn
  Zn16     1.0000 0.42650  0.07650  0.94810  Biso   1.000  Zn
  Cl31     1.0000 0.27500  0.06130  0.72140  Biso   1.000  Cl
  Cl32     1.0000 0.25260  0.15230  0.94750  Biso   1.000  Cl
  Cl33     1.0000 0.39720  0.07790  0.77190  Biso   1.000  Cl
  Cl34     1.0000 0.33030  0.27280  0.87520  Biso   1.000  Cl
  Cl35     1.0000 0.45480  0.15860  0.85450  Biso   1.000  Cl
  Cl36     1.0000 0.43110  0.03820  0.80060  Biso   1.000  Cl
  Cl37     1.0000 0.36380  0.22220  0.95260  Biso   1.000  Cl
  Cl38     1.0000 0.08720  0.03270  0.91810  Biso   1.000  Cl
  Cl39     1.0000 0.46860  0.05300  0.85170  Biso   1.000  Cl
  Cl40     1.0000 0.26770  0.09110  0.97820  Biso   1.000  Cl
  N49      1.0000 0.17110  0.02710  0.82970  Biso   1.000  N
  N50      1.0000 0.20690  0.09870  0.81080  Biso   1.000  N
  N51      1.0000 0.24140  0.13870  0.79530  Biso   1.000  N
  N52      1.0000 0.21640  0.07490  0.86380  Biso   1.000  N
  N53      1.0000 0.27080  0.07300  0.87660  Biso   1.000  N
  N54      1.0000 0.30790  0.17670  0.76760  Biso   1.000  N
  N55      1.0000 0.25840  0.21780  0.80490  Biso   1.000  N
  N56      1.0000 0.32890  0.11220  0.84710  Biso   1.000  N
  N57      1.0000 0.31060  0.15510  0.82230  Biso   1.000  N
  N58      1.0000 0.33790  0.03140  0.86350  Biso   1.000  N
  N59      1.0000 0.39690  0.09500  0.92590  Biso   1.000  N
  N60      1.0000 0.34880  0.09290  0.89870  Biso   1.000  N
  N61      1.0000 0.14070  0.10300  0.84540  Biso   1.000  N
  N62      1.0000 0.43500  0.02930  0.93520  Biso   1.000  N
  N63      1.0000 0.47000  0.09800  0.94880  Biso   1.000  N
  N64      1.0000 0.40650  0.07430  0.97980  Biso   1.000  N
  C157     1.0000 0.14300  0.02090  0.81470  Biso   1.000  C
  C158     1.0000 0.11670  0.03630  0.80070  Biso   1.000  C
  C159     1.0000 0.10020  0.01450  0.78440  Biso   1.000  C
  C160     1.0000 0.22140  0.12960  0.81400  Biso   1.000  C
  C161     1.0000 0.21730  0.08930  0.79180  Biso   1.000  C
  C162     1.0000 0.20830  0.05920  0.78000  Biso   1.000  C
  C163     1.0000 0.22150  0.05240  0.75760  Biso   1.000  C
  C164     1.0000 0.24370  0.07590  0.74690  Biso   1.000  C
  C165     1.0000 0.25270  0.10610  0.75870  Biso   1.000  C
  C166     1.0000 0.23950  0.11280  0.78110  Biso   1.000  C
  C167     1.0000 0.24990  0.06210  0.85890  Biso   1.000  C
  C168     1.0000 0.25640  0.09030  0.89470  Biso   1.000  C
  C169     1.0000 0.26030  0.10620  0.91660  Biso   1.000  C
  C170     1.0000 0.23230  0.12220  0.92730  Biso   1.000  C
  C171     1.0000 0.20030  0.12210  0.91620  Biso   1.000  C
  C172     1.0000 0.19630  0.10620  0.89440  Biso   1.000  C
  C173     1.0000 0.22440  0.09030  0.88360  Biso   1.000  C
  C174     1.0000 0.33650  0.15520  0.76030  Biso   1.000  C
  C175     1.0000 0.35040  0.12700  0.77310  Biso   1.000  C
  C176     1.0000 0.37480  0.11250  0.75910  Biso   1.000  C
  C177     1.0000 0.26790  0.24110  0.82230  Biso   1.000  C
  C178     1.0000 0.29590  0.24110  0.84140  Biso   1.000  C
  C179     1.0000 0.29500  0.27150  0.85500  Biso   1.000  C
  C180     1.0000 0.30140  0.12770  0.83500  Biso   1.000  C
  C181     1.0000 0.34430  0.15850  0.82760  Biso   1.000  C
  C182     1.0000 0.36700  0.18330  0.81910  Biso   1.000  C
  C183     1.0000 0.40110  0.18370  0.82670  Biso   1.000  C
  C184     1.0000 0.41250  0.15910  0.84290  Biso   1.000  C
  C185     1.0000 0.38980  0.13430  0.85140  Biso   1.000  C
  C186     1.0000 0.35570  0.13400  0.84380  Biso   1.000  C
  C187     1.0000 0.36200  0.01970  0.84510  Biso   1.000  C
  C188     1.0000 0.38170  0.04020  0.83350  Biso   1.000  C
  C189     1.0000 0.39820  0.01840  0.81990  Biso   1.000  C
  C190     1.0000 0.37580  0.07620  0.91080  Biso   1.000  C
  C191     1.0000 0.35360  0.12540  0.90520  Biso   1.000  C
  C192     1.0000 0.33710  0.15660  0.90110  Biso   1.000  C
  C193     1.0000 0.34580  0.18560  0.91430  Biso   1.000  C
  C194     1.0000 0.37110  0.18340  0.93160  Biso   1.000  C
  C195     1.0000 0.38770  0.15210  0.93580  Biso   1.000  C
  C196     1.0000 0.37900  0.12320  0.92260  Biso   1.000  C
  C197     1.0000 0.11820  0.09090  0.86200  Biso   1.000  C
  C198     1.0000 0.11630  0.06100  0.88030  Biso   1.000  C
  C199     1.0000 0.08870  0.06390  0.89420  Biso   1.000  C
  C200     1.0000 0.44070  0.01520  0.91300  Biso   1.000  C
  C201     1.0000 0.44950  0.03650  0.89400  Biso   1.000  C
  C202     1.0000 0.45660  0.01960  0.87330  Biso   1.000  C
  C203     1.0000 0.37200  0.07660  0.98790  Biso   1.000  C
  C204     1.0000 0.34190  0.09030  0.97540  Biso   1.000  C
  C205     1.0000 0.31440  0.09650  0.98760  Biso   1.000  C
  C206     1.0000 0.48270  0.12170  0.96840  Biso   1.000  C
  C207     1.0000 0.46870  0.14520  0.98460  Biso   1.000  C
  C208     1.0000 0.48160  0.17870  0.98710  Biso   1.000  C
  Zn17     1.0000 0.57570  0.31680  0.33790  Biso   1.000  Zn
  Zn18     1.0000 0.57580  0.17700  0.37260  Biso   1.000  Zn
  Zn19     1.0000 0.67380  0.21980  0.29770  Biso   1.000  Zn
  Zn20     1.0000 0.57650  0.07350  0.44810  Biso   1.000  Zn
  Cl41     1.0000 0.56130  0.22500  0.22140  Biso   1.000  Cl
  Cl42     1.0000 0.65230  0.24740  0.44750  Biso   1.000  Cl
  Cl43     1.0000 0.57790  0.10280  0.27190  Biso   1.000  Cl
  Cl44     1.0000 0.77280  0.16970  0.37520  Biso   1.000  Cl
  Cl45     1.0000 0.65860  0.04520  0.35450  Biso   1.000  Cl
  Cl46     1.0000 0.53820  0.06890  0.30060  Biso   1.000  Cl
  Cl47     1.0000 0.72220  0.13620  0.45260  Biso   1.000  Cl
  Cl48     1.0000 0.53270  0.41280  0.41810  Biso   1.000  Cl
  Cl49     1.0000 0.55300  0.03140  0.35170  Biso   1.000  Cl
  Cl50     1.0000 0.59110  0.23230  0.47820  Biso   1.000  Cl
  N65      1.0000 0.52710  0.32890  0.32970  Biso   1.000  N
  N66      1.0000 0.59870  0.29310  0.31080  Biso   1.000  N
  N67      1.0000 0.63870  0.25860  0.29530  Biso   1.000  N
  N68      1.0000 0.57490  0.28360  0.36380  Biso   1.000  N
  N69      1.0000 0.57300  0.22920  0.37660  Biso   1.000  N
  N70      1.0000 0.67670  0.19210  0.26760  Biso   1.000  N
  N71      1.0000 0.71780  0.24160  0.30490  Biso   1.000  N
  N72      1.0000 0.61220  0.17110  0.34710  Biso   1.000  N
  N73      1.0000 0.65510  0.18940  0.32230  Biso   1.000  N
  N74      1.0000 0.53140  0.16210  0.36350  Biso   1.000  N
  N75      1.0000 0.59500  0.10310  0.42590  Biso   1.000  N
  N76      1.0000 0.59290  0.15120  0.39870  Biso   1.000  N
  N77      1.0000 0.60300  0.35930  0.34540  Biso   1.000  N
  N78      1.0000 0.52930  0.06500  0.43520  Biso   1.000  N
  N79      1.0000 0.59800  0.03000  0.44880  Biso   1.000  N
  N80      1.0000 0.57430  0.09350  0.47980  Biso   1.000  N
  C209     1.0000 0.52090  0.35700  0.31470  Biso   1.000  C
  C210     1.0000 0.53630  0.38330  0.30070  Biso   1.000  C
  C211     1.0000 0.51450  0.39980  0.28440  Biso   1.000  C
  C212     1.0000 0.62960  0.27860  0.31400  Biso   1.000  C
  C213     1.0000 0.58930  0.28270  0.29180  Biso   1.000  C
  C214     1.0000 0.55920  0.29170  0.28000  Biso   1.000  C
  C215     1.0000 0.55240  0.27850  0.25760  Biso   1.000  C
  C216     1.0000 0.57590  0.25630  0.24690  Biso   1.000  C
  C217     1.0000 0.60610  0.24730  0.25870  Biso   1.000  C
  C218     1.0000 0.61280  0.26050  0.28110  Biso   1.000  C
  C219     1.0000 0.56210  0.25010  0.35890  Biso   1.000  C
  C220     1.0000 0.59030  0.24360  0.39470  Biso   1.000  C
  C221     1.0000 0.60620  0.23970  0.41660  Biso   1.000  C
  C222     1.0000 0.62220  0.26770  0.42730  Biso   1.000  C
  C223     1.0000 0.62210  0.29970  0.41620  Biso   1.000  C
  C224     1.0000 0.60620  0.30370  0.39440  Biso   1.000  C
  C225     1.0000 0.59030  0.27560  0.38360  Biso   1.000  C
  C226     1.0000 0.65520  0.16350  0.26030  Biso   1.000  C
  C227     1.0000 0.62700  0.14960  0.27310  Biso   1.000  C
  C228     1.0000 0.61250  0.12520  0.25910  Biso   1.000  C
  C229     1.0000 0.74110  0.23210  0.32230  Biso   1.000  C
  C230     1.0000 0.74110  0.20410  0.34140  Biso   1.000  C
  C231     1.0000 0.77150  0.20500  0.35500  Biso   1.000  C
  C232     1.0000 0.62770  0.19860  0.33500  Biso   1.000  C
  C233     1.0000 0.65850  0.15570  0.32760  Biso   1.000  C
  C234     1.0000 0.68330  0.13300  0.31910  Biso   1.000  C
  C235     1.0000 0.68370  0.09890  0.32670  Biso   1.000  C
  C236     1.0000 0.65910  0.08750  0.34290  Biso   1.000  C
  C237     1.0000 0.63430  0.11020  0.35140  Biso   1.000  C
  C238     1.0000 0.63400  0.14430  0.34380  Biso   1.000  C
  C239     1.0000 0.51970  0.13800  0.34510  Biso   1.000  C
  C240     1.0000 0.54020  0.11830  0.33350  Biso   1.000  C
  C241     1.0000 0.51840  0.10180  0.31990  Biso   1.000  C
  C242     1.0000 0.57620  0.12420  0.41080  Biso   1.000  C
  C243     1.0000 0.62540  0.14640  0.40520  Biso   1.000  C
  C244     1.0000 0.65660  0.16290  0.40110  Biso   1.000  C
  C245     1.0000 0.68560  0.15420  0.41430  Biso   1.000  C
  C246     1.0000 0.68340  0.12890  0.43160  Biso   1.000  C
  C247     1.0000 0.65210  0.11230  0.43580  Biso   1.000  C
  C248     1.0000 0.62320  0.12100  0.42260  Biso   1.000  C
  C249     1.0000 0.59090  0.38180  0.36200  Biso   1.000  C
  C250     1.0000 0.56100  0.38370  0.38030  Biso   1.000  C
  C251     1.0000 0.56390  0.41130  0.39420  Biso   1.000  C
  C252     1.0000 0.51520  0.05930  0.41300  Biso   1.000  C
  C253     1.0000 0.53650  0.05050  0.39400  Biso   1.000  C
  C254     1.0000 0.51960  0.04340  0.37330  Biso   1.000  C
  C255     1.0000 0.57660  0.12800  0.48790  Biso   1.000  C
  C256     1.0000 0.59030  0.15810  0.47540  Biso   1.000  C
  C257     1.0000 0.59650  0.18560  0.48760  Biso   1.000  C
  C258     1.0000 0.62170  0.01730  0.46840  Biso   1.000  C
  C259     1.0000 0.64520  0.03130  0.48460  Biso   1.000  C
  C260     1.0000 0.67870  0.01840  0.48710  Biso   1.000  C
  Zn21     1.0000 0.07570  0.81680  0.83790  Biso   1.000  Zn
  Zn22     1.0000 0.07580  0.67700  0.87260  Biso   1.000  Zn
  Zn23     1.0000 0.17380  0.71980  0.79770  Biso   1.000  Zn
  Zn24     1.0000 0.07650  0.57350  0.94810  Biso   1.000  Zn
  Cl51     1.0000 0.06130  0.72500  0.72140  Biso   1.000  Cl
  Cl52     1.0000 0.15230  0.74740  0.94750  Biso   1.000  Cl
  Cl53     1.0000 0.07790  0.60280  0.77190  Biso   1.000  Cl
  Cl54     1.0000 0.27280  0.66970  0.87520  Biso   1.000  Cl
  Cl55     1.0000 0.15860  0.54520  0.85450  Biso   1.000  Cl
  Cl56     1.0000 0.03820  0.56890  0.80060  Biso   1.000  Cl
  Cl57     1.0000 0.22220  0.63620  0.95260  Biso   1.000  Cl
  Cl58     1.0000 0.03270  0.91280  0.91810  Biso   1.000  Cl
  Cl59     1.0000 0.05300  0.53140  0.85170  Biso   1.000  Cl
  Cl60     1.0000 0.09110  0.73230  0.97820  Biso   1.000  Cl
  N81      1.0000 0.02710  0.82890  0.82970  Biso   1.000  N
  N82      1.0000 0.09870  0.79310  0.81080  Biso   1.000  N
  N83      1.0000 0.13870  0.75860  0.79530  Biso   1.000  N
  N84      1.0000 0.07490  0.78360  0.86380  Biso   1.000  N
  N85      1.0000 0.07300  0.72920  0.87660  Biso   1.000  N
  N86      1.0000 0.17670  0.69210  0.76760  Biso   1.000  N
  N87      1.0000 0.21780  0.74160  0.80490  Biso   1.000  N
  N88      1.0000 0.11220  0.67110  0.84710  Biso   1.000  N
  N89      1.0000 0.15510  0.68940  0.82230  Biso   1.000  N
  N90      1.0000 0.03140  0.66210  0.86350  Biso   1.000  N
  N91      1.0000 0.09500  0.60310  0.92590  Biso   1.000  N
  N92      1.0000 0.09290  0.65120  0.89870  Biso   1.000  N
  N93      1.0000 0.10300  0.85930  0.84540  Biso   1.000  N
  N94      1.0000 0.02930  0.56500  0.93520  Biso   1.000  N
  N95      1.0000 0.09800  0.53000  0.94880  Biso   1.000  N
  N96      1.0000 0.07430  0.59350  0.97980  Biso   1.000  N
  C261     1.0000 0.02090  0.85700  0.81470  Biso   1.000  C
  C262     1.0000 0.03630  0.88330  0.80070  Biso   1.000  C
  C263     1.0000 0.01450  0.89980  0.78440  Biso   1.000  C
  C264     1.0000 0.12960  0.77860  0.81400  Biso   1.000  C
  C265     1.0000 0.08930  0.78270  0.79180  Biso   1.000  C
  C266     1.0000 0.05920  0.79170  0.78000  Biso   1.000  C
  C267     1.0000 0.05240  0.77850  0.75760  Biso   1.000  C
  C268     1.0000 0.07590  0.75630  0.74690  Biso   1.000  C
  C269     1.0000 0.10610  0.74730  0.75870  Biso   1.000  C
  C270     1.0000 0.11280  0.76050  0.78110  Biso   1.000  C
  C271     1.0000 0.06210  0.75010  0.85890  Biso   1.000  C
  C272     1.0000 0.09030  0.74360  0.89470  Biso   1.000  C
  C273     1.0000 0.10620  0.73970  0.91660  Biso   1.000  C
  C274     1.0000 0.12220  0.76770  0.92730  Biso   1.000  C
  C275     1.0000 0.12210  0.79970  0.91620  Biso   1.000  C
  C276     1.0000 0.10620  0.80370  0.89440  Biso   1.000  C
  C277     1.0000 0.09030  0.77560  0.88360  Biso   1.000  C
  C278     1.0000 0.15520  0.66350  0.76030  Biso   1.000  C
  C279     1.0000 0.12700  0.64960  0.77310  Biso   1.000  C
  C280     1.0000 0.11250  0.62520  0.75910  Biso   1.000  C
  C281     1.0000 0.24110  0.73210  0.82230  Biso   1.000  C
  C282     1.0000 0.24110  0.70410  0.84140  Biso   1.000  C
  C283     1.0000 0.27150  0.70500  0.85500  Biso   1.000  C
  C284     1.0000 0.12770  0.69860  0.83500  Biso   1.000  C
  C285     1.0000 0.15850  0.65570  0.82760  Biso   1.000  C
  C286     1.0000 0.18330  0.63300  0.81910  Biso   1.000  C
  C287     1.0000 0.18370  0.59890  0.82670  Biso   1.000  C
  C288     1.0000 0.15910  0.58750  0.84290  Biso   1.000  C
  C289     1.0000 0.13430  0.61020  0.85140  Biso   1.000  C
  C290     1.0000 0.13400  0.64430  0.84380  Biso   1.000  C
  C291     1.0000 0.01970  0.63800  0.84510  Biso   1.000  C
  C292     1.0000 0.04020  0.61830  0.83350  Biso   1.000  C
  C293     1.0000 0.01840  0.60180  0.81990  Biso   1.000  C
  C294     1.0000 0.07620  0.62420  0.91080  Biso   1.000  C
  C295     1.0000 0.12540  0.64640  0.90520  Biso   1.000  C
  C296     1.0000 0.15660  0.66290  0.90110  Biso   1.000  C
  C297     1.0000 0.18560  0.65420  0.91430  Biso   1.000  C
  C298     1.0000 0.18340  0.62890  0.93160  Biso   1.000  C
  C299     1.0000 0.15210  0.61230  0.93580  Biso   1.000  C
  C300     1.0000 0.12320  0.62100  0.92260  Biso   1.000  C
  C301     1.0000 0.09090  0.88180  0.86200  Biso   1.000  C
  C302     1.0000 0.06100  0.88370  0.88030  Biso   1.000  C
  C303     1.0000 0.06390  0.91130  0.89420  Biso   1.000  C
  C304     1.0000 0.01520  0.55930  0.91300  Biso   1.000  C
  C305     1.0000 0.03650  0.55050  0.89400  Biso   1.000  C
  C306     1.0000 0.01960  0.54340  0.87330  Biso   1.000  C
  C307     1.0000 0.07660  0.62800  0.98790  Biso   1.000  C
  C308     1.0000 0.09030  0.65810  0.97540  Biso   1.000  C
  C309     1.0000 0.09650  0.68560  0.98760  Biso   1.000  C
  C310     1.0000 0.12170  0.51730  0.96840  Biso   1.000  C
  C311     1.0000 0.14520  0.53130  0.98460  Biso   1.000  C
  C312     1.0000 0.17870  0.51840  0.98710  Biso   1.000  C
  Zn25     1.0000 0.42430  0.68320  0.33790  Biso   1.000  Zn
  Zn26     1.0000 0.42420  0.82300  0.37260  Biso   1.000  Zn
  Zn27     1.0000 0.32620  0.78020  0.29770  Biso   1.000  Zn
  Zn28     1.0000 0.42350  0.92650  0.44810  Biso   1.000  Zn
  Cl61     1.0000 0.43870  0.77500  0.22140  Biso   1.000  Cl
  Cl62     1.0000 0.34770  0.75260  0.44750  Biso   1.000  Cl
  Cl63     1.0000 0.42210  0.89720  0.27190  Biso   1.000  Cl
  Cl64     1.0000 0.22720  0.83030  0.37520  Biso   1.000  Cl
  Cl65     1.0000 0.34140  0.95480  0.35450  Biso   1.000  Cl
  Cl66     1.0000 0.46180  0.93110  0.30060  Biso   1.000  Cl
  Cl67     1.0000 0.27780  0.86380  0.45260  Biso   1.000  Cl
  Cl68     1.0000 0.46730  0.58720  0.41810  Biso   1.000  Cl
  Cl69     1.0000 0.44700  0.96860  0.35170  Biso   1.000  Cl
  Cl70     1.0000 0.40890  0.76770  0.47820  Biso   1.000  Cl
  N97      1.0000 0.47290  0.67110  0.32970  Biso   1.000  N
  N98      1.0000 0.40130  0.70690  0.31080  Biso   1.000  N
  N99      1.0000 0.36130  0.74140  0.29530  Biso   1.000  N
  N100     1.0000 0.42510  0.71640  0.36380  Biso   1.000  N
  N101     1.0000 0.42700  0.77080  0.37660  Biso   1.000  N
  N102     1.0000 0.32330  0.80790  0.26760  Biso   1.000  N
  N103     1.0000 0.28220  0.75840  0.30490  Biso   1.000  N
  N104     1.0000 0.38780  0.82890  0.34710  Biso   1.000  N
  N105     1.0000 0.34490  0.81060  0.32230  Biso   1.000  N
  N106     1.0000 0.46860  0.83790  0.36350  Biso   1.000  N
  N107     1.0000 0.40500  0.89690  0.42590  Biso   1.000  N
  N108     1.0000 0.40710  0.84880  0.39870  Biso   1.000  N
  N109     1.0000 0.39700  0.64070  0.34540  Biso   1.000  N
  N110     1.0000 0.47070  0.93500  0.43520  Biso   1.000  N
  N111     1.0000 0.40200  0.97000  0.44880  Biso   1.000  N
  N112     1.0000 0.42570  0.90650  0.47980  Biso   1.000  N
  C313     1.0000 0.47910  0.64300  0.31470  Biso   1.000  C
  C314     1.0000 0.46370  0.61670  0.30070  Biso   1.000  C
  C315     1.0000 0.48550  0.60020  0.28440  Biso   1.000  C
  C316     1.0000 0.37040  0.72140  0.31400  Biso   1.000  C
  C317     1.0000 0.41070  0.71730  0.29180  Biso   1.000  C
  C318     1.0000 0.44080  0.70830  0.28000  Biso   1.000  C
  C319     1.0000 0.44760  0.72150  0.25760  Biso   1.000  C
  C320     1.0000 0.42410  0.74370  0.24690  Biso   1.000  C
  C321     1.0000 0.39390  0.75270  0.25870  Biso   1.000  C
  C322     1.0000 0.38720  0.73950  0.28110  Biso   1.000  C
  C323     1.0000 0.43790  0.74990  0.35890  Biso   1.000  C
  C324     1.0000 0.40970  0.75640  0.39470  Biso   1.000  C
  C325     1.0000 0.39380  0.76030  0.41660  Biso   1.000  C
  C326     1.0000 0.37780  0.73230  0.42730  Biso   1.000  C
  C327     1.0000 0.37790  0.70030  0.41620  Biso   1.000  C
  C328     1.0000 0.39380  0.69630  0.39440  Biso   1.000  C
  C329     1.0000 0.40970  0.72440  0.38360  Biso   1.000  C
  C330     1.0000 0.34480  0.83650  0.26030  Biso   1.000  C
  C331     1.0000 0.37300  0.85040  0.27310  Biso   1.000  C
  C332     1.0000 0.38750  0.87480  0.25910  Biso   1.000  C
  C333     1.0000 0.25890  0.76790  0.32230  Biso   1.000  C
  C334     1.0000 0.25890  0.79590  0.34140  Biso   1.000  C
  C335     1.0000 0.22850  0.79500  0.35500  Biso   1.000  C
  C336     1.0000 0.37230  0.80140  0.33500  Biso   1.000  C
  C337     1.0000 0.34150  0.84430  0.32760  Biso   1.000  C
  C338     1.0000 0.31670  0.86700  0.31910  Biso   1.000  C
  C339     1.0000 0.31630  0.90110  0.32670  Biso   1.000  C
  C340     1.0000 0.34090  0.91250  0.34290  Biso   1.000  C
  C341     1.0000 0.36570  0.88980  0.35140  Biso   1.000  C
  C342     1.0000 0.36600  0.85570  0.34380  Biso   1.000  C
  C343     1.0000 0.48030  0.86200  0.34510  Biso   1.000  C
  C344     1.0000 0.45980  0.88170  0.33350  Biso   1.000  C
  C345     1.0000 0.48160  0.89820  0.31990  Biso   1.000  C
  C346     1.0000 0.42380  0.87580  0.41080  Biso   1.000  C
  C347     1.0000 0.37460  0.85360  0.40520  Biso   1.000  C
  C348     1.0000 0.34340  0.83710  0.40110  Biso   1.000  C
  C349     1.0000 0.31440  0.84580  0.41430  Biso   1.000  C
  C350     1.0000 0.31660  0.87110  0.43160  Biso   1.000  C
  C351     1.0000 0.34790  0.88770  0.43580  Biso   1.000  C
  C352     1.0000 0.37680  0.87900  0.42260  Biso   1.000  C
  C353     1.0000 0.40910  0.61820  0.36200  Biso   1.000  C
  C354     1.0000 0.43900  0.61630  0.38030  Biso   1.000  C
  C355     1.0000 0.43610  0.58870  0.39420  Biso   1.000  C
  C356     1.0000 0.48480  0.94070  0.41300  Biso   1.000  C
  C357     1.0000 0.46350  0.94950  0.39400  Biso   1.000  C
  C358     1.0000 0.48040  0.95660  0.37330  Biso   1.000  C
  C359     1.0000 0.42340  0.87200  0.48790  Biso   1.000  C
  C360     1.0000 0.40970  0.84190  0.47540  Biso   1.000  C
  C361     1.0000 0.40350  0.81440  0.48760  Biso   1.000  C
  C362     1.0000 0.37830  0.98270  0.46840  Biso   1.000  C
  C363     1.0000 0.35480  0.96870  0.48460  Biso   1.000  C
  C364     1.0000 0.32130  0.98160  0.48710  Biso   1.000  C
  Zn29     1.0000 0.92430  0.18320  0.83790  Biso   1.000  Zn
  Zn30     1.0000 0.92420  0.32300  0.87260  Biso   1.000  Zn
  Zn31     1.0000 0.82620  0.28020  0.79770  Biso   1.000  Zn
  Zn32     1.0000 0.92350  0.42650  0.94810  Biso   1.000  Zn
  Cl71     1.0000 0.93870  0.27500  0.72140  Biso   1.000  Cl
  Cl72     1.0000 0.84770  0.25260  0.94750  Biso   1.000  Cl
  Cl73     1.0000 0.92210  0.39720  0.77190  Biso   1.000  Cl
  Cl74     1.0000 0.72720  0.33030  0.87520  Biso   1.000  Cl
  Cl75     1.0000 0.84140  0.45480  0.85450  Biso   1.000  Cl
  Cl76     1.0000 0.96180  0.43110  0.80060  Biso   1.000  Cl
  Cl77     1.0000 0.77780  0.36380  0.95260  Biso   1.000  Cl
  Cl78     1.0000 0.96730  0.08720  0.91810  Biso   1.000  Cl
  Cl79     1.0000 0.94700  0.46860  0.85170  Biso   1.000  Cl
  Cl80     1.0000 0.90890  0.26770  0.97820  Biso   1.000  Cl
  N113     1.0000 0.97290  0.17110  0.82970  Biso   1.000  N
  N114     1.0000 0.90130  0.20690  0.81080  Biso   1.000  N
  N115     1.0000 0.86130  0.24140  0.79530  Biso   1.000  N
  N116     1.0000 0.92510  0.21640  0.86380  Biso   1.000  N
  N117     1.0000 0.92700  0.27080  0.87660  Biso   1.000  N
  N118     1.0000 0.82330  0.30790  0.76760  Biso   1.000  N
  N119     1.0000 0.78220  0.25840  0.80490  Biso   1.000  N
  N120     1.0000 0.88780  0.32890  0.84710  Biso   1.000  N
  N121     1.0000 0.84490  0.31060  0.82230  Biso   1.000  N
  N122     1.0000 0.96860  0.33790  0.86350  Biso   1.000  N
  N123     1.0000 0.90500  0.39690  0.92590  Biso   1.000  N
  N124     1.0000 0.90710  0.34880  0.89870  Biso   1.000  N
  N125     1.0000 0.89700  0.14070  0.84540  Biso   1.000  N
  N126     1.0000 0.97070  0.43500  0.93520  Biso   1.000  N
  N127     1.0000 0.90200  0.47000  0.94880  Biso   1.000  N
  N128     1.0000 0.92570  0.40650  0.97980  Biso   1.000  N
  C365     1.0000 0.97910  0.14300  0.81470  Biso   1.000  C
  C366     1.0000 0.96370  0.11670  0.80070  Biso   1.000  C
  C367     1.0000 0.98550  0.10020  0.78440  Biso   1.000  C
  C368     1.0000 0.87040  0.22140  0.81400  Biso   1.000  C
  C369     1.0000 0.91070  0.21730  0.79180  Biso   1.000  C
  C370     1.0000 0.94080  0.20830  0.78000  Biso   1.000  C
  C371     1.0000 0.94760  0.22150  0.75760  Biso   1.000  C
  C372     1.0000 0.92410  0.24370  0.74690  Biso   1.000  C
  C373     1.0000 0.89390  0.25270  0.75870  Biso   1.000  C
  C374     1.0000 0.88720  0.23950  0.78110  Biso   1.000  C
  C375     1.0000 0.93790  0.24990  0.85890  Biso   1.000  C
  C376     1.0000 0.90970  0.25640  0.89470  Biso   1.000  C
  C377     1.0000 0.89380  0.26030  0.91660  Biso   1.000  C
  C378     1.0000 0.87780  0.23230  0.92730  Biso   1.000  C
  C379     1.0000 0.87790  0.20030  0.91620  Biso   1.000  C
  C380     1.0000 0.89380  0.19630  0.89440  Biso   1.000  C
  C381     1.0000 0.90970  0.22440  0.88360  Biso   1.000  C
  C382     1.0000 0.84480  0.33650  0.76030  Biso   1.000  C
  C383     1.0000 0.87300  0.35040  0.77310  Biso   1.000  C
  C384     1.0000 0.88750  0.37480  0.75910  Biso   1.000  C
  C385     1.0000 0.75890  0.26790  0.82230  Biso   1.000  C
  C386     1.0000 0.75890  0.29590  0.84140  Biso   1.000  C
  C387     1.0000 0.72850  0.29500  0.85500  Biso   1.000  C
  C388     1.0000 0.87230  0.30140  0.83500  Biso   1.000  C
  C389     1.0000 0.84150  0.34430  0.82760  Biso   1.000  C
  C390     1.0000 0.81670  0.36700  0.81910  Biso   1.000  C
  C391     1.0000 0.81630  0.40110  0.82670  Biso   1.000  C
  C392     1.0000 0.84090  0.41250  0.84290  Biso   1.000  C
  C393     1.0000 0.86570  0.38980  0.85140  Biso   1.000  C
  C394     1.0000 0.86600  0.35570  0.84380  Biso   1.000  C
  C395     1.0000 0.98030  0.36200  0.84510  Biso   1.000  C
  C396     1.0000 0.95980  0.38170  0.83350  Biso   1.000  C
  C397     1.0000 0.98160  0.39820  0.81990  Biso   1.000  C
  C398     1.0000 0.92380  0.37580  0.91080  Biso   1.000  C
  C399     1.0000 0.87460  0.35360  0.90520  Biso   1.000  C
  C400     1.0000 0.84340  0.33710  0.90110  Biso   1.000  C
  C401     1.0000 0.81440  0.34580  0.91430  Biso   1.000  C
  C402     1.0000 0.81660  0.37110  0.93160  Biso   1.000  C
  C403     1.0000 0.84790  0.38770  0.93580  Biso   1.000  C
  C404     1.0000 0.87680  0.37900  0.92260  Biso   1.000  C
  C405     1.0000 0.90910  0.11820  0.86200  Biso   1.000  C
  C406     1.0000 0.93900  0.11630  0.88030  Biso   1.000  C
  C407     1.0000 0.93610  0.08870  0.89420  Biso   1.000  C
  C408     1.0000 0.98480  0.44070  0.91300  Biso   1.000  C
  C409     1.0000 0.96350  0.44950  0.89400  Biso   1.000  C
  C410     1.0000 0.98040  0.45660  0.87330  Biso   1.000  C
  C411     1.0000 0.92340  0.37200  0.98790  Biso   1.000  C
  C412     1.0000 0.90970  0.34190  0.97540  Biso   1.000  C
  C413     1.0000 0.90350  0.31440  0.98760  Biso   1.000  C
  C414     1.0000 0.87830  0.48270  0.96840  Biso   1.000  C
  C415     1.0000 0.85480  0.46870  0.98460  Biso   1.000  C
  C416     1.0000 0.82130  0.48160  0.98710  Biso   1.000  C
  Zn33     1.0000 0.68320  0.42430  0.66210  Biso   1.000  Zn
  Zn34     1.0000 0.82300  0.42420  0.62740  Biso   1.000  Zn
  Zn35     1.0000 0.78020  0.32620  0.70230  Biso   1.000  Zn
  Zn36     1.0000 0.92650  0.42350  0.55190  Biso   1.000  Zn
  Cl81     1.0000 0.77500  0.43870  0.77860  Biso   1.000  Cl
  Cl82     1.0000 0.75260  0.34770  0.55250  Biso   1.000  Cl
  Cl83     1.0000 0.89720  0.42210  0.72810  Biso   1.000  Cl
  Cl84     1.0000 0.83030  0.22720  0.62480  Biso   1.000  Cl
  Cl85     1.0000 0.95480  0.34140  0.64550  Biso   1.000  Cl
  Cl86     1.0000 0.93110  0.46180  0.69940  Biso   1.000  Cl
  Cl87     1.0000 0.86380  0.27780  0.54740  Biso   1.000  Cl
  Cl88     1.0000 0.58720  0.46730  0.58190  Biso   1.000  Cl
  Cl89     1.0000 0.96860  0.44700  0.64830  Biso   1.000  Cl
  Cl90     1.0000 0.76770  0.40890  0.52180  Biso   1.000  Cl
  N129     1.0000 0.67110  0.47290  0.67030  Biso   1.000  N
  N130     1.0000 0.70690  0.40130  0.68920  Biso   1.000  N
  N131     1.0000 0.74140  0.36130  0.70470  Biso   1.000  N
  N132     1.0000 0.71640  0.42510  0.63620  Biso   1.000  N
  N133     1.0000 0.77080  0.42700  0.62340  Biso   1.000  N
  N134     1.0000 0.80790  0.32330  0.73240  Biso   1.000  N
  N135     1.0000 0.75840  0.28220  0.69510  Biso   1.000  N
  N136     1.0000 0.82890  0.38780  0.65290  Biso   1.000  N
  N137     1.0000 0.81060  0.34490  0.67770  Biso   1.000  N
  N138     1.0000 0.83790  0.46860  0.63650  Biso   1.000  N
  N139     1.0000 0.89690  0.40500  0.57410  Biso   1.000  N
  N140     1.0000 0.84880  0.40710  0.60130  Biso   1.000  N
  N141     1.0000 0.64070  0.39700  0.65460  Biso   1.000  N
  N142     1.0000 0.93500  0.47070  0.56480  Biso   1.000  N
  N143     1.0000 0.97000  0.40200  0.55120  Biso   1.000  N
  N144     1.0000 0.90650  0.42570  0.52020  Biso   1.000  N
  C417     1.0000 0.64300  0.47910  0.68530  Biso   1.000  C
  C418     1.0000 0.61670  0.46370  0.69930  Biso   1.000  C
  C419     1.0000 0.60020  0.48550  0.71560  Biso   1.000  C
  C420     1.0000 0.72140  0.37040  0.68600  Biso   1.000  C
  C421     1.0000 0.71730  0.41070  0.70820  Biso   1.000  C
  C422     1.0000 0.70830  0.44080  0.72000  Biso   1.000  C
  C423     1.0000 0.72150  0.44760  0.74240  Biso   1.000  C
  C424     1.0000 0.74370  0.42410  0.75310  Biso   1.000  C
  C425     1.0000 0.75270  0.39390  0.74130  Biso   1.000  C
  C426     1.0000 0.73950  0.38720  0.71890  Biso   1.000  C
  C427     1.0000 0.74990  0.43790  0.64110  Biso   1.000  C
  C428     1.0000 0.75640  0.40970  0.60530  Biso   1.000  C
  C429     1.0000 0.76030  0.39380  0.58340  Biso   1.000  C
  C430     1.0000 0.73230  0.37780  0.57270  Biso   1.000  C
  C431     1.0000 0.70030  0.37790  0.58380  Biso   1.000  C
  C432     1.0000 0.69630  0.39380  0.60560  Biso   1.000  C
  C433     1.0000 0.72440  0.40970  0.61640  Biso   1.000  C
  C434     1.0000 0.83650  0.34480  0.73970  Biso   1.000  C
  C435     1.0000 0.85040  0.37300  0.72690  Biso   1.000  C
  C436     1.0000 0.87480  0.38750  0.74090  Biso   1.000  C
  C437     1.0000 0.76790  0.25890  0.67770  Biso   1.000  C
  C438     1.0000 0.79590  0.25890  0.65860  Biso   1.000  C
  C439     1.0000 0.79500  0.22850  0.64500  Biso   1.000  C
  C440     1.0000 0.80140  0.37230  0.66500  Biso   1.000  C
  C441     1.0000 0.84430  0.34150  0.67240  Biso   1.000  C
  C442     1.0000 0.86700  0.31670  0.68090  Biso   1.000  C
  C443     1.0000 0.90110  0.31630  0.67330  Biso   1.000  C
  C444     1.0000 0.91250  0.34090  0.65710  Biso   1.000  C
  C445     1.0000 0.88980  0.36570  0.64860  Biso   1.000  C
  C446     1.0000 0.85570  0.36600  0.65620  Biso   1.000  C
  C447     1.0000 0.86200  0.48030  0.65490  Biso   1.000  C
  C448     1.0000 0.88170  0.45980  0.66650  Biso   1.000  C
  C449     1.0000 0.89820  0.48160  0.68010  Biso   1.000  C
  C450     1.0000 0.87580  0.42380  0.58920  Biso   1.000  C
  C451     1.0000 0.85360  0.37460  0.59480  Biso   1.000  C
  C452     1.0000 0.83710  0.34340  0.59890  Biso   1.000  C
  C453     1.0000 0.84580  0.31440  0.58570  Biso   1.000  C
  C454     1.0000 0.87110  0.31660  0.56840  Biso   1.000  C
  C455     1.0000 0.88770  0.34790  0.56420  Biso   1.000  C
  C456     1.0000 0.87900  0.37680  0.57740  Biso   1.000  C
  C457     1.0000 0.61820  0.40910  0.63800  Biso   1.000  C
  C458     1.0000 0.61630  0.43900  0.61970  Biso   1.000  C
  C459     1.0000 0.58870  0.43610  0.60580  Biso   1.000  C
  C460     1.0000 0.94070  0.48480  0.58700  Biso   1.000  C
  C461     1.0000 0.94950  0.46350  0.60600  Biso   1.000  C
  C462     1.0000 0.95660  0.48040  0.62670  Biso   1.000  C
  C463     1.0000 0.87200  0.42340  0.51210  Biso   1.000  C
  C464     1.0000 0.84190  0.40970  0.52460  Biso   1.000  C
  C465     1.0000 0.81440  0.40350  0.51240  Biso   1.000  C
  C466     1.0000 0.98270  0.37830  0.53160  Biso   1.000  C
  C467     1.0000 0.96870  0.35480  0.51540  Biso   1.000  C
  C468     1.0000 0.98160  0.32130  0.51290  Biso   1.000  C
  Zn37     1.0000 0.18320  0.92430  0.16210  Biso   1.000  Zn
  Zn38     1.0000 0.32300  0.92420  0.12740  Biso   1.000  Zn
  Zn39     1.0000 0.28020  0.82620  0.20230  Biso   1.000  Zn
  Zn40     1.0000 0.42650  0.92350  0.05190  Biso   1.000  Zn
  Cl91     1.0000 0.27500  0.93870  0.27860  Biso   1.000  Cl
  Cl92     1.0000 0.25260  0.84770  0.05250  Biso   1.000  Cl
  Cl93     1.0000 0.39720  0.92210  0.22810  Biso   1.000  Cl
  Cl94     1.0000 0.33030  0.72720  0.12480  Biso   1.000  Cl
  Cl95     1.0000 0.45480  0.84140  0.14550  Biso   1.000  Cl
  Cl96     1.0000 0.43110  0.96180  0.19940  Biso   1.000  Cl
  Cl97     1.0000 0.36380  0.77780  0.04740  Biso   1.000  Cl
  Cl98     1.0000 0.08720  0.96730  0.08190  Biso   1.000  Cl
  Cl99     1.0000 0.46860  0.94700  0.14830  Biso   1.000  Cl
  Cl100    1.0000 0.26770  0.90890  0.02180  Biso   1.000  Cl
  N145     1.0000 0.17110  0.97290  0.17030  Biso   1.000  N
  N146     1.0000 0.20690  0.90130  0.18920  Biso   1.000  N
  N147     1.0000 0.24140  0.86130  0.20470  Biso   1.000  N
  N148     1.0000 0.21640  0.92510  0.13620  Biso   1.000  N
  N149     1.0000 0.27080  0.92700  0.12340  Biso   1.000  N
  N150     1.0000 0.30790  0.82330  0.23240  Biso   1.000  N
  N151     1.0000 0.25840  0.78220  0.19510  Biso   1.000  N
  N152     1.0000 0.32890  0.88780  0.15290  Biso   1.000  N
  N153     1.0000 0.31060  0.84490  0.17770  Biso   1.000  N
  N154     1.0000 0.33790  0.96860  0.13650  Biso   1.000  N
  N155     1.0000 0.39690  0.90500  0.07410  Biso   1.000  N
  N156     1.0000 0.34880  0.90710  0.10130  Biso   1.000  N
  N157     1.0000 0.14070  0.89700  0.15460  Biso   1.000  N
  N158     1.0000 0.43500  0.97070  0.06480  Biso   1.000  N
  N159     1.0000 0.47000  0.90200  0.05120  Biso   1.000  N
  N160     1.0000 0.40650  0.92570  0.02020  Biso   1.000  N
  C469     1.0000 0.14300  0.97910  0.18530  Biso   1.000  C
  C470     1.0000 0.11670  0.96370  0.19930  Biso   1.000  C
  C471     1.0000 0.10020  0.98550  0.21560  Biso   1.000  C
  C472     1.0000 0.22140  0.87040  0.18600  Biso   1.000  C
  C473     1.0000 0.21730  0.91070  0.20820  Biso   1.000  C
  C474     1.0000 0.20830  0.94080  0.22000  Biso   1.000  C
  C475     1.0000 0.22150  0.94760  0.24240  Biso   1.000  C
  C476     1.0000 0.24370  0.92410  0.25310  Biso   1.000  C
  C477     1.0000 0.25270  0.89390  0.24130  Biso   1.000  C
  C478     1.0000 0.23950  0.88720  0.21890  Biso   1.000  C
  C479     1.0000 0.24990  0.93790  0.14110  Biso   1.000  C
  C480     1.0000 0.25640  0.90970  0.10530  Biso   1.000  C
  C481     1.0000 0.26030  0.89380  0.08340  Biso   1.000  C
  C482     1.0000 0.23230  0.87780  0.07270  Biso   1.000  C
  C483     1.0000 0.20030  0.87790  0.08380  Biso   1.000  C
  C484     1.0000 0.19630  0.89380  0.10560  Biso   1.000  C
  C485     1.0000 0.22440  0.90970  0.11640  Biso   1.000  C
  C486     1.0000 0.33650  0.84480  0.23970  Biso   1.000  C
  C487     1.0000 0.35040  0.87300  0.22690  Biso   1.000  C
  C488     1.0000 0.37480  0.88750  0.24090  Biso   1.000  C
  C489     1.0000 0.26790  0.75890  0.17770  Biso   1.000  C
  C490     1.0000 0.29590  0.75890  0.15860  Biso   1.000  C
  C491     1.0000 0.29500  0.72850  0.14500  Biso   1.000  C
  C492     1.0000 0.30140  0.87230  0.16500  Biso   1.000  C
  C493     1.0000 0.34430  0.84150  0.17240  Biso   1.000  C
  C494     1.0000 0.36700  0.81670  0.18090  Biso   1.000  C
  C495     1.0000 0.40110  0.81630  0.17330  Biso   1.000  C
  C496     1.0000 0.41250  0.84090  0.15710  Biso   1.000  C
  C497     1.0000 0.38980  0.86570  0.14860  Biso   1.000  C
  C498     1.0000 0.35570  0.86600  0.15620  Biso   1.000  C
  C499     1.0000 0.36200  0.98030  0.15490  Biso   1.000  C
  C500     1.0000 0.38170  0.95980  0.16650  Biso   1.000  C
  C501     1.0000 0.39820  0.98160  0.18010  Biso   1.000  C
  C502     1.0000 0.37580  0.92380  0.08920  Biso   1.000  C
  C503     1.0000 0.35360  0.87460  0.09480  Biso   1.000  C
  C504     1.0000 0.33710  0.84340  0.09890  Biso   1.000  C
  C505     1.0000 0.34580  0.81440  0.08570  Biso   1.000  C
  C506     1.0000 0.37110  0.81660  0.06840  Biso   1.000  C
  C507     1.0000 0.38770  0.84790  0.06420  Biso   1.000  C
  C508     1.0000 0.37900  0.87680  0.07740  Biso   1.000  C
  C509     1.0000 0.11820  0.90910  0.13800  Biso   1.000  C
  C510     1.0000 0.11630  0.93900  0.11970  Biso   1.000  C
  C511     1.0000 0.08870  0.93610  0.10580  Biso   1.000  C
  C512     1.0000 0.44070  0.98480  0.08700  Biso   1.000  C
  C513     1.0000 0.44950  0.96350  0.10600  Biso   1.000  C
  C514     1.0000 0.45660  0.98040  0.12670  Biso   1.000  C
  C515     1.0000 0.37200  0.92340  0.01210  Biso   1.000  C
  C516     1.0000 0.34190  0.90970  0.02460  Biso   1.000  C
  C517     1.0000 0.31440  0.90350  0.01240  Biso   1.000  C
  C518     1.0000 0.48270  0.87830  0.03160  Biso   1.000  C
  C519     1.0000 0.46870  0.85480  0.01540  Biso   1.000  C
  C520     1.0000 0.48160  0.82130  0.01290  Biso   1.000  C
  Zn41     1.0000 0.31680  0.57570  0.66210  Biso   1.000  Zn
  Zn42     1.0000 0.17700  0.57580  0.62740  Biso   1.000  Zn
  Zn43     1.0000 0.21980  0.67380  0.70230  Biso   1.000  Zn
  Zn44     1.0000 0.07350  0.57650  0.55190  Biso   1.000  Zn
  Cl101    1.0000 0.22500  0.56130  0.77860  Biso   1.000  Cl
  Cl102    1.0000 0.24740  0.65230  0.55250  Biso   1.000  Cl
  Cl103    1.0000 0.10280  0.57790  0.72810  Biso   1.000  Cl
  Cl104    1.0000 0.16970  0.77280  0.62480  Biso   1.000  Cl
  Cl105    1.0000 0.04520  0.65860  0.64550  Biso   1.000  Cl
  Cl106    1.0000 0.06890  0.53820  0.69940  Biso   1.000  Cl
  Cl107    1.0000 0.13620  0.72220  0.54740  Biso   1.000  Cl
  Cl108    1.0000 0.41280  0.53270  0.58190  Biso   1.000  Cl
  Cl109    1.0000 0.03140  0.55300  0.64830  Biso   1.000  Cl
  Cl110    1.0000 0.23230  0.59110  0.52180  Biso   1.000  Cl
  N161     1.0000 0.32890  0.52710  0.67030  Biso   1.000  N
  N162     1.0000 0.29310  0.59870  0.68920  Biso   1.000  N
  N163     1.0000 0.25860  0.63870  0.70470  Biso   1.000  N
  N164     1.0000 0.28360  0.57490  0.63620  Biso   1.000  N
  N165     1.0000 0.22920  0.57300  0.62340  Biso   1.000  N
  N166     1.0000 0.19210  0.67670  0.73240  Biso   1.000  N
  N167     1.0000 0.24160  0.71780  0.69510  Biso   1.000  N
  N168     1.0000 0.17110  0.61220  0.65290  Biso   1.000  N
  N169     1.0000 0.18940  0.65510  0.67770  Biso   1.000  N
  N170     1.0000 0.16210  0.53140  0.63650  Biso   1.000  N
  N171     1.0000 0.10310  0.59500  0.57410  Biso   1.000  N
  N172     1.0000 0.15120  0.59290  0.60130  Biso   1.000  N
  N173     1.0000 0.35930  0.60300  0.65460  Biso   1.000  N
  N174     1.0000 0.06500  0.52930  0.56480  Biso   1.000  N
  N175     1.0000 0.03000  0.59800  0.55120  Biso   1.000  N
  N176     1.0000 0.09350  0.57430  0.52020  Biso   1.000  N
  C521     1.0000 0.35700  0.52090  0.68530  Biso   1.000  C
  C522     1.0000 0.38330  0.53630  0.69930  Biso   1.000  C
  C523     1.0000 0.39980  0.51450  0.71560  Biso   1.000  C
  C524     1.0000 0.27860  0.62960  0.68600  Biso   1.000  C
  C525     1.0000 0.28270  0.58930  0.70820  Biso   1.000  C
  C526     1.0000 0.29170  0.55920  0.72000  Biso   1.000  C
  C527     1.0000 0.27850  0.55240  0.74240  Biso   1.000  C
  C528     1.0000 0.25630  0.57590  0.75310  Biso   1.000  C
  C529     1.0000 0.24730  0.60610  0.74130  Biso   1.000  C
  C530     1.0000 0.26050  0.61280  0.71890  Biso   1.000  C
  C531     1.0000 0.25010  0.56210  0.64110  Biso   1.000  C
  C532     1.0000 0.24360  0.59030  0.60530  Biso   1.000  C
  C533     1.0000 0.23970  0.60620  0.58340  Biso   1.000  C
  C534     1.0000 0.26770  0.62220  0.57270  Biso   1.000  C
  C535     1.0000 0.29970  0.62210  0.58380  Biso   1.000  C
  C536     1.0000 0.30370  0.60620  0.60560  Biso   1.000  C
  C537     1.0000 0.27560  0.59030  0.61640  Biso   1.000  C
  C538     1.0000 0.16350  0.65520  0.73970  Biso   1.000  C
  C539     1.0000 0.14960  0.62700  0.72690  Biso   1.000  C
  C540     1.0000 0.12520  0.61250  0.74090  Biso   1.000  C
  C541     1.0000 0.23210  0.74110  0.67770  Biso   1.000  C
  C542     1.0000 0.20410  0.74110  0.65860  Biso   1.000  C
  C543     1.0000 0.20500  0.77150  0.64500  Biso   1.000  C
  C544     1.0000 0.19860  0.62770  0.66500  Biso   1.000  C
  C545     1.0000 0.15570  0.65850  0.67240  Biso   1.000  C
  C546     1.0000 0.13300  0.68330  0.68090  Biso   1.000  C
  C547     1.0000 0.09890  0.68370  0.67330  Biso   1.000  C
  C548     1.0000 0.08750  0.65910  0.65710  Biso   1.000  C
  C549     1.0000 0.11020  0.63430  0.64860  Biso   1.000  C
  C550     1.0000 0.14430  0.63400  0.65620  Biso   1.000  C
  C551     1.0000 0.13800  0.51970  0.65490  Biso   1.000  C
  C552     1.0000 0.11830  0.54020  0.66650  Biso   1.000  C
  C553     1.0000 0.10180  0.51840  0.68010  Biso   1.000  C
  C554     1.0000 0.12420  0.57620  0.58920  Biso   1.000  C
  C555     1.0000 0.14640  0.62540  0.59480  Biso   1.000  C
  C556     1.0000 0.16290  0.65660  0.59890  Biso   1.000  C
  C557     1.0000 0.15420  0.68560  0.58570  Biso   1.000  C
  C558     1.0000 0.12890  0.68340  0.56840  Biso   1.000  C
  C559     1.0000 0.11230  0.65210  0.56420  Biso   1.000  C
  C560     1.0000 0.12100  0.62320  0.57740  Biso   1.000  C
  C561     1.0000 0.38180  0.59090  0.63800  Biso   1.000  C
  C562     1.0000 0.38370  0.56100  0.61970  Biso   1.000  C
  C563     1.0000 0.41130  0.56390  0.60580  Biso   1.000  C
  C564     1.0000 0.05930  0.51520  0.58700  Biso   1.000  C
  C565     1.0000 0.05050  0.53650  0.60600  Biso   1.000  C
  C566     1.0000 0.04340  0.51960  0.62670  Biso   1.000  C
  C567     1.0000 0.12800  0.57660  0.51210  Biso   1.000  C
  C568     1.0000 0.15810  0.59030  0.52460  Biso   1.000  C
  C569     1.0000 0.18560  0.59650  0.51240  Biso   1.000  C
  C570     1.0000 0.01730  0.62170  0.53160  Biso   1.000  C
  C571     1.0000 0.03130  0.64520  0.51540  Biso   1.000  C
  C572     1.0000 0.01840  0.67870  0.51290  Biso   1.000  C
  Zn45     1.0000 0.81680  0.07570  0.16210  Biso   1.000  Zn
  Zn46     1.0000 0.67700  0.07580  0.12740  Biso   1.000  Zn
  Zn47     1.0000 0.71980  0.17380  0.20230  Biso   1.000  Zn
  Zn48     1.0000 0.57350  0.07650  0.05190  Biso   1.000  Zn
  Cl111    1.0000 0.72500  0.06130  0.27860  Biso   1.000  Cl
  Cl112    1.0000 0.74740  0.15230  0.05250  Biso   1.000  Cl
  Cl113    1.0000 0.60280  0.07790  0.22810  Biso   1.000  Cl
  Cl114    1.0000 0.66970  0.27280  0.12480  Biso   1.000  Cl
  Cl115    1.0000 0.54520  0.15860  0.14550  Biso   1.000  Cl
  Cl116    1.0000 0.56890  0.03820  0.19940  Biso   1.000  Cl
  Cl117    1.0000 0.63620  0.22220  0.04740  Biso   1.000  Cl
  Cl118    1.0000 0.91280  0.03270  0.08190  Biso   1.000  Cl
  Cl119    1.0000 0.53140  0.05300  0.14830  Biso   1.000  Cl
  Cl120    1.0000 0.73230  0.09110  0.02180  Biso   1.000  Cl
  N177     1.0000 0.82890  0.02710  0.17030  Biso   1.000  N
  N178     1.0000 0.79310  0.09870  0.18920  Biso   1.000  N
  N179     1.0000 0.75860  0.13870  0.20470  Biso   1.000  N
  N180     1.0000 0.78360  0.07490  0.13620  Biso   1.000  N
  N181     1.0000 0.72920  0.07300  0.12340  Biso   1.000  N
  N182     1.0000 0.69210  0.17670  0.23240  Biso   1.000  N
  N183     1.0000 0.74160  0.21780  0.19510  Biso   1.000  N
  N184     1.0000 0.67110  0.11220  0.15290  Biso   1.000  N
  N185     1.0000 0.68940  0.15510  0.17770  Biso   1.000  N
  N186     1.0000 0.66210  0.03140  0.13650  Biso   1.000  N
  N187     1.0000 0.60310  0.09500  0.07410  Biso   1.000  N
  N188     1.0000 0.65120  0.09290  0.10130  Biso   1.000  N
  N189     1.0000 0.85930  0.10300  0.15460  Biso   1.000  N
  N190     1.0000 0.56500  0.02930  0.06480  Biso   1.000  N
  N191     1.0000 0.53000  0.09800  0.05120  Biso   1.000  N
  N192     1.0000 0.59350  0.07430  0.02020  Biso   1.000  N
  C573     1.0000 0.85700  0.02090  0.18530  Biso   1.000  C
  C574     1.0000 0.88330  0.03630  0.19930  Biso   1.000  C
  C575     1.0000 0.89980  0.01450  0.21560  Biso   1.000  C
  C576     1.0000 0.77860  0.12960  0.18600  Biso   1.000  C
  C577     1.0000 0.78270  0.08930  0.20820  Biso   1.000  C
  C578     1.0000 0.79170  0.05920  0.22000  Biso   1.000  C
  C579     1.0000 0.77850  0.05240  0.24240  Biso   1.000  C
  C580     1.0000 0.75630  0.07590  0.25310  Biso   1.000  C
  C581     1.0000 0.74730  0.10610  0.24130  Biso   1.000  C
  C582     1.0000 0.76050  0.11280  0.21890  Biso   1.000  C
  C583     1.0000 0.75010  0.06210  0.14110  Biso   1.000  C
  C584     1.0000 0.74360  0.09030  0.10530  Biso   1.000  C
  C585     1.0000 0.73970  0.10620  0.08340  Biso   1.000  C
  C586     1.0000 0.76770  0.12220  0.07270  Biso   1.000  C
  C587     1.0000 0.79970  0.12210  0.08380  Biso   1.000  C
  C588     1.0000 0.80370  0.10620  0.10560  Biso   1.000  C
  C589     1.0000 0.77560  0.09030  0.11640  Biso   1.000  C
  C590     1.0000 0.66350  0.15520  0.23970  Biso   1.000  C
  C591     1.0000 0.64960  0.12700  0.22690  Biso   1.000  C
  C592     1.0000 0.62520  0.11250  0.24090  Biso   1.000  C
  C593     1.0000 0.73210  0.24110  0.17770  Biso   1.000  C
  C594     1.0000 0.70410  0.24110  0.15860  Biso   1.000  C
  C595     1.0000 0.70500  0.27150  0.14500  Biso   1.000  C
  C596     1.0000 0.69860  0.12770  0.16500  Biso   1.000  C
  C597     1.0000 0.65570  0.15850  0.17240  Biso   1.000  C
  C598     1.0000 0.63300  0.18330  0.18090  Biso   1.000  C
  C599     1.0000 0.59890  0.18370  0.17330  Biso   1.000  C
  C600     1.0000 0.58750  0.15910  0.15710  Biso   1.000  C
  C601     1.0000 0.61020  0.13430  0.14860  Biso   1.000  C
  C602     1.0000 0.64430  0.13400  0.15620  Biso   1.000  C
  C603     1.0000 0.63800  0.01970  0.15490  Biso   1.000  C
  C604     1.0000 0.61830  0.04020  0.16650  Biso   1.000  C
  C605     1.0000 0.60180  0.01840  0.18010  Biso   1.000  C
  C606     1.0000 0.62420  0.07620  0.08920  Biso   1.000  C
  C607     1.0000 0.64640  0.12540  0.09480  Biso   1.000  C
  C608     1.0000 0.66290  0.15660  0.09890  Biso   1.000  C
  C609     1.0000 0.65420  0.18560  0.08570  Biso   1.000  C
  C610     1.0000 0.62890  0.18340  0.06840  Biso   1.000  C
  C611     1.0000 0.61230  0.15210  0.06420  Biso   1.000  C
  C612     1.0000 0.62100  0.12320  0.07740  Biso   1.000  C
  C613     1.0000 0.88180  0.09090  0.13800  Biso   1.000  C
  C614     1.0000 0.88370  0.06100  0.11970  Biso   1.000  C
  C615     1.0000 0.91130  0.06390  0.10580  Biso   1.000  C
  C616     1.0000 0.55930  0.01520  0.08700  Biso   1.000  C
  C617     1.0000 0.55050  0.03650  0.10600  Biso   1.000  C
  C618     1.0000 0.54340  0.01960  0.12670  Biso   1.000  C
  C619     1.0000 0.62800  0.07660  0.01210  Biso   1.000  C
  C620     1.0000 0.65810  0.09030  0.02460  Biso   1.000  C
  C621     1.0000 0.68560  0.09650  0.01240  Biso   1.000  C
  C622     1.0000 0.51730  0.12170  0.03160  Biso   1.000  C
  C623     1.0000 0.53130  0.14520  0.01540  Biso   1.000  C
  C624     1.0000 0.51840  0.17870  0.01290  Biso   1.000  C
  Zn49     1.0000 0.42430  0.31680  0.66210  Biso   1.000  Zn
  Zn50     1.0000 0.42420  0.17700  0.62740  Biso   1.000  Zn
  Zn51     1.0000 0.32620  0.21980  0.70230  Biso   1.000  Zn
  Zn52     1.0000 0.42350  0.07350  0.55190  Biso   1.000  Zn
  Cl121    1.0000 0.43870  0.22500  0.77860  Biso   1.000  Cl
  Cl122    1.0000 0.34770  0.24740  0.55250  Biso   1.000  Cl
  Cl123    1.0000 0.42210  0.10280  0.72810  Biso   1.000  Cl
  Cl124    1.0000 0.22720  0.16970  0.62480  Biso   1.000  Cl
  Cl125    1.0000 0.34140  0.04520  0.64550  Biso   1.000  Cl
  Cl126    1.0000 0.46180  0.06890  0.69940  Biso   1.000  Cl
  Cl127    1.0000 0.27780  0.13620  0.54740  Biso   1.000  Cl
  Cl128    1.0000 0.46730  0.41280  0.58190  Biso   1.000  Cl
  Cl129    1.0000 0.44700  0.03140  0.64830  Biso   1.000  Cl
  Cl130    1.0000 0.40890  0.23230  0.52180  Biso   1.000  Cl
  N193     1.0000 0.47290  0.32890  0.67030  Biso   1.000  N
  N194     1.0000 0.40130  0.29310  0.68920  Biso   1.000  N
  N195     1.0000 0.36130  0.25860  0.70470  Biso   1.000  N
  N196     1.0000 0.42510  0.28360  0.63620  Biso   1.000  N
  N197     1.0000 0.42700  0.22920  0.62340  Biso   1.000  N
  N198     1.0000 0.32330  0.19210  0.73240  Biso   1.000  N
  N199     1.0000 0.28220  0.24160  0.69510  Biso   1.000  N
  N200     1.0000 0.38780  0.17110  0.65290  Biso   1.000  N
  N201     1.0000 0.34490  0.18940  0.67770  Biso   1.000  N
  N202     1.0000 0.46860  0.16210  0.63650  Biso   1.000  N
  N203     1.0000 0.40500  0.10310  0.57410  Biso   1.000  N
  N204     1.0000 0.40710  0.15120  0.60130  Biso   1.000  N
  N205     1.0000 0.39700  0.35930  0.65460  Biso   1.000  N
  N206     1.0000 0.47070  0.06500  0.56480  Biso   1.000  N
  N207     1.0000 0.40200  0.03000  0.55120  Biso   1.000  N
  N208     1.0000 0.42570  0.09350  0.52020  Biso   1.000  N
  C625     1.0000 0.47910  0.35700  0.68530  Biso   1.000  C
  C626     1.0000 0.46370  0.38330  0.69930  Biso   1.000  C
  C627     1.0000 0.48550  0.39980  0.71560  Biso   1.000  C
  C628     1.0000 0.37040  0.27860  0.68600  Biso   1.000  C
  C629     1.0000 0.41070  0.28270  0.70820  Biso   1.000  C
  C630     1.0000 0.44080  0.29170  0.72000  Biso   1.000  C
  C631     1.0000 0.44760  0.27850  0.74240  Biso   1.000  C
  C632     1.0000 0.42410  0.25630  0.75310  Biso   1.000  C
  C633     1.0000 0.39390  0.24730  0.74130  Biso   1.000  C
  C634     1.0000 0.38720  0.26050  0.71890  Biso   1.000  C
  C635     1.0000 0.43790  0.25010  0.64110  Biso   1.000  C
  C636     1.0000 0.40970  0.24360  0.60530  Biso   1.000  C
  C637     1.0000 0.39380  0.23970  0.58340  Biso   1.000  C
  C638     1.0000 0.37780  0.26770  0.57270  Biso   1.000  C
  C639     1.0000 0.37790  0.29970  0.58380  Biso   1.000  C
  C640     1.0000 0.39380  0.30370  0.60560  Biso   1.000  C
  C641     1.0000 0.40970  0.27560  0.61640  Biso   1.000  C
  C642     1.0000 0.34480  0.16350  0.73970  Biso   1.000  C
  C643     1.0000 0.37300  0.14960  0.72690  Biso   1.000  C
  C644     1.0000 0.38750  0.12520  0.74090  Biso   1.000  C
  C645     1.0000 0.25890  0.23210  0.67770  Biso   1.000  C
  C646     1.0000 0.25890  0.20410  0.65860  Biso   1.000  C
  C647     1.0000 0.22850  0.20500  0.64500  Biso   1.000  C
  C648     1.0000 0.37230  0.19860  0.66500  Biso   1.000  C
  C649     1.0000 0.34150  0.15570  0.67240  Biso   1.000  C
  C650     1.0000 0.31670  0.13300  0.68090  Biso   1.000  C
  C651     1.0000 0.31630  0.09890  0.67330  Biso   1.000  C
  C652     1.0000 0.34090  0.08750  0.65710  Biso   1.000  C
  C653     1.0000 0.36570  0.11020  0.64860  Biso   1.000  C
  C654     1.0000 0.36600  0.14430  0.65620  Biso   1.000  C
  C655     1.0000 0.48030  0.13800  0.65490  Biso   1.000  C
  C656     1.0000 0.45980  0.11830  0.66650  Biso   1.000  C
  C657     1.0000 0.48160  0.10180  0.68010  Biso   1.000  C
  C658     1.0000 0.42380  0.12420  0.58920  Biso   1.000  C
  C659     1.0000 0.37460  0.14640  0.59480  Biso   1.000  C
  C660     1.0000 0.34340  0.16290  0.59890  Biso   1.000  C
  C661     1.0000 0.31440  0.15420  0.58570  Biso   1.000  C
  C662     1.0000 0.31660  0.12890  0.56840  Biso   1.000  C
  C663     1.0000 0.34790  0.11230  0.56420  Biso   1.000  C
  C664     1.0000 0.37680  0.12100  0.57740  Biso   1.000  C
  C665     1.0000 0.40910  0.38180  0.63800  Biso   1.000  C
  C666     1.0000 0.43900  0.38370  0.61970  Biso   1.000  C
  C667     1.0000 0.43610  0.41130  0.60580  Biso   1.000  C
  C668     1.0000 0.48480  0.05930  0.58700  Biso   1.000  C
  C669     1.0000 0.46350  0.05050  0.60600  Biso   1.000  C
  C670     1.0000 0.48040  0.04340  0.62670  Biso   1.000  C
  C671     1.0000 0.42340  0.12800  0.51210  Biso   1.000  C
  C672     1.0000 0.40970  0.15810  0.52460  Biso   1.000  C
  C673     1.0000 0.40350  0.18560  0.51240  Biso   1.000  C
  C674     1.0000 0.37830  0.01730  0.53160  Biso   1.000  C
  C675     1.0000 0.35480  0.03130  0.51540  Biso   1.000  C
  C676     1.0000 0.32130  0.01840  0.51290  Biso   1.000  C
  Zn53     1.0000 0.92430  0.81680  0.16210  Biso   1.000  Zn
  Zn54     1.0000 0.92420  0.67700  0.12740  Biso   1.000  Zn
  Zn55     1.0000 0.82620  0.71980  0.20230  Biso   1.000  Zn
  Zn56     1.0000 0.92350  0.57350  0.05190  Biso   1.000  Zn
  Cl131    1.0000 0.93870  0.72500  0.27860  Biso   1.000  Cl
  Cl132    1.0000 0.84770  0.74740  0.05250  Biso   1.000  Cl
  Cl133    1.0000 0.92210  0.60280  0.22810  Biso   1.000  Cl
  Cl134    1.0000 0.72720  0.66970  0.12480  Biso   1.000  Cl
  Cl135    1.0000 0.84140  0.54520  0.14550  Biso   1.000  Cl
  Cl136    1.0000 0.96180  0.56890  0.19940  Biso   1.000  Cl
  Cl137    1.0000 0.77780  0.63620  0.04740  Biso   1.000  Cl
  Cl138    1.0000 0.96730  0.91280  0.08190  Biso   1.000  Cl
  Cl139    1.0000 0.94700  0.53140  0.14830  Biso   1.000  Cl
  Cl140    1.0000 0.90890  0.73230  0.02180  Biso   1.000  Cl
  N209     1.0000 0.97290  0.82890  0.17030  Biso   1.000  N
  N210     1.0000 0.90130  0.79310  0.18920  Biso   1.000  N
  N211     1.0000 0.86130  0.75860  0.20470  Biso   1.000  N
  N212     1.0000 0.92510  0.78360  0.13620  Biso   1.000  N
  N213     1.0000 0.92700  0.72920  0.12340  Biso   1.000  N
  N214     1.0000 0.82330  0.69210  0.23240  Biso   1.000  N
  N215     1.0000 0.78220  0.74160  0.19510  Biso   1.000  N
  N216     1.0000 0.88780  0.67110  0.15290  Biso   1.000  N
  N217     1.0000 0.84490  0.68940  0.17770  Biso   1.000  N
  N218     1.0000 0.96860  0.66210  0.13650  Biso   1.000  N
  N219     1.0000 0.90500  0.60310  0.07410  Biso   1.000  N
  N220     1.0000 0.90710  0.65120  0.10130  Biso   1.000  N
  N221     1.0000 0.89700  0.85930  0.15460  Biso   1.000  N
  N222     1.0000 0.97070  0.56500  0.06480  Biso   1.000  N
  N223     1.0000 0.90200  0.53000  0.05120  Biso   1.000  N
  N224     1.0000 0.92570  0.59350  0.02020  Biso   1.000  N
  C677     1.0000 0.97910  0.85700  0.18530  Biso   1.000  C
  C678     1.0000 0.96370  0.88330  0.19930  Biso   1.000  C
  C679     1.0000 0.98550  0.89980  0.21560  Biso   1.000  C
  C680     1.0000 0.87040  0.77860  0.18600  Biso   1.000  C
  C681     1.0000 0.91070  0.78270  0.20820  Biso   1.000  C
  C682     1.0000 0.94080  0.79170  0.22000  Biso   1.000  C
  C683     1.0000 0.94760  0.77850  0.24240  Biso   1.000  C
  C684     1.0000 0.92410  0.75630  0.25310  Biso   1.000  C
  C685     1.0000 0.89390  0.74730  0.24130  Biso   1.000  C
  C686     1.0000 0.88720  0.76050  0.21890  Biso   1.000  C
  C687     1.0000 0.93790  0.75010  0.14110  Biso   1.000  C
  C688     1.0000 0.90970  0.74360  0.10530  Biso   1.000  C
  C689     1.0000 0.89380  0.73970  0.08340  Biso   1.000  C
  C690     1.0000 0.87780  0.76770  0.07270  Biso   1.000  C
  C691     1.0000 0.87790  0.79970  0.08380  Biso   1.000  C
  C692     1.0000 0.89380  0.80370  0.10560  Biso   1.000  C
  C693     1.0000 0.90970  0.77560  0.11640  Biso   1.000  C
  C694     1.0000 0.84480  0.66350  0.23970  Biso   1.000  C
  C695     1.0000 0.87300  0.64960  0.22690  Biso   1.000  C
  C696     1.0000 0.88750  0.62520  0.24090  Biso   1.000  C
  C697     1.0000 0.75890  0.73210  0.17770  Biso   1.000  C
  C698     1.0000 0.75890  0.70410  0.15860  Biso   1.000  C
  C699     1.0000 0.72850  0.70500  0.14500  Biso   1.000  C
  C700     1.0000 0.87230  0.69860  0.16500  Biso   1.000  C
  C701     1.0000 0.84150  0.65570  0.17240  Biso   1.000  C
  C702     1.0000 0.81670  0.63300  0.18090  Biso   1.000  C
  C703     1.0000 0.81630  0.59890  0.17330  Biso   1.000  C
  C704     1.0000 0.84090  0.58750  0.15710  Biso   1.000  C
  C705     1.0000 0.86570  0.61020  0.14860  Biso   1.000  C
  C706     1.0000 0.86600  0.64430  0.15620  Biso   1.000  C
  C707     1.0000 0.98030  0.63800  0.15490  Biso   1.000  C
  C708     1.0000 0.95980  0.61830  0.16650  Biso   1.000  C
  C709     1.0000 0.98160  0.60180  0.18010  Biso   1.000  C
  C710     1.0000 0.92380  0.62420  0.08920  Biso   1.000  C
  C711     1.0000 0.87460  0.64640  0.09480  Biso   1.000  C
  C712     1.0000 0.84340  0.66290  0.09890  Biso   1.000  C
  C713     1.0000 0.81440  0.65420  0.08570  Biso   1.000  C
  C714     1.0000 0.81660  0.62890  0.06840  Biso   1.000  C
  C715     1.0000 0.84790  0.61230  0.06420  Biso   1.000  C
  C716     1.0000 0.87680  0.62100  0.07740  Biso   1.000  C
  C717     1.0000 0.90910  0.88180  0.13800  Biso   1.000  C
  C718     1.0000 0.93900  0.88370  0.11970  Biso   1.000  C
  C719     1.0000 0.93610  0.91130  0.10580  Biso   1.000  C
  C720     1.0000 0.98480  0.55930  0.08700  Biso   1.000  C
  C721     1.0000 0.96350  0.55050  0.10600  Biso   1.000  C
  C722     1.0000 0.98040  0.54340  0.12670  Biso   1.000  C
  C723     1.0000 0.92340  0.62800  0.01210  Biso   1.000  C
  C724     1.0000 0.90970  0.65810  0.02460  Biso   1.000  C
  C725     1.0000 0.90350  0.68560  0.01240  Biso   1.000  C
  C726     1.0000 0.87830  0.51730  0.03160  Biso   1.000  C
  C727     1.0000 0.85480  0.53130  0.01540  Biso   1.000  C
  C728     1.0000 0.82130  0.51840  0.01290  Biso   1.000  C
  Zn57     1.0000 0.57570  0.68320  0.66210  Biso   1.000  Zn
  Zn58     1.0000 0.57580  0.82300  0.62740  Biso   1.000  Zn
  Zn59     1.0000 0.67380  0.78020  0.70230  Biso   1.000  Zn
  Zn60     1.0000 0.57650  0.92650  0.55190  Biso   1.000  Zn
  Cl141    1.0000 0.56130  0.77500  0.77860  Biso   1.000  Cl
  Cl142    1.0000 0.65230  0.75260  0.55250  Biso   1.000  Cl
  Cl143    1.0000 0.57790  0.89720  0.72810  Biso   1.000  Cl
  Cl144    1.0000 0.77280  0.83030  0.62480  Biso   1.000  Cl
  Cl145    1.0000 0.65860  0.95480  0.64550  Biso   1.000  Cl
  Cl146    1.0000 0.53820  0.93110  0.69940  Biso   1.000  Cl
  Cl147    1.0000 0.72220  0.86380  0.54740  Biso   1.000  Cl
  Cl148    1.0000 0.53270  0.58720  0.58190  Biso   1.000  Cl
  Cl149    1.0000 0.55300  0.96860  0.64830  Biso   1.000  Cl
  Cl150    1.0000 0.59110  0.76770  0.52180  Biso   1.000  Cl
  N225     1.0000 0.52710  0.67110  0.67030  Biso   1.000  N
  N226     1.0000 0.59870  0.70690  0.68920  Biso   1.000  N
  N227     1.0000 0.63870  0.74140  0.70470  Biso   1.000  N
  N228     1.0000 0.57490  0.71640  0.63620  Biso   1.000  N
  N229     1.0000 0.57300  0.77080  0.62340  Biso   1.000  N
  N230     1.0000 0.67670  0.80790  0.73240  Biso   1.000  N
  N231     1.0000 0.71780  0.75840  0.69510  Biso   1.000  N
  N232     1.0000 0.61220  0.82890  0.65290  Biso   1.000  N
  N233     1.0000 0.65510  0.81060  0.67770  Biso   1.000  N
  N234     1.0000 0.53140  0.83790  0.63650  Biso   1.000  N
  N235     1.0000 0.59500  0.89690  0.57410  Biso   1.000  N
  N236     1.0000 0.59290  0.84880  0.60130  Biso   1.000  N
  N237     1.0000 0.60300  0.64070  0.65460  Biso   1.000  N
  N238     1.0000 0.52930  0.93500  0.56480  Biso   1.000  N
  N239     1.0000 0.59800  0.97000  0.55120  Biso   1.000  N
  N240     1.0000 0.57430  0.90650  0.52020  Biso   1.000  N
  C729     1.0000 0.52090  0.64300  0.68530  Biso   1.000  C
  C730     1.0000 0.53630  0.61670  0.69930  Biso   1.000  C
  C731     1.0000 0.51450  0.60020  0.71560  Biso   1.000  C
  C732     1.0000 0.62960  0.72140  0.68600  Biso   1.000  C
  C733     1.0000 0.58930  0.71730  0.70820  Biso   1.000  C
  C734     1.0000 0.55920  0.70830  0.72000  Biso   1.000  C
  C735     1.0000 0.55240  0.72150  0.74240  Biso   1.000  C
  C736     1.0000 0.57590  0.74370  0.75310  Biso   1.000  C
  C737     1.0000 0.60610  0.75270  0.74130  Biso   1.000  C
  C738     1.0000 0.61280  0.73950  0.71890  Biso   1.000  C
  C739     1.0000 0.56210  0.74990  0.64110  Biso   1.000  C
  C740     1.0000 0.59030  0.75640  0.60530  Biso   1.000  C
  C741     1.0000 0.60620  0.76030  0.58340  Biso   1.000  C
  C742     1.0000 0.62220  0.73230  0.57270  Biso   1.000  C
  C743     1.0000 0.62210  0.70030  0.58380  Biso   1.000  C
  C744     1.0000 0.60620  0.69630  0.60560  Biso   1.000  C
  C745     1.0000 0.59030  0.72440  0.61640  Biso   1.000  C
  C746     1.0000 0.65520  0.83650  0.73970  Biso   1.000  C
  C747     1.0000 0.62700  0.85040  0.72690  Biso   1.000  C
  C748     1.0000 0.61250  0.87480  0.74090  Biso   1.000  C
  C749     1.0000 0.74110  0.76790  0.67770  Biso   1.000  C
  C750     1.0000 0.74110  0.79590  0.65860  Biso   1.000  C
  C751     1.0000 0.77150  0.79500  0.64500  Biso   1.000  C
  C752     1.0000 0.62770  0.80140  0.66500  Biso   1.000  C
  C753     1.0000 0.65850  0.84430  0.67240  Biso   1.000  C
  C754     1.0000 0.68330  0.86700  0.68090  Biso   1.000  C
  C755     1.0000 0.68370  0.90110  0.67330  Biso   1.000  C
  C756     1.0000 0.65910  0.91250  0.65710  Biso   1.000  C
  C757     1.0000 0.63430  0.88980  0.64860  Biso   1.000  C
  C758     1.0000 0.63400  0.85570  0.65620  Biso   1.000  C
  C759     1.0000 0.51970  0.86200  0.65490  Biso   1.000  C
  C760     1.0000 0.54020  0.88170  0.66650  Biso   1.000  C
  C761     1.0000 0.51840  0.89820  0.68010  Biso   1.000  C
  C762     1.0000 0.57620  0.87580  0.58920  Biso   1.000  C
  C763     1.0000 0.62540  0.85360  0.59480  Biso   1.000  C
  C764     1.0000 0.65660  0.83710  0.59890  Biso   1.000  C
  C765     1.0000 0.68560  0.84580  0.58570  Biso   1.000  C
  C766     1.0000 0.68340  0.87110  0.56840  Biso   1.000  C
  C767     1.0000 0.65210  0.88770  0.56420  Biso   1.000  C
  C768     1.0000 0.62320  0.87900  0.57740  Biso   1.000  C
  C769     1.0000 0.59090  0.61820  0.63800  Biso   1.000  C
  C770     1.0000 0.56100  0.61630  0.61970  Biso   1.000  C
  C771     1.0000 0.56390  0.58870  0.60580  Biso   1.000  C
  C772     1.0000 0.51520  0.94070  0.58700  Biso   1.000  C
  C773     1.0000 0.53650  0.94950  0.60600  Biso   1.000  C
  C774     1.0000 0.51960  0.95660  0.62670  Biso   1.000  C
  C775     1.0000 0.57660  0.87200  0.51210  Biso   1.000  C
  C776     1.0000 0.59030  0.84190  0.52460  Biso   1.000  C
  C777     1.0000 0.59650  0.81440  0.51240  Biso   1.000  C
  C778     1.0000 0.62170  0.98270  0.53160  Biso   1.000  C
  C779     1.0000 0.64520  0.96870  0.51540  Biso   1.000  C
  C780     1.0000 0.67870  0.98160  0.51290  Biso   1.000  C
  Zn61     1.0000 0.07570  0.18320  0.16210  Biso   1.000  Zn
  Zn62     1.0000 0.07580  0.32300  0.12740  Biso   1.000  Zn
  Zn63     1.0000 0.17380  0.28020  0.20230  Biso   1.000  Zn
  Zn64     1.0000 0.07650  0.42650  0.05190  Biso   1.000  Zn
  Cl151    1.0000 0.06130  0.27500  0.27860  Biso   1.000  Cl
  Cl152    1.0000 0.15230  0.25260  0.05250  Biso   1.000  Cl
  Cl153    1.0000 0.07790  0.39720  0.22810  Biso   1.000  Cl
  Cl154    1.0000 0.27280  0.33030  0.12480  Biso   1.000  Cl
  Cl155    1.0000 0.15860  0.45480  0.14550  Biso   1.000  Cl
  Cl156    1.0000 0.03820  0.43110  0.19940  Biso   1.000  Cl
  Cl157    1.0000 0.22220  0.36380  0.04740  Biso   1.000  Cl
  Cl158    1.0000 0.03270  0.08720  0.08190  Biso   1.000  Cl
  Cl159    1.0000 0.05300  0.46860  0.14830  Biso   1.000  Cl
  Cl160    1.0000 0.09110  0.26770  0.02180  Biso   1.000  Cl
  N241     1.0000 0.02710  0.17110  0.17030  Biso   1.000  N
  N242     1.0000 0.09870  0.20690  0.18920  Biso   1.000  N
  N243     1.0000 0.13870  0.24140  0.20470  Biso   1.000  N
  N244     1.0000 0.07490  0.21640  0.13620  Biso   1.000  N
  N245     1.0000 0.07300  0.27080  0.12340  Biso   1.000  N
  N246     1.0000 0.17670  0.30790  0.23240  Biso   1.000  N
  N247     1.0000 0.21780  0.25840  0.19510  Biso   1.000  N
  N248     1.0000 0.11220  0.32890  0.15290  Biso   1.000  N
  N249     1.0000 0.15510  0.31060  0.17770  Biso   1.000  N
  N250     1.0000 0.03140  0.33790  0.13650  Biso   1.000  N
  N251     1.0000 0.09500  0.39690  0.07410  Biso   1.000  N
  N252     1.0000 0.09290  0.34880  0.10130  Biso   1.000  N
  N253     1.0000 0.10300  0.14070  0.15460  Biso   1.000  N
  N254     1.0000 0.02930  0.43500  0.06480  Biso   1.000  N
  N255     1.0000 0.09800  0.47000  0.05120  Biso   1.000  N
  N256     1.0000 0.07430  0.40650  0.02020  Biso   1.000  N
  C781     1.0000 0.02090  0.14300  0.18530  Biso   1.000  C
  C782     1.0000 0.03630  0.11670  0.19930  Biso   1.000  C
  C783     1.0000 0.01450  0.10020  0.21560  Biso   1.000  C
  C784     1.0000 0.12960  0.22140  0.18600  Biso   1.000  C
  C785     1.0000 0.08930  0.21730  0.20820  Biso   1.000  C
  C786     1.0000 0.05920  0.20830  0.22000  Biso   1.000  C
  C787     1.0000 0.05240  0.22150  0.24240  Biso   1.000  C
  C788     1.0000 0.07590  0.24370  0.25310  Biso   1.000  C
  C789     1.0000 0.10610  0.25270  0.24130  Biso   1.000  C
  C790     1.0000 0.11280  0.23950  0.21890  Biso   1.000  C
  C791     1.0000 0.06210  0.24990  0.14110  Biso   1.000  C
  C792     1.0000 0.09030  0.25640  0.10530  Biso   1.000  C
  C793     1.0000 0.10620  0.26030  0.08340  Biso   1.000  C
  C794     1.0000 0.12220  0.23230  0.07270  Biso   1.000  C
  C795     1.0000 0.12210  0.20030  0.08380  Biso   1.000  C
  C796     1.0000 0.10620  0.19630  0.10560  Biso   1.000  C
  C797     1.0000 0.09030  0.22440  0.11640  Biso   1.000  C
  C798     1.0000 0.15520  0.33650  0.23970  Biso   1.000  C
  C799     1.0000 0.12700  0.35040  0.22690  Biso   1.000  C
  C800     1.0000 0.11250  0.37480  0.24090  Biso   1.000  C
  C801     1.0000 0.24110  0.26790  0.17770  Biso   1.000  C
  C802     1.0000 0.24110  0.29590  0.15860  Biso   1.000  C
  C803     1.0000 0.27150  0.29500  0.14500  Biso   1.000  C
  C804     1.0000 0.12770  0.30140  0.16500  Biso   1.000  C
  C805     1.0000 0.15850  0.34430  0.17240  Biso   1.000  C
  C806     1.0000 0.18330  0.36700  0.18090  Biso   1.000  C
  C807     1.0000 0.18370  0.40110  0.17330  Biso   1.000  C
  C808     1.0000 0.15910  0.41250  0.15710  Biso   1.000  C
  C809     1.0000 0.13430  0.38980  0.14860  Biso   1.000  C
  C810     1.0000 0.13400  0.35570  0.15620  Biso   1.000  C
  C811     1.0000 0.01970  0.36200  0.15490  Biso   1.000  C
  C812     1.0000 0.04020  0.38170  0.16650  Biso   1.000  C
  C813     1.0000 0.01840  0.39820  0.18010  Biso   1.000  C
  C814     1.0000 0.07620  0.37580  0.08920  Biso   1.000  C
  C815     1.0000 0.12540  0.35360  0.09480  Biso   1.000  C
  C816     1.0000 0.15660  0.33710  0.09890  Biso   1.000  C
  C817     1.0000 0.18560  0.34580  0.08570  Biso   1.000  C
  C818     1.0000 0.18340  0.37110  0.06840  Biso   1.000  C
  C819     1.0000 0.15210  0.38770  0.06420  Biso   1.000  C
  C820     1.0000 0.12320  0.37900  0.07740  Biso   1.000  C
  C821     1.0000 0.09090  0.11820  0.13800  Biso   1.000  C
  C822     1.0000 0.06100  0.11630  0.11970  Biso   1.000  C
  C823     1.0000 0.06390  0.08870  0.10580  Biso   1.000  C
  C824     1.0000 0.01520  0.44070  0.08700  Biso   1.000  C
  C825     1.0000 0.03650  0.44950  0.10600  Biso   1.000  C
  C826     1.0000 0.01960  0.45660  0.12670  Biso   1.000  C
  C827     1.0000 0.07660  0.37200  0.01210  Biso   1.000  C
  C828     1.0000 0.09030  0.34190  0.02460  Biso   1.000  C
  C829     1.0000 0.09650  0.31440  0.01240  Biso   1.000  C
  C830     1.0000 0.12170  0.48270  0.03160  Biso   1.000  C
  C831     1.0000 0.14520  0.46870  0.01540  Biso   1.000  C
  C832     1.0000 0.17870  0.48160  0.01290  Biso   1.000  C
  Zn65     1.0000 0.68320  0.57570  0.66210  Biso   1.000  Zn
  Zn66     1.0000 0.82300  0.57580  0.62740  Biso   1.000  Zn
  Zn67     1.0000 0.78020  0.67380  0.70230  Biso   1.000  Zn
  Zn68     1.0000 0.92650  0.57650  0.55190  Biso   1.000  Zn
  Cl161    1.0000 0.77500  0.56130  0.77860  Biso   1.000  Cl
  Cl162    1.0000 0.75260  0.65230  0.55250  Biso   1.000  Cl
  Cl163    1.0000 0.89720  0.57790  0.72810  Biso   1.000  Cl
  Cl164    1.0000 0.83030  0.77280  0.62480  Biso   1.000  Cl
  Cl165    1.0000 0.95480  0.65860  0.64550  Biso   1.000  Cl
  Cl166    1.0000 0.93110  0.53820  0.69940  Biso   1.000  Cl
  Cl167    1.0000 0.86380  0.72220  0.54740  Biso   1.000  Cl
  Cl168    1.0000 0.58720  0.53270  0.58190  Biso   1.000  Cl
  Cl169    1.0000 0.96860  0.55300  0.64830  Biso   1.000  Cl
  Cl170    1.0000 0.76770  0.59110  0.52180  Biso   1.000  Cl
  N257     1.0000 0.67110  0.52710  0.67030  Biso   1.000  N
  N258     1.0000 0.70690  0.59870  0.68920  Biso   1.000  N
  N259     1.0000 0.74140  0.63870  0.70470  Biso   1.000  N
  N260     1.0000 0.71640  0.57490  0.63620  Biso   1.000  N
  N261     1.0000 0.77080  0.57300  0.62340  Biso   1.000  N
  N262     1.0000 0.80790  0.67670  0.73240  Biso   1.000  N
  N263     1.0000 0.75840  0.71780  0.69510  Biso   1.000  N
  N264     1.0000 0.82890  0.61220  0.65290  Biso   1.000  N
  N265     1.0000 0.81060  0.65510  0.67770  Biso   1.000  N
  N266     1.0000 0.83790  0.53140  0.63650  Biso   1.000  N
  N267     1.0000 0.89690  0.59500  0.57410  Biso   1.000  N
  N268     1.0000 0.84880  0.59290  0.60130  Biso   1.000  N
  N269     1.0000 0.64070  0.60300  0.65460  Biso   1.000  N
  N270     1.0000 0.93500  0.52930  0.56480  Biso   1.000  N
  N271     1.0000 0.97000  0.59800  0.55120  Biso   1.000  N
  N272     1.0000 0.90650  0.57430  0.52020  Biso   1.000  N
  C833     1.0000 0.64300  0.52090  0.68530  Biso   1.000  C
  C834     1.0000 0.61670  0.53630  0.69930  Biso   1.000  C
  C835     1.0000 0.60020  0.51450  0.71560  Biso   1.000  C
  C836     1.0000 0.72140  0.62960  0.68600  Biso   1.000  C
  C837     1.0000 0.71730  0.58930  0.70820  Biso   1.000  C
  C838     1.0000 0.70830  0.55920  0.72000  Biso   1.000  C
  C839     1.0000 0.72150  0.55240  0.74240  Biso   1.000  C
  C840     1.0000 0.74370  0.57590  0.75310  Biso   1.000  C
  C841     1.0000 0.75270  0.60610  0.74130  Biso   1.000  C
  C842     1.0000 0.73950  0.61280  0.71890  Biso   1.000  C
  C843     1.0000 0.74990  0.56210  0.64110  Biso   1.000  C
  C844     1.0000 0.75640  0.59030  0.60530  Biso   1.000  C
  C845     1.0000 0.76030  0.60620  0.58340  Biso   1.000  C
  C846     1.0000 0.73230  0.62220  0.57270  Biso   1.000  C
  C847     1.0000 0.70030  0.62210  0.58380  Biso   1.000  C
  C848     1.0000 0.69630  0.60620  0.60560  Biso   1.000  C
  C849     1.0000 0.72440  0.59030  0.61640  Biso   1.000  C
  C850     1.0000 0.83650  0.65520  0.73970  Biso   1.000  C
  C851     1.0000 0.85040  0.62700  0.72690  Biso   1.000  C
  C852     1.0000 0.87480  0.61250  0.74090  Biso   1.000  C
  C853     1.0000 0.76790  0.74110  0.67770  Biso   1.000  C
  C854     1.0000 0.79590  0.74110  0.65860  Biso   1.000  C
  C855     1.0000 0.79500  0.77150  0.64500  Biso   1.000  C
  C856     1.0000 0.80140  0.62770  0.66500  Biso   1.000  C
  C857     1.0000 0.84430  0.65850  0.67240  Biso   1.000  C
  C858     1.0000 0.86700  0.68330  0.68090  Biso   1.000  C
  C859     1.0000 0.90110  0.68370  0.67330  Biso   1.000  C
  C860     1.0000 0.91250  0.65910  0.65710  Biso   1.000  C
  C861     1.0000 0.88980  0.63430  0.64860  Biso   1.000  C
  C862     1.0000 0.85570  0.63400  0.65620  Biso   1.000  C
  C863     1.0000 0.86200  0.51970  0.65490  Biso   1.000  C
  C864     1.0000 0.88170  0.54020  0.66650  Biso   1.000  C
  C865     1.0000 0.89820  0.51840  0.68010  Biso   1.000  C
  C866     1.0000 0.87580  0.57620  0.58920  Biso   1.000  C
  C867     1.0000 0.85360  0.62540  0.59480  Biso   1.000  C
  C868     1.0000 0.83710  0.65660  0.59890  Biso   1.000  C
  C869     1.0000 0.84580  0.68560  0.58570  Biso   1.000  C
  C870     1.0000 0.87110  0.68340  0.56840  Biso   1.000  C
  C871     1.0000 0.88770  0.65210  0.56420  Biso   1.000  C
  C872     1.0000 0.87900  0.62320  0.57740  Biso   1.000  C
  C873     1.0000 0.61820  0.59090  0.63800  Biso   1.000  C
  C874     1.0000 0.61630  0.56100  0.61970  Biso   1.000  C
  C875     1.0000 0.58870  0.56390  0.60580  Biso   1.000  C
  C876     1.0000 0.94070  0.51520  0.58700  Biso   1.000  C
  C877     1.0000 0.94950  0.53650  0.60600  Biso   1.000  C
  C878     1.0000 0.95660  0.51960  0.62670  Biso   1.000  C
  C879     1.0000 0.87200  0.57660  0.51210  Biso   1.000  C
  C880     1.0000 0.84190  0.59030  0.52460  Biso   1.000  C
  C881     1.0000 0.81440  0.59650  0.51240  Biso   1.000  C
  C882     1.0000 0.98270  0.62170  0.53160  Biso   1.000  C
  C883     1.0000 0.96870  0.64520  0.51540  Biso   1.000  C
  C884     1.0000 0.98160  0.67870  0.51290  Biso   1.000  C
  Zn69     1.0000 0.18320  0.07570  0.16210  Biso   1.000  Zn
  Zn70     1.0000 0.32300  0.07580  0.12740  Biso   1.000  Zn
  Zn71     1.0000 0.28020  0.17380  0.20230  Biso   1.000  Zn
  Zn72     1.0000 0.42650  0.07650  0.05190  Biso   1.000  Zn
  Cl171    1.0000 0.27500  0.06130  0.27860  Biso   1.000  Cl
  Cl172    1.0000 0.25260  0.15230  0.05250  Biso   1.000  Cl
  Cl173    1.0000 0.39720  0.07790  0.22810  Biso   1.000  Cl
  Cl174    1.0000 0.33030  0.27280  0.12480  Biso   1.000  Cl
  Cl175    1.0000 0.45480  0.15860  0.14550  Biso   1.000  Cl
  Cl176    1.0000 0.43110  0.03820  0.19940  Biso   1.000  Cl
  Cl177    1.0000 0.36380  0.22220  0.04740  Biso   1.000  Cl
  Cl178    1.0000 0.08720  0.03270  0.08190  Biso   1.000  Cl
  Cl179    1.0000 0.46860  0.05300  0.14830  Biso   1.000  Cl
  Cl180    1.0000 0.26770  0.09110  0.02180  Biso   1.000  Cl
  N273     1.0000 0.17110  0.02710  0.17030  Biso   1.000  N
  N274     1.0000 0.20690  0.09870  0.18920  Biso   1.000  N
  N275     1.0000 0.24140  0.13870  0.20470  Biso   1.000  N
  N276     1.0000 0.21640  0.07490  0.13620  Biso   1.000  N
  N277     1.0000 0.27080  0.07300  0.12340  Biso   1.000  N
  N278     1.0000 0.30790  0.17670  0.23240  Biso   1.000  N
  N279     1.0000 0.25840  0.21780  0.19510  Biso   1.000  N
  N280     1.0000 0.32890  0.11220  0.15290  Biso   1.000  N
  N281     1.0000 0.31060  0.15510  0.17770  Biso   1.000  N
  N282     1.0000 0.33790  0.03140  0.13650  Biso   1.000  N
  N283     1.0000 0.39690  0.09500  0.07410  Biso   1.000  N
  N284     1.0000 0.34880  0.09290  0.10130  Biso   1.000  N
  N285     1.0000 0.14070  0.10300  0.15460  Biso   1.000  N
  N286     1.0000 0.43500  0.02930  0.06480  Biso   1.000  N
  N287     1.0000 0.47000  0.09800  0.05120  Biso   1.000  N
  N288     1.0000 0.40650  0.07430  0.02020  Biso   1.000  N
  C885     1.0000 0.14300  0.02090  0.18530  Biso   1.000  C
  C886     1.0000 0.11670  0.03630  0.19930  Biso   1.000  C
  C887     1.0000 0.10020  0.01450  0.21560  Biso   1.000  C
  C888     1.0000 0.22140  0.12960  0.18600  Biso   1.000  C
  C889     1.0000 0.21730  0.08930  0.20820  Biso   1.000  C
  C890     1.0000 0.20830  0.05920  0.22000  Biso   1.000  C
  C891     1.0000 0.22150  0.05240  0.24240  Biso   1.000  C
  C892     1.0000 0.24370  0.07590  0.25310  Biso   1.000  C
  C893     1.0000 0.25270  0.10610  0.24130  Biso   1.000  C
  C894     1.0000 0.23950  0.11280  0.21890  Biso   1.000  C
  C895     1.0000 0.24990  0.06210  0.14110  Biso   1.000  C
  C896     1.0000 0.25640  0.09030  0.10530  Biso   1.000  C
  C897     1.0000 0.26030  0.10620  0.08340  Biso   1.000  C
  C898     1.0000 0.23230  0.12220  0.07270  Biso   1.000  C
  C899     1.0000 0.20030  0.12210  0.08380  Biso   1.000  C
  C900     1.0000 0.19630  0.10620  0.10560  Biso   1.000  C
  C901     1.0000 0.22440  0.09030  0.11640  Biso   1.000  C
  C902     1.0000 0.33650  0.15520  0.23970  Biso   1.000  C
  C903     1.0000 0.35040  0.12700  0.22690  Biso   1.000  C
  C904     1.0000 0.37480  0.11250  0.24090  Biso   1.000  C
  C905     1.0000 0.26790  0.24110  0.17770  Biso   1.000  C
  C906     1.0000 0.29590  0.24110  0.15860  Biso   1.000  C
  C907     1.0000 0.29500  0.27150  0.14500  Biso   1.000  C
  C908     1.0000 0.30140  0.12770  0.16500  Biso   1.000  C
  C909     1.0000 0.34430  0.15850  0.17240  Biso   1.000  C
  C910     1.0000 0.36700  0.18330  0.18090  Biso   1.000  C
  C911     1.0000 0.40110  0.18370  0.17330  Biso   1.000  C
  C912     1.0000 0.41250  0.15910  0.15710  Biso   1.000  C
  C913     1.0000 0.38980  0.13430  0.14860  Biso   1.000  C
  C914     1.0000 0.35570  0.13400  0.15620  Biso   1.000  C
  C915     1.0000 0.36200  0.01970  0.15490  Biso   1.000  C
  C916     1.0000 0.38170  0.04020  0.16650  Biso   1.000  C
  C917     1.0000 0.39820  0.01840  0.18010  Biso   1.000  C
  C918     1.0000 0.37580  0.07620  0.08920  Biso   1.000  C
  C919     1.0000 0.35360  0.12540  0.09480  Biso   1.000  C
  C920     1.0000 0.33710  0.15660  0.09890  Biso   1.000  C
  C921     1.0000 0.34580  0.18560  0.08570  Biso   1.000  C
  C922     1.0000 0.37110  0.18340  0.06840  Biso   1.000  C
  C923     1.0000 0.38770  0.15210  0.06420  Biso   1.000  C
  C924     1.0000 0.37900  0.12320  0.07740  Biso   1.000  C
  C925     1.0000 0.11820  0.09090  0.13800  Biso   1.000  C
  C926     1.0000 0.11630  0.06100  0.11970  Biso   1.000  C
  C927     1.0000 0.08870  0.06390  0.10580  Biso   1.000  C
  C928     1.0000 0.44070  0.01520  0.08700  Biso   1.000  C
  C929     1.0000 0.44950  0.03650  0.10600  Biso   1.000  C
  C930     1.0000 0.45660  0.01960  0.12670  Biso   1.000  C
  C931     1.0000 0.37200  0.07660  0.01210  Biso   1.000  C
  C932     1.0000 0.34190  0.09030  0.02460  Biso   1.000  C
  C933     1.0000 0.31440  0.09650  0.01240  Biso   1.000  C
  C934     1.0000 0.48270  0.12170  0.03160  Biso   1.000  C
  C935     1.0000 0.46870  0.14520  0.01540  Biso   1.000  C
  C936     1.0000 0.48160  0.17870  0.01290  Biso   1.000  C
  Zn73     1.0000 0.31680  0.42430  0.66210  Biso   1.000  Zn
  Zn74     1.0000 0.17700  0.42420  0.62740  Biso   1.000  Zn
  Zn75     1.0000 0.21980  0.32620  0.70230  Biso   1.000  Zn
  Zn76     1.0000 0.07350  0.42350  0.55190  Biso   1.000  Zn
  Cl181    1.0000 0.22500  0.43870  0.77860  Biso   1.000  Cl
  Cl182    1.0000 0.24740  0.34770  0.55250  Biso   1.000  Cl
  Cl183    1.0000 0.10280  0.42210  0.72810  Biso   1.000  Cl
  Cl184    1.0000 0.16970  0.22720  0.62480  Biso   1.000  Cl
  Cl185    1.0000 0.04520  0.34140  0.64550  Biso   1.000  Cl
  Cl186    1.0000 0.06890  0.46180  0.69940  Biso   1.000  Cl
  Cl187    1.0000 0.13620  0.27780  0.54740  Biso   1.000  Cl
  Cl188    1.0000 0.41280  0.46730  0.58190  Biso   1.000  Cl
  Cl189    1.0000 0.03140  0.44700  0.64830  Biso   1.000  Cl
  Cl190    1.0000 0.23230  0.40890  0.52180  Biso   1.000  Cl
  N289     1.0000 0.32890  0.47290  0.67030  Biso   1.000  N
  N290     1.0000 0.29310  0.40130  0.68920  Biso   1.000  N
  N291     1.0000 0.25860  0.36130  0.70470  Biso   1.000  N
  N292     1.0000 0.28360  0.42510  0.63620  Biso   1.000  N
  N293     1.0000 0.22920  0.42700  0.62340  Biso   1.000  N
  N294     1.0000 0.19210  0.32330  0.73240  Biso   1.000  N
  N295     1.0000 0.24160  0.28220  0.69510  Biso   1.000  N
  N296     1.0000 0.17110  0.38780  0.65290  Biso   1.000  N
  N297     1.0000 0.18940  0.34490  0.67770  Biso   1.000  N
  N298     1.0000 0.16210  0.46860  0.63650  Biso   1.000  N
  N299     1.0000 0.10310  0.40500  0.57410  Biso   1.000  N
  N300     1.0000 0.15120  0.40710  0.60130  Biso   1.000  N
  N301     1.0000 0.35930  0.39700  0.65460  Biso   1.000  N
  N302     1.0000 0.06500  0.47070  0.56480  Biso   1.000  N
  N303     1.0000 0.03000  0.40200  0.55120  Biso   1.000  N
  N304     1.0000 0.09350  0.42570  0.52020  Biso   1.000  N
  C937     1.0000 0.35700  0.47910  0.68530  Biso   1.000  C
  C938     1.0000 0.38330  0.46370  0.69930  Biso   1.000  C
  C939     1.0000 0.39980  0.48550  0.71560  Biso   1.000  C
  C940     1.0000 0.27860  0.37040  0.68600  Biso   1.000  C
  C941     1.0000 0.28270  0.41070  0.70820  Biso   1.000  C
  C942     1.0000 0.29170  0.44080  0.72000  Biso   1.000  C
  C943     1.0000 0.27850  0.44760  0.74240  Biso   1.000  C
  C944     1.0000 0.25630  0.42410  0.75310  Biso   1.000  C
  C945     1.0000 0.24730  0.39390  0.74130  Biso   1.000  C
  C946     1.0000 0.26050  0.38720  0.71890  Biso   1.000  C
  C947     1.0000 0.25010  0.43790  0.64110  Biso   1.000  C
  C948     1.0000 0.24360  0.40970  0.60530  Biso   1.000  C
  C949     1.0000 0.23970  0.39380  0.58340  Biso   1.000  C
  C950     1.0000 0.26770  0.37780  0.57270  Biso   1.000  C
  C951     1.0000 0.29970  0.37790  0.58380  Biso   1.000  C
  C952     1.0000 0.30370  0.39380  0.60560  Biso   1.000  C
  C953     1.0000 0.27560  0.40970  0.61640  Biso   1.000  C
  C954     1.0000 0.16350  0.34480  0.73970  Biso   1.000  C
  C955     1.0000 0.14960  0.37300  0.72690  Biso   1.000  C
  C956     1.0000 0.12520  0.38750  0.74090  Biso   1.000  C
  C957     1.0000 0.23210  0.25890  0.67770  Biso   1.000  C
  C958     1.0000 0.20410  0.25890  0.65860  Biso   1.000  C
  C959     1.0000 0.20500  0.22850  0.64500  Biso   1.000  C
  C960     1.0000 0.19860  0.37230  0.66500  Biso   1.000  C
  C961     1.0000 0.15570  0.34150  0.67240  Biso   1.000  C
  C962     1.0000 0.13300  0.31670  0.68090  Biso   1.000  C
  C963     1.0000 0.09890  0.31630  0.67330  Biso   1.000  C
  C964     1.0000 0.08750  0.34090  0.65710  Biso   1.000  C
  C965     1.0000 0.11020  0.36570  0.64860  Biso   1.000  C
  C966     1.0000 0.14430  0.36600  0.65620  Biso   1.000  C
  C967     1.0000 0.13800  0.48030  0.65490  Biso   1.000  C
  C968     1.0000 0.11830  0.45980  0.66650  Biso   1.000  C
  C969     1.0000 0.10180  0.48160  0.68010  Biso   1.000  C
  C970     1.0000 0.12420  0.42380  0.58920  Biso   1.000  C
  C971     1.0000 0.14640  0.37460  0.59480  Biso   1.000  C
  C972     1.0000 0.16290  0.34340  0.59890  Biso   1.000  C
  C973     1.0000 0.15420  0.31440  0.58570  Biso   1.000  C
  C974     1.0000 0.12890  0.31660  0.56840  Biso   1.000  C
  C975     1.0000 0.11230  0.34790  0.56420  Biso   1.000  C
  C976     1.0000 0.12100  0.37680  0.57740  Biso   1.000  C
  C977     1.0000 0.38180  0.40910  0.63800  Biso   1.000  C
  C978     1.0000 0.38370  0.43900  0.61970  Biso   1.000  C
  C979     1.0000 0.41130  0.43610  0.60580  Biso   1.000  C
  C980     1.0000 0.05930  0.48480  0.58700  Biso   1.000  C
  C981     1.0000 0.05050  0.46350  0.60600  Biso   1.000  C
  C982     1.0000 0.04340  0.48040  0.62670  Biso   1.000  C
  C983     1.0000 0.12800  0.42340  0.51210  Biso   1.000  C
  C984     1.0000 0.15810  0.40970  0.52460  Biso   1.000  C
  C985     1.0000 0.18560  0.40350  0.51240  Biso   1.000  C
  C986     1.0000 0.01730  0.37830  0.53160  Biso   1.000  C
  C987     1.0000 0.03130  0.35480  0.51540  Biso   1.000  C
  C988     1.0000 0.01840  0.32130  0.51290  Biso   1.000  C
  Zn77     1.0000 0.81680  0.92430  0.16210  Biso   1.000  Zn
  Zn78     1.0000 0.67700  0.92420  0.12740  Biso   1.000  Zn
  Zn79     1.0000 0.71980  0.82620  0.20230  Biso   1.000  Zn
  Zn80     1.0000 0.57350  0.92350  0.05190  Biso   1.000  Zn
  Cl191    1.0000 0.72500  0.93870  0.27860  Biso   1.000  Cl
  Cl192    1.0000 0.74740  0.84770  0.05250  Biso   1.000  Cl
  Cl193    1.0000 0.60280  0.92210  0.22810  Biso   1.000  Cl
  Cl194    1.0000 0.66970  0.72720  0.12480  Biso   1.000  Cl
  Cl195    1.0000 0.54520  0.84140  0.14550  Biso   1.000  Cl
  Cl196    1.0000 0.56890  0.96180  0.19940  Biso   1.000  Cl
  Cl197    1.0000 0.63620  0.77780  0.04740  Biso   1.000  Cl
  Cl198    1.0000 0.91280  0.96730  0.08190  Biso   1.000  Cl
  Cl199    1.0000 0.53140  0.94700  0.14830  Biso   1.000  Cl
  Cl200    1.0000 0.73230  0.90890  0.02180  Biso   1.000  Cl
  N305     1.0000 0.82890  0.97290  0.17030  Biso   1.000  N
  N306     1.0000 0.79310  0.90130  0.18920  Biso   1.000  N
  N307     1.0000 0.75860  0.86130  0.20470  Biso   1.000  N
  N308     1.0000 0.78360  0.92510  0.13620  Biso   1.000  N
  N309     1.0000 0.72920  0.92700  0.12340  Biso   1.000  N
  N310     1.0000 0.69210  0.82330  0.23240  Biso   1.000  N
  N311     1.0000 0.74160  0.78220  0.19510  Biso   1.000  N
  N312     1.0000 0.67110  0.88780  0.15290  Biso   1.000  N
  N313     1.0000 0.68940  0.84490  0.17770  Biso   1.000  N
  N314     1.0000 0.66210  0.96860  0.13650  Biso   1.000  N
  N315     1.0000 0.60310  0.90500  0.07410  Biso   1.000  N
  N316     1.0000 0.65120  0.90710  0.10130  Biso   1.000  N
  N317     1.0000 0.85930  0.89700  0.15460  Biso   1.000  N
  N318     1.0000 0.56500  0.97070  0.06480  Biso   1.000  N
  N319     1.0000 0.53000  0.90200  0.05120  Biso   1.000  N
  N320     1.0000 0.59350  0.92570  0.02020  Biso   1.000  N
  C989     1.0000 0.85700  0.97910  0.18530  Biso   1.000  C
  C990     1.0000 0.88330  0.96370  0.19930  Biso   1.000  C
  C991     1.0000 0.89980  0.98550  0.21560  Biso   1.000  C
  C992     1.0000 0.77860  0.87040  0.18600  Biso   1.000  C
  C993     1.0000 0.78270  0.91070  0.20820  Biso   1.000  C
  C994     1.0000 0.79170  0.94080  0.22000  Biso   1.000  C
  C995     1.0000 0.77850  0.94760  0.24240  Biso   1.000  C
  C996     1.0000 0.75630  0.92410  0.25310  Biso   1.000  C
  C997     1.0000 0.74730  0.89390  0.24130  Biso   1.000  C
  C998     1.0000 0.76050  0.88720  0.21890  Biso   1.000  C
  C999     1.0000 0.75010  0.93790  0.14110  Biso   1.000  C
  C1000    1.0000 0.74360  0.90970  0.10530  Biso   1.000  C
  C1001    1.0000 0.73970  0.89380  0.08340  Biso   1.000  C
  C1002    1.0000 0.76770  0.87780  0.07270  Biso   1.000  C
  C1003    1.0000 0.79970  0.87790  0.08380  Biso   1.000  C
  C1004    1.0000 0.80370  0.89380  0.10560  Biso   1.000  C
  C1005    1.0000 0.77560  0.90970  0.11640  Biso   1.000  C
  C1006    1.0000 0.66350  0.84480  0.23970  Biso   1.000  C
  C1007    1.0000 0.64960  0.87300  0.22690  Biso   1.000  C
  C1008    1.0000 0.62520  0.88750  0.24090  Biso   1.000  C
  C1009    1.0000 0.73210  0.75890  0.17770  Biso   1.000  C
  C1010    1.0000 0.70410  0.75890  0.15860  Biso   1.000  C
  C1011    1.0000 0.70500  0.72850  0.14500  Biso   1.000  C
  C1012    1.0000 0.69860  0.87230  0.16500  Biso   1.000  C
  C1013    1.0000 0.65570  0.84150  0.17240  Biso   1.000  C
  C1014    1.0000 0.63300  0.81670  0.18090  Biso   1.000  C
  C1015    1.0000 0.59890  0.81630  0.17330  Biso   1.000  C
  C1016    1.0000 0.58750  0.84090  0.15710  Biso   1.000  C
  C1017    1.0000 0.61020  0.86570  0.14860  Biso   1.000  C
  C1018    1.0000 0.64430  0.86600  0.15620  Biso   1.000  C
  C1019    1.0000 0.63800  0.98030  0.15490  Biso   1.000  C
  C1020    1.0000 0.61830  0.95980  0.16650  Biso   1.000  C
  C1021    1.0000 0.60180  0.98160  0.18010  Biso   1.000  C
  C1022    1.0000 0.62420  0.92380  0.08920  Biso   1.000  C
  C1023    1.0000 0.64640  0.87460  0.09480  Biso   1.000  C
  C1024    1.0000 0.66290  0.84340  0.09890  Biso   1.000  C
  C1025    1.0000 0.65420  0.81440  0.08570  Biso   1.000  C
  C1026    1.0000 0.62890  0.81660  0.06840  Biso   1.000  C
  C1027    1.0000 0.61230  0.84790  0.06420  Biso   1.000  C
  C1028    1.0000 0.62100  0.87680  0.07740  Biso   1.000  C
  C1029    1.0000 0.88180  0.90910  0.13800  Biso   1.000  C
  C1030    1.0000 0.88370  0.93900  0.11970  Biso   1.000  C
  C1031    1.0000 0.91130  0.93610  0.10580  Biso   1.000  C
  C1032    1.0000 0.55930  0.98480  0.08700  Biso   1.000  C
  C1033    1.0000 0.55050  0.96350  0.10600  Biso   1.000  C
  C1034    1.0000 0.54340  0.98040  0.12670  Biso   1.000  C
  C1035    1.0000 0.62800  0.92340  0.01210  Biso   1.000  C
  C1036    1.0000 0.65810  0.90970  0.02460  Biso   1.000  C
  C1037    1.0000 0.68560  0.90350  0.01240  Biso   1.000  C
  C1038    1.0000 0.51730  0.87830  0.03160  Biso   1.000  C
  C1039    1.0000 0.53130  0.85480  0.01540  Biso   1.000  C
  C1040    1.0000 0.51840  0.82130  0.01290  Biso   1.000  C
  Zn81     1.0000 0.42430  0.68320  0.66210  Biso   1.000  Zn
  Zn82     1.0000 0.42420  0.82300  0.62740  Biso   1.000  Zn
  Zn83     1.0000 0.32620  0.78020  0.70230  Biso   1.000  Zn
  Zn84     1.0000 0.42350  0.92650  0.55190  Biso   1.000  Zn
  Cl201    1.0000 0.43870  0.77500  0.77860  Biso   1.000  Cl
  Cl202    1.0000 0.34770  0.75260  0.55250  Biso   1.000  Cl
  Cl203    1.0000 0.42210  0.89720  0.72810  Biso   1.000  Cl
  Cl204    1.0000 0.22720  0.83030  0.62480  Biso   1.000  Cl
  Cl205    1.0000 0.34140  0.95480  0.64550  Biso   1.000  Cl
  Cl206    1.0000 0.46180  0.93110  0.69940  Biso   1.000  Cl
  Cl207    1.0000 0.27780  0.86380  0.54740  Biso   1.000  Cl
  Cl208    1.0000 0.46730  0.58720  0.58190  Biso   1.000  Cl
  Cl209    1.0000 0.44700  0.96860  0.64830  Biso   1.000  Cl
  Cl210    1.0000 0.40890  0.76770  0.52180  Biso   1.000  Cl
  N321     1.0000 0.47290  0.67110  0.67030  Biso   1.000  N
  N322     1.0000 0.40130  0.70690  0.68920  Biso   1.000  N
  N323     1.0000 0.36130  0.74140  0.70470  Biso   1.000  N
  N324     1.0000 0.42510  0.71640  0.63620  Biso   1.000  N
  N325     1.0000 0.42700  0.77080  0.62340  Biso   1.000  N
  N326     1.0000 0.32330  0.80790  0.73240  Biso   1.000  N
  N327     1.0000 0.28220  0.75840  0.69510  Biso   1.000  N
  N328     1.0000 0.38780  0.82890  0.65290  Biso   1.000  N
  N329     1.0000 0.34490  0.81060  0.67770  Biso   1.000  N
  N330     1.0000 0.46860  0.83790  0.63650  Biso   1.000  N
  N331     1.0000 0.40500  0.89690  0.57410  Biso   1.000  N
  N332     1.0000 0.40710  0.84880  0.60130  Biso   1.000  N
  N333     1.0000 0.39700  0.64070  0.65460  Biso   1.000  N
  N334     1.0000 0.47070  0.93500  0.56480  Biso   1.000  N
  N335     1.0000 0.40200  0.97000  0.55120  Biso   1.000  N
  N336     1.0000 0.42570  0.90650  0.52020  Biso   1.000  N
  C1041    1.0000 0.47910  0.64300  0.68530  Biso   1.000  C
  C1042    1.0000 0.46370  0.61670  0.69930  Biso   1.000  C
  C1043    1.0000 0.48550  0.60020  0.71560  Biso   1.000  C
  C1044    1.0000 0.37040  0.72140  0.68600  Biso   1.000  C
  C1045    1.0000 0.41070  0.71730  0.70820  Biso   1.000  C
  C1046    1.0000 0.44080  0.70830  0.72000  Biso   1.000  C
  C1047    1.0000 0.44760  0.72150  0.74240  Biso   1.000  C
  C1048    1.0000 0.42410  0.74370  0.75310  Biso   1.000  C
  C1049    1.0000 0.39390  0.75270  0.74130  Biso   1.000  C
  C1050    1.0000 0.38720  0.73950  0.71890  Biso   1.000  C
  C1051    1.0000 0.43790  0.74990  0.64110  Biso   1.000  C
  C1052    1.0000 0.40970  0.75640  0.60530  Biso   1.000  C
  C1053    1.0000 0.39380  0.76030  0.58340  Biso   1.000  C
  C1054    1.0000 0.37780  0.73230  0.57270  Biso   1.000  C
  C1055    1.0000 0.37790  0.70030  0.58380  Biso   1.000  C
  C1056    1.0000 0.39380  0.69630  0.60560  Biso   1.000  C
  C1057    1.0000 0.40970  0.72440  0.61640  Biso   1.000  C
  C1058    1.0000 0.34480  0.83650  0.73970  Biso   1.000  C
  C1059    1.0000 0.37300  0.85040  0.72690  Biso   1.000  C
  C1060    1.0000 0.38750  0.87480  0.74090  Biso   1.000  C
  C1061    1.0000 0.25890  0.76790  0.67770  Biso   1.000  C
  C1062    1.0000 0.25890  0.79590  0.65860  Biso   1.000  C
  C1063    1.0000 0.22850  0.79500  0.64500  Biso   1.000  C
  C1064    1.0000 0.37230  0.80140  0.66500  Biso   1.000  C
  C1065    1.0000 0.34150  0.84430  0.67240  Biso   1.000  C
  C1066    1.0000 0.31670  0.86700  0.68090  Biso   1.000  C
  C1067    1.0000 0.31630  0.90110  0.67330  Biso   1.000  C
  C1068    1.0000 0.34090  0.91250  0.65710  Biso   1.000  C
  C1069    1.0000 0.36570  0.88980  0.64860  Biso   1.000  C
  C1070    1.0000 0.36600  0.85570  0.65620  Biso   1.000  C
  C1071    1.0000 0.48030  0.86200  0.65490  Biso   1.000  C
  C1072    1.0000 0.45980  0.88170  0.66650  Biso   1.000  C
  C1073    1.0000 0.48160  0.89820  0.68010  Biso   1.000  C
  C1074    1.0000 0.42380  0.87580  0.58920  Biso   1.000  C
  C1075    1.0000 0.37460  0.85360  0.59480  Biso   1.000  C
  C1076    1.0000 0.34340  0.83710  0.59890  Biso   1.000  C
  C1077    1.0000 0.31440  0.84580  0.58570  Biso   1.000  C
  C1078    1.0000 0.31660  0.87110  0.56840  Biso   1.000  C
  C1079    1.0000 0.34790  0.88770  0.56420  Biso   1.000  C
  C1080    1.0000 0.37680  0.87900  0.57740  Biso   1.000  C
  C1081    1.0000 0.40910  0.61820  0.63800  Biso   1.000  C
  C1082    1.0000 0.43900  0.61630  0.61970  Biso   1.000  C
  C1083    1.0000 0.43610  0.58870  0.60580  Biso   1.000  C
  C1084    1.0000 0.48480  0.94070  0.58700  Biso   1.000  C
  C1085    1.0000 0.46350  0.94950  0.60600  Biso   1.000  C
  C1086    1.0000 0.48040  0.95660  0.62670  Biso   1.000  C
  C1087    1.0000 0.42340  0.87200  0.51210  Biso   1.000  C
  C1088    1.0000 0.40970  0.84190  0.52460  Biso   1.000  C
  C1089    1.0000 0.40350  0.81440  0.51240  Biso   1.000  C
  C1090    1.0000 0.37830  0.98270  0.53160  Biso   1.000  C
  C1091    1.0000 0.35480  0.96870  0.51540  Biso   1.000  C
  C1092    1.0000 0.32130  0.98160  0.51290  Biso   1.000  C
  Zn85     1.0000 0.92430  0.18320  0.16210  Biso   1.000  Zn
  Zn86     1.0000 0.92420  0.32300  0.12740  Biso   1.000  Zn
  Zn87     1.0000 0.82620  0.28020  0.20230  Biso   1.000  Zn
  Zn88     1.0000 0.92350  0.42650  0.05190  Biso   1.000  Zn
  Cl211    1.0000 0.93870  0.27500  0.27860  Biso   1.000  Cl
  Cl212    1.0000 0.84770  0.25260  0.05250  Biso   1.000  Cl
  Cl213    1.0000 0.92210  0.39720  0.22810  Biso   1.000  Cl
  Cl214    1.0000 0.72720  0.33030  0.12480  Biso   1.000  Cl
  Cl215    1.0000 0.84140  0.45480  0.14550  Biso   1.000  Cl
  Cl216    1.0000 0.96180  0.43110  0.19940  Biso   1.000  Cl
  Cl217    1.0000 0.77780  0.36380  0.04740  Biso   1.000  Cl
  Cl218    1.0000 0.96730  0.08720  0.08190  Biso   1.000  Cl
  Cl219    1.0000 0.94700  0.46860  0.14830  Biso   1.000  Cl
  Cl220    1.0000 0.90890  0.26770  0.02180  Biso   1.000  Cl
  N337     1.0000 0.97290  0.17110  0.17030  Biso   1.000  N
  N338     1.0000 0.90130  0.20690  0.18920  Biso   1.000  N
  N339     1.0000 0.86130  0.24140  0.20470  Biso   1.000  N
  N340     1.0000 0.92510  0.21640  0.13620  Biso   1.000  N
  N341     1.0000 0.92700  0.27080  0.12340  Biso   1.000  N
  N342     1.0000 0.82330  0.30790  0.23240  Biso   1.000  N
  N343     1.0000 0.78220  0.25840  0.19510  Biso   1.000  N
  N344     1.0000 0.88780  0.32890  0.15290  Biso   1.000  N
  N345     1.0000 0.84490  0.31060  0.17770  Biso   1.000  N
  N346     1.0000 0.96860  0.33790  0.13650  Biso   1.000  N
  N347     1.0000 0.90500  0.39690  0.07410  Biso   1.000  N
  N348     1.0000 0.90710  0.34880  0.10130  Biso   1.000  N
  N349     1.0000 0.89700  0.14070  0.15460  Biso   1.000  N
  N350     1.0000 0.97070  0.43500  0.06480  Biso   1.000  N
  N351     1.0000 0.90200  0.47000  0.05120  Biso   1.000  N
  N352     1.0000 0.92570  0.40650  0.02020  Biso   1.000  N
  C1093    1.0000 0.97910  0.14300  0.18530  Biso   1.000  C
  C1094    1.0000 0.96370  0.11670  0.19930  Biso   1.000  C
  C1095    1.0000 0.98550  0.10020  0.21560  Biso   1.000  C
  C1096    1.0000 0.87040  0.22140  0.18600  Biso   1.000  C
  C1097    1.0000 0.91070  0.21730  0.20820  Biso   1.000  C
  C1098    1.0000 0.94080  0.20830  0.22000  Biso   1.000  C
  C1099    1.0000 0.94760  0.22150  0.24240  Biso   1.000  C
  C1100    1.0000 0.92410  0.24370  0.25310  Biso   1.000  C
  C1101    1.0000 0.89390  0.25270  0.24130  Biso   1.000  C
  C1102    1.0000 0.88720  0.23950  0.21890  Biso   1.000  C
  C1103    1.0000 0.93790  0.24990  0.14110  Biso   1.000  C
  C1104    1.0000 0.90970  0.25640  0.10530  Biso   1.000  C
  C1105    1.0000 0.89380  0.26030  0.08340  Biso   1.000  C
  C1106    1.0000 0.87780  0.23230  0.07270  Biso   1.000  C
  C1107    1.0000 0.87790  0.20030  0.08380  Biso   1.000  C
  C1108    1.0000 0.89380  0.19630  0.10560  Biso   1.000  C
  C1109    1.0000 0.90970  0.22440  0.11640  Biso   1.000  C
  C1110    1.0000 0.84480  0.33650  0.23970  Biso   1.000  C
  C1111    1.0000 0.87300  0.35040  0.22690  Biso   1.000  C
  C1112    1.0000 0.88750  0.37480  0.24090  Biso   1.000  C
  C1113    1.0000 0.75890  0.26790  0.17770  Biso   1.000  C
  C1114    1.0000 0.75890  0.29590  0.15860  Biso   1.000  C
  C1115    1.0000 0.72850  0.29500  0.14500  Biso   1.000  C
  C1116    1.0000 0.87230  0.30140  0.16500  Biso   1.000  C
  C1117    1.0000 0.84150  0.34430  0.17240  Biso   1.000  C
  C1118    1.0000 0.81670  0.36700  0.18090  Biso   1.000  C
  C1119    1.0000 0.81630  0.40110  0.17330  Biso   1.000  C
  C1120    1.0000 0.84090  0.41250  0.15710  Biso   1.000  C
  C1121    1.0000 0.86570  0.38980  0.14860  Biso   1.000  C
  C1122    1.0000 0.86600  0.35570  0.15620  Biso   1.000  C
  C1123    1.0000 0.98030  0.36200  0.15490  Biso   1.000  C
  C1124    1.0000 0.95980  0.38170  0.16650  Biso   1.000  C
  C1125    1.0000 0.98160  0.39820  0.18010  Biso   1.000  C
  C1126    1.0000 0.92380  0.37580  0.08920  Biso   1.000  C
  C1127    1.0000 0.87460  0.35360  0.09480  Biso   1.000  C
  C1128    1.0000 0.84340  0.33710  0.09890  Biso   1.000  C
  C1129    1.0000 0.81440  0.34580  0.08570  Biso   1.000  C
  C1130    1.0000 0.81660  0.37110  0.06840  Biso   1.000  C
  C1131    1.0000 0.84790  0.38770  0.06420  Biso   1.000  C
  C1132    1.0000 0.87680  0.37900  0.07740  Biso   1.000  C
  C1133    1.0000 0.90910  0.11820  0.13800  Biso   1.000  C
  C1134    1.0000 0.93900  0.11630  0.11970  Biso   1.000  C
  C1135    1.0000 0.93610  0.08870  0.10580  Biso   1.000  C
  C1136    1.0000 0.98480  0.44070  0.08700  Biso   1.000  C
  C1137    1.0000 0.96350  0.44950  0.10600  Biso   1.000  C
  C1138    1.0000 0.98040  0.45660  0.12670  Biso   1.000  C
  C1139    1.0000 0.92340  0.37200  0.01210  Biso   1.000  C
  C1140    1.0000 0.90970  0.34190  0.02460  Biso   1.000  C
  C1141    1.0000 0.90350  0.31440  0.01240  Biso   1.000  C
  C1142    1.0000 0.87830  0.48270  0.03160  Biso   1.000  C
  C1143    1.0000 0.85480  0.46870  0.01540  Biso   1.000  C
  C1144    1.0000 0.82130  0.48160  0.01290  Biso   1.000  C
  Zn89     1.0000 0.57570  0.31680  0.66210  Biso   1.000  Zn
  Zn90     1.0000 0.57580  0.17700  0.62740  Biso   1.000  Zn
  Zn91     1.0000 0.67380  0.21980  0.70230  Biso   1.000  Zn
  Zn92     1.0000 0.57650  0.07350  0.55190  Biso   1.000  Zn
  Cl221    1.0000 0.56130  0.22500  0.77860  Biso   1.000  Cl
  Cl222    1.0000 0.65230  0.24740  0.55250  Biso   1.000  Cl
  Cl223    1.0000 0.57790  0.10280  0.72810  Biso   1.000  Cl
  Cl224    1.0000 0.77280  0.16970  0.62480  Biso   1.000  Cl
  Cl225    1.0000 0.65860  0.04520  0.64550  Biso   1.000  Cl
  Cl226    1.0000 0.53820  0.06890  0.69940  Biso   1.000  Cl
  Cl227    1.0000 0.72220  0.13620  0.54740  Biso   1.000  Cl
  Cl228    1.0000 0.53270  0.41280  0.58190  Biso   1.000  Cl
  Cl229    1.0000 0.55300  0.03140  0.64830  Biso   1.000  Cl
  Cl230    1.0000 0.59110  0.23230  0.52180  Biso   1.000  Cl
  N353     1.0000 0.52710  0.32890  0.67030  Biso   1.000  N
  N354     1.0000 0.59870  0.29310  0.68920  Biso   1.000  N
  N355     1.0000 0.63870  0.25860  0.70470  Biso   1.000  N
  N356     1.0000 0.57490  0.28360  0.63620  Biso   1.000  N
  N357     1.0000 0.57300  0.22920  0.62340  Biso   1.000  N
  N358     1.0000 0.67670  0.19210  0.73240  Biso   1.000  N
  N359     1.0000 0.71780  0.24160  0.69510  Biso   1.000  N
  N360     1.0000 0.61220  0.17110  0.65290  Biso   1.000  N
  N361     1.0000 0.65510  0.18940  0.67770  Biso   1.000  N
  N362     1.0000 0.53140  0.16210  0.63650  Biso   1.000  N
  N363     1.0000 0.59500  0.10310  0.57410  Biso   1.000  N
  N364     1.0000 0.59290  0.15120  0.60130  Biso   1.000  N
  N365     1.0000 0.60300  0.35930  0.65460  Biso   1.000  N
  N366     1.0000 0.52930  0.06500  0.56480  Biso   1.000  N
  N367     1.0000 0.59800  0.03000  0.55120  Biso   1.000  N
  N368     1.0000 0.57430  0.09350  0.52020  Biso   1.000  N
  C1145    1.0000 0.52090  0.35700  0.68530  Biso   1.000  C
  C1146    1.0000 0.53630  0.38330  0.69930  Biso   1.000  C
  C1147    1.0000 0.51450  0.39980  0.71560  Biso   1.000  C
  C1148    1.0000 0.62960  0.27860  0.68600  Biso   1.000  C
  C1149    1.0000 0.58930  0.28270  0.70820  Biso   1.000  C
  C1150    1.0000 0.55920  0.29170  0.72000  Biso   1.000  C
  C1151    1.0000 0.55240  0.27850  0.74240  Biso   1.000  C
  C1152    1.0000 0.57590  0.25630  0.75310  Biso   1.000  C
  C1153    1.0000 0.60610  0.24730  0.74130  Biso   1.000  C
  C1154    1.0000 0.61280  0.26050  0.71890  Biso   1.000  C
  C1155    1.0000 0.56210  0.25010  0.64110  Biso   1.000  C
  C1156    1.0000 0.59030  0.24360  0.60530  Biso   1.000  C
  C1157    1.0000 0.60620  0.23970  0.58340  Biso   1.000  C
  C1158    1.0000 0.62220  0.26770  0.57270  Biso   1.000  C
  C1159    1.0000 0.62210  0.29970  0.58380  Biso   1.000  C
  C1160    1.0000 0.60620  0.30370  0.60560  Biso   1.000  C
  C1161    1.0000 0.59030  0.27560  0.61640  Biso   1.000  C
  C1162    1.0000 0.65520  0.16350  0.73970  Biso   1.000  C
  C1163    1.0000 0.62700  0.14960  0.72690  Biso   1.000  C
  C1164    1.0000 0.61250  0.12520  0.74090  Biso   1.000  C
  C1165    1.0000 0.74110  0.23210  0.67770  Biso   1.000  C
  C1166    1.0000 0.74110  0.20410  0.65860  Biso   1.000  C
  C1167    1.0000 0.77150  0.20500  0.64500  Biso   1.000  C
  C1168    1.0000 0.62770  0.19860  0.66500  Biso   1.000  C
  C1169    1.0000 0.65850  0.15570  0.67240  Biso   1.000  C
  C1170    1.0000 0.68330  0.13300  0.68090  Biso   1.000  C
  C1171    1.0000 0.68370  0.09890  0.67330  Biso   1.000  C
  C1172    1.0000 0.65910  0.08750  0.65710  Biso   1.000  C
  C1173    1.0000 0.63430  0.11020  0.64860  Biso   1.000  C
  C1174    1.0000 0.63400  0.14430  0.65620  Biso   1.000  C
  C1175    1.0000 0.51970  0.13800  0.65490  Biso   1.000  C
  C1176    1.0000 0.54020  0.11830  0.66650  Biso   1.000  C
  C1177    1.0000 0.51840  0.10180  0.68010  Biso   1.000  C
  C1178    1.0000 0.57620  0.12420  0.58920  Biso   1.000  C
  C1179    1.0000 0.62540  0.14640  0.59480  Biso   1.000  C
  C1180    1.0000 0.65660  0.16290  0.59890  Biso   1.000  C
  C1181    1.0000 0.68560  0.15420  0.58570  Biso   1.000  C
  C1182    1.0000 0.68340  0.12890  0.56840  Biso   1.000  C
  C1183    1.0000 0.65210  0.11230  0.56420  Biso   1.000  C
  C1184    1.0000 0.62320  0.12100  0.57740  Biso   1.000  C
  C1185    1.0000 0.59090  0.38180  0.63800  Biso   1.000  C
  C1186    1.0000 0.56100  0.38370  0.61970  Biso   1.000  C
  C1187    1.0000 0.56390  0.41130  0.60580  Biso   1.000  C
  C1188    1.0000 0.51520  0.05930  0.58700  Biso   1.000  C
  C1189    1.0000 0.53650  0.05050  0.60600  Biso   1.000  C
  C1190    1.0000 0.51960  0.04340  0.62670  Biso   1.000  C
  C1191    1.0000 0.57660  0.12800  0.51210  Biso   1.000  C
  C1192    1.0000 0.59030  0.15810  0.52460  Biso   1.000  C
  C1193    1.0000 0.59650  0.18560  0.51240  Biso   1.000  C
  C1194    1.0000 0.62170  0.01730  0.53160  Biso   1.000  C
  C1195    1.0000 0.64520  0.03130  0.51540  Biso   1.000  C
  C1196    1.0000 0.67870  0.01840  0.51290  Biso   1.000  C
  Zn93     1.0000 0.07570  0.81680  0.16210  Biso   1.000  Zn
  Zn94     1.0000 0.07580  0.67700  0.12740  Biso   1.000  Zn
  Zn95     1.0000 0.17380  0.71980  0.20230  Biso   1.000  Zn
  Zn96     1.0000 0.07650  0.57350  0.05190  Biso   1.000  Zn
  Cl231    1.0000 0.06130  0.72500  0.27860  Biso   1.000  Cl
  Cl232    1.0000 0.15230  0.74740  0.05250  Biso   1.000  Cl
  Cl233    1.0000 0.07790  0.60280  0.22810  Biso   1.000  Cl
  Cl234    1.0000 0.27280  0.66970  0.12480  Biso   1.000  Cl
  Cl235    1.0000 0.15860  0.54520  0.14550  Biso   1.000  Cl
  Cl236    1.0000 0.03820  0.56890  0.19940  Biso   1.000  Cl
  Cl237    1.0000 0.22220  0.63620  0.04740  Biso   1.000  Cl
  Cl238    1.0000 0.03270  0.91280  0.08190  Biso   1.000  Cl
  Cl239    1.0000 0.05300  0.53140  0.14830  Biso   1.000  Cl
  Cl240    1.0000 0.09110  0.73230  0.02180  Biso   1.000  Cl
  N369     1.0000 0.02710  0.82890  0.17030  Biso   1.000  N
  N370     1.0000 0.09870  0.79310  0.18920  Biso   1.000  N
  N371     1.0000 0.13870  0.75860  0.20470  Biso   1.000  N
  N372     1.0000 0.07490  0.78360  0.13620  Biso   1.000  N
  N373     1.0000 0.07300  0.72920  0.12340  Biso   1.000  N
  N374     1.0000 0.17670  0.69210  0.23240  Biso   1.000  N
  N375     1.0000 0.21780  0.74160  0.19510  Biso   1.000  N
  N376     1.0000 0.11220  0.67110  0.15290  Biso   1.000  N
  N377     1.0000 0.15510  0.68940  0.17770  Biso   1.000  N
  N378     1.0000 0.03140  0.66210  0.13650  Biso   1.000  N
  N379     1.0000 0.09500  0.60310  0.07410  Biso   1.000  N
  N380     1.0000 0.09290  0.65120  0.10130  Biso   1.000  N
  N381     1.0000 0.10300  0.85930  0.15460  Biso   1.000  N
  N382     1.0000 0.02930  0.56500  0.06480  Biso   1.000  N
  N383     1.0000 0.09800  0.53000  0.05120  Biso   1.000  N
  N384     1.0000 0.07430  0.59350  0.02020  Biso   1.000  N
  C1197    1.0000 0.02090  0.85700  0.18530  Biso   1.000  C
  C1198    1.0000 0.03630  0.88330  0.19930  Biso   1.000  C
  C1199    1.0000 0.01450  0.89980  0.21560  Biso   1.000  C
  C1200    1.0000 0.12960  0.77860  0.18600  Biso   1.000  C
  C1201    1.0000 0.08930  0.78270  0.20820  Biso   1.000  C
  C1202    1.0000 0.05920  0.79170  0.22000  Biso   1.000  C
  C1203    1.0000 0.05240  0.77850  0.24240  Biso   1.000  C
  C1204    1.0000 0.07590  0.75630  0.25310  Biso   1.000  C
  C1205    1.0000 0.10610  0.74730  0.24130  Biso   1.000  C
  C1206    1.0000 0.11280  0.76050  0.21890  Biso   1.000  C
  C1207    1.0000 0.06210  0.75010  0.14110  Biso   1.000  C
  C1208    1.0000 0.09030  0.74360  0.10530  Biso   1.000  C
  C1209    1.0000 0.10620  0.73970  0.08340  Biso   1.000  C
  C1210    1.0000 0.12220  0.76770  0.07270  Biso   1.000  C
  C1211    1.0000 0.12210  0.79970  0.08380  Biso   1.000  C
  C1212    1.0000 0.10620  0.80370  0.10560  Biso   1.000  C
  C1213    1.0000 0.09030  0.77560  0.11640  Biso   1.000  C
  C1214    1.0000 0.15520  0.66350  0.23970  Biso   1.000  C
  C1215    1.0000 0.12700  0.64960  0.22690  Biso   1.000  C
  C1216    1.0000 0.11250  0.62520  0.24090  Biso   1.000  C
  C1217    1.0000 0.24110  0.73210  0.17770  Biso   1.000  C
  C1218    1.0000 0.24110  0.70410  0.15860  Biso   1.000  C
  C1219    1.0000 0.27150  0.70500  0.14500  Biso   1.000  C
  C1220    1.0000 0.12770  0.69860  0.16500  Biso   1.000  C
  C1221    1.0000 0.15850  0.65570  0.17240  Biso   1.000  C
  C1222    1.0000 0.18330  0.63300  0.18090  Biso   1.000  C
  C1223    1.0000 0.18370  0.59890  0.17330  Biso   1.000  C
  C1224    1.0000 0.15910  0.58750  0.15710  Biso   1.000  C
  C1225    1.0000 0.13430  0.61020  0.14860  Biso   1.000  C
  C1226    1.0000 0.13400  0.64430  0.15620  Biso   1.000  C
  C1227    1.0000 0.01970  0.63800  0.15490  Biso   1.000  C
  C1228    1.0000 0.04020  0.61830  0.16650  Biso   1.000  C
  C1229    1.0000 0.01840  0.60180  0.18010  Biso   1.000  C
  C1230    1.0000 0.07620  0.62420  0.08920  Biso   1.000  C
  C1231    1.0000 0.12540  0.64640  0.09480  Biso   1.000  C
  C1232    1.0000 0.15660  0.66290  0.09890  Biso   1.000  C
  C1233    1.0000 0.18560  0.65420  0.08570  Biso   1.000  C
  C1234    1.0000 0.18340  0.62890  0.06840  Biso   1.000  C
  C1235    1.0000 0.15210  0.61230  0.06420  Biso   1.000  C
  C1236    1.0000 0.12320  0.62100  0.07740  Biso   1.000  C
  C1237    1.0000 0.09090  0.88180  0.13800  Biso   1.000  C
  C1238    1.0000 0.06100  0.88370  0.11970  Biso   1.000  C
  C1239    1.0000 0.06390  0.91130  0.10580  Biso   1.000  C
  C1240    1.0000 0.01520  0.55930  0.08700  Biso   1.000  C
  C1241    1.0000 0.03650  0.55050  0.10600  Biso   1.000  C
  C1242    1.0000 0.01960  0.54340  0.12670  Biso   1.000  C
  C1243    1.0000 0.07660  0.62800  0.01210  Biso   1.000  C
  C1244    1.0000 0.09030  0.65810  0.02460  Biso   1.000  C
  C1245    1.0000 0.09650  0.68560  0.01240  Biso   1.000  C
  C1246    1.0000 0.12170  0.51730  0.03160  Biso   1.000  C
  C1247    1.0000 0.14520  0.53130  0.01540  Biso   1.000  C
  C1248    1.0000 0.17870  0.51840  0.01290  Biso   1.000  C
  Zn97     1.0000 0.31680  0.57570  0.33790  Biso   1.000  Zn
  Zn98     1.0000 0.17700  0.57580  0.37260  Biso   1.000  Zn
  Zn99     1.0000 0.21980  0.67380  0.29770  Biso   1.000  Zn
  Zn100    1.0000 0.07350  0.57650  0.44810  Biso   1.000  Zn
  Cl241    1.0000 0.22500  0.56130  0.22140  Biso   1.000  Cl
  Cl242    1.0000 0.24740  0.65230  0.44750  Biso   1.000  Cl
  Cl243    1.0000 0.10280  0.57790  0.27190  Biso   1.000  Cl
  Cl244    1.0000 0.16970  0.77280  0.37520  Biso   1.000  Cl
  Cl245    1.0000 0.04520  0.65860  0.35450  Biso   1.000  Cl
  Cl246    1.0000 0.06890  0.53820  0.30060  Biso   1.000  Cl
  Cl247    1.0000 0.13620  0.72220  0.45260  Biso   1.000  Cl
  Cl248    1.0000 0.41280  0.53270  0.41810  Biso   1.000  Cl
  Cl249    1.0000 0.03140  0.55300  0.35170  Biso   1.000  Cl
  Cl250    1.0000 0.23230  0.59110  0.47820  Biso   1.000  Cl
  N385     1.0000 0.32890  0.52710  0.32970  Biso   1.000  N
  N386     1.0000 0.29310  0.59870  0.31080  Biso   1.000  N
  N387     1.0000 0.25860  0.63870  0.29530  Biso   1.000  N
  N388     1.0000 0.28360  0.57490  0.36380  Biso   1.000  N
  N389     1.0000 0.22920  0.57300  0.37660  Biso   1.000  N
  N390     1.0000 0.19210  0.67670  0.26760  Biso   1.000  N
  N391     1.0000 0.24160  0.71780  0.30490  Biso   1.000  N
  N392     1.0000 0.17110  0.61220  0.34710  Biso   1.000  N
  N393     1.0000 0.18940  0.65510  0.32230  Biso   1.000  N
  N394     1.0000 0.16210  0.53140  0.36350  Biso   1.000  N
  N395     1.0000 0.10310  0.59500  0.42590  Biso   1.000  N
  N396     1.0000 0.15120  0.59290  0.39870  Biso   1.000  N
  N397     1.0000 0.35930  0.60300  0.34540  Biso   1.000  N
  N398     1.0000 0.06500  0.52930  0.43520  Biso   1.000  N
  N399     1.0000 0.03000  0.59800  0.44880  Biso   1.000  N
  N400     1.0000 0.09350  0.57430  0.47980  Biso   1.000  N
  C1249    1.0000 0.35700  0.52090  0.31470  Biso   1.000  C
  C1250    1.0000 0.38330  0.53630  0.30070  Biso   1.000  C
  C1251    1.0000 0.39980  0.51450  0.28440  Biso   1.000  C
  C1252    1.0000 0.27860  0.62960  0.31400  Biso   1.000  C
  C1253    1.0000 0.28270  0.58930  0.29180  Biso   1.000  C
  C1254    1.0000 0.29170  0.55920  0.28000  Biso   1.000  C
  C1255    1.0000 0.27850  0.55240  0.25760  Biso   1.000  C
  C1256    1.0000 0.25630  0.57590  0.24690  Biso   1.000  C
  C1257    1.0000 0.24730  0.60610  0.25870  Biso   1.000  C
  C1258    1.0000 0.26050  0.61280  0.28110  Biso   1.000  C
  C1259    1.0000 0.25010  0.56210  0.35890  Biso   1.000  C
  C1260    1.0000 0.24360  0.59030  0.39470  Biso   1.000  C
  C1261    1.0000 0.23970  0.60620  0.41660  Biso   1.000  C
  C1262    1.0000 0.26770  0.62220  0.42730  Biso   1.000  C
  C1263    1.0000 0.29970  0.62210  0.41620  Biso   1.000  C
  C1264    1.0000 0.30370  0.60620  0.39440  Biso   1.000  C
  C1265    1.0000 0.27560  0.59030  0.38360  Biso   1.000  C
  C1266    1.0000 0.16350  0.65520  0.26030  Biso   1.000  C
  C1267    1.0000 0.14960  0.62700  0.27310  Biso   1.000  C
  C1268    1.0000 0.12520  0.61250  0.25910  Biso   1.000  C
  C1269    1.0000 0.23210  0.74110  0.32230  Biso   1.000  C
  C1270    1.0000 0.20410  0.74110  0.34140  Biso   1.000  C
  C1271    1.0000 0.20500  0.77150  0.35500  Biso   1.000  C
  C1272    1.0000 0.19860  0.62770  0.33500  Biso   1.000  C
  C1273    1.0000 0.15570  0.65850  0.32760  Biso   1.000  C
  C1274    1.0000 0.13300  0.68330  0.31910  Biso   1.000  C
  C1275    1.0000 0.09890  0.68370  0.32670  Biso   1.000  C
  C1276    1.0000 0.08750  0.65910  0.34290  Biso   1.000  C
  C1277    1.0000 0.11020  0.63430  0.35140  Biso   1.000  C
  C1278    1.0000 0.14430  0.63400  0.34380  Biso   1.000  C
  C1279    1.0000 0.13800  0.51970  0.34510  Biso   1.000  C
  C1280    1.0000 0.11830  0.54020  0.33350  Biso   1.000  C
  C1281    1.0000 0.10180  0.51840  0.31990  Biso   1.000  C
  C1282    1.0000 0.12420  0.57620  0.41080  Biso   1.000  C
  C1283    1.0000 0.14640  0.62540  0.40520  Biso   1.000  C
  C1284    1.0000 0.16290  0.65660  0.40110  Biso   1.000  C
  C1285    1.0000 0.15420  0.68560  0.41430  Biso   1.000  C
  C1286    1.0000 0.12890  0.68340  0.43160  Biso   1.000  C
  C1287    1.0000 0.11230  0.65210  0.43580  Biso   1.000  C
  C1288    1.0000 0.12100  0.62320  0.42260  Biso   1.000  C
  C1289    1.0000 0.38180  0.59090  0.36200  Biso   1.000  C
  C1290    1.0000 0.38370  0.56100  0.38030  Biso   1.000  C
  C1291    1.0000 0.41130  0.56390  0.39420  Biso   1.000  C
  C1292    1.0000 0.05930  0.51520  0.41300  Biso   1.000  C
  C1293    1.0000 0.05050  0.53650  0.39400  Biso   1.000  C
  C1294    1.0000 0.04340  0.51960  0.37330  Biso   1.000  C
  C1295    1.0000 0.12800  0.57660  0.48790  Biso   1.000  C
  C1296    1.0000 0.15810  0.59030  0.47540  Biso   1.000  C
  C1297    1.0000 0.18560  0.59650  0.48760  Biso   1.000  C
  C1298    1.0000 0.01730  0.62170  0.46840  Biso   1.000  C
  C1299    1.0000 0.03130  0.64520  0.48460  Biso   1.000  C
  C1300    1.0000 0.01840  0.67870  0.48710  Biso   1.000  C
  Zn101    1.0000 0.81680  0.07570  0.83790  Biso   1.000  Zn
  Zn102    1.0000 0.67700  0.07580  0.87260  Biso   1.000  Zn
  Zn103    1.0000 0.71980  0.17380  0.79770  Biso   1.000  Zn
  Zn104    1.0000 0.57350  0.07650  0.94810  Biso   1.000  Zn
  Cl251    1.0000 0.72500  0.06130  0.72140  Biso   1.000  Cl
  Cl252    1.0000 0.74740  0.15230  0.94750  Biso   1.000  Cl
  Cl253    1.0000 0.60280  0.07790  0.77190  Biso   1.000  Cl
  Cl254    1.0000 0.66970  0.27280  0.87520  Biso   1.000  Cl
  Cl255    1.0000 0.54520  0.15860  0.85450  Biso   1.000  Cl
  Cl256    1.0000 0.56890  0.03820  0.80060  Biso   1.000  Cl
  Cl257    1.0000 0.63620  0.22220  0.95260  Biso   1.000  Cl
  Cl258    1.0000 0.91280  0.03270  0.91810  Biso   1.000  Cl
  Cl259    1.0000 0.53140  0.05300  0.85170  Biso   1.000  Cl
  Cl260    1.0000 0.73230  0.09110  0.97820  Biso   1.000  Cl
  N401     1.0000 0.82890  0.02710  0.82970  Biso   1.000  N
  N402     1.0000 0.79310  0.09870  0.81080  Biso   1.000  N
  N403     1.0000 0.75860  0.13870  0.79530  Biso   1.000  N
  N404     1.0000 0.78360  0.07490  0.86380  Biso   1.000  N
  N405     1.0000 0.72920  0.07300  0.87660  Biso   1.000  N
  N406     1.0000 0.69210  0.17670  0.76760  Biso   1.000  N
  N407     1.0000 0.74160  0.21780  0.80490  Biso   1.000  N
  N408     1.0000 0.67110  0.11220  0.84710  Biso   1.000  N
  N409     1.0000 0.68940  0.15510  0.82230  Biso   1.000  N
  N410     1.0000 0.66210  0.03140  0.86350  Biso   1.000  N
  N411     1.0000 0.60310  0.09500  0.92590  Biso   1.000  N
  N412     1.0000 0.65120  0.09290  0.89870  Biso   1.000  N
  N413     1.0000 0.85930  0.10300  0.84540  Biso   1.000  N
  N414     1.0000 0.56500  0.02930  0.93520  Biso   1.000  N
  N415     1.0000 0.53000  0.09800  0.94880  Biso   1.000  N
  N416     1.0000 0.59350  0.07430  0.97980  Biso   1.000  N
  C1301    1.0000 0.85700  0.02090  0.81470  Biso   1.000  C
  C1302    1.0000 0.88330  0.03630  0.80070  Biso   1.000  C
  C1303    1.0000 0.89980  0.01450  0.78440  Biso   1.000  C
  C1304    1.0000 0.77860  0.12960  0.81400  Biso   1.000  C
  C1305    1.0000 0.78270  0.08930  0.79180  Biso   1.000  C
  C1306    1.0000 0.79170  0.05920  0.78000  Biso   1.000  C
  C1307    1.0000 0.77850  0.05240  0.75760  Biso   1.000  C
  C1308    1.0000 0.75630  0.07590  0.74690  Biso   1.000  C
  C1309    1.0000 0.74730  0.10610  0.75870  Biso   1.000  C
  C1310    1.0000 0.76050  0.11280  0.78110  Biso   1.000  C
  C1311    1.0000 0.75010  0.06210  0.85890  Biso   1.000  C
  C1312    1.0000 0.74360  0.09030  0.89470  Biso   1.000  C
  C1313    1.0000 0.73970  0.10620  0.91660  Biso   1.000  C
  C1314    1.0000 0.76770  0.12220  0.92730  Biso   1.000  C
  C1315    1.0000 0.79970  0.12210  0.91620  Biso   1.000  C
  C1316    1.0000 0.80370  0.10620  0.89440  Biso   1.000  C
  C1317    1.0000 0.77560  0.09030  0.88360  Biso   1.000  C
  C1318    1.0000 0.66350  0.15520  0.76030  Biso   1.000  C
  C1319    1.0000 0.64960  0.12700  0.77310  Biso   1.000  C
  C1320    1.0000 0.62520  0.11250  0.75910  Biso   1.000  C
  C1321    1.0000 0.73210  0.24110  0.82230  Biso   1.000  C
  C1322    1.0000 0.70410  0.24110  0.84140  Biso   1.000  C
  C1323    1.0000 0.70500  0.27150  0.85500  Biso   1.000  C
  C1324    1.0000 0.69860  0.12770  0.83500  Biso   1.000  C
  C1325    1.0000 0.65570  0.15850  0.82760  Biso   1.000  C
  C1326    1.0000 0.63300  0.18330  0.81910  Biso   1.000  C
  C1327    1.0000 0.59890  0.18370  0.82670  Biso   1.000  C
  C1328    1.0000 0.58750  0.15910  0.84290  Biso   1.000  C
  C1329    1.0000 0.61020  0.13430  0.85140  Biso   1.000  C
  C1330    1.0000 0.64430  0.13400  0.84380  Biso   1.000  C
  C1331    1.0000 0.63800  0.01970  0.84510  Biso   1.000  C
  C1332    1.0000 0.61830  0.04020  0.83350  Biso   1.000  C
  C1333    1.0000 0.60180  0.01840  0.81990  Biso   1.000  C
  C1334    1.0000 0.62420  0.07620  0.91080  Biso   1.000  C
  C1335    1.0000 0.64640  0.12540  0.90520  Biso   1.000  C
  C1336    1.0000 0.66290  0.15660  0.90110  Biso   1.000  C
  C1337    1.0000 0.65420  0.18560  0.91430  Biso   1.000  C
  C1338    1.0000 0.62890  0.18340  0.93160  Biso   1.000  C
  C1339    1.0000 0.61230  0.15210  0.93580  Biso   1.000  C
  C1340    1.0000 0.62100  0.12320  0.92260  Biso   1.000  C
  C1341    1.0000 0.88180  0.09090  0.86200  Biso   1.000  C
  C1342    1.0000 0.88370  0.06100  0.88030  Biso   1.000  C
  C1343    1.0000 0.91130  0.06390  0.89420  Biso   1.000  C
  C1344    1.0000 0.55930  0.01520  0.91300  Biso   1.000  C
  C1345    1.0000 0.55050  0.03650  0.89400  Biso   1.000  C
  C1346    1.0000 0.54340  0.01960  0.87330  Biso   1.000  C
  C1347    1.0000 0.62800  0.07660  0.98790  Biso   1.000  C
  C1348    1.0000 0.65810  0.09030  0.97540  Biso   1.000  C
  C1349    1.0000 0.68560  0.09650  0.98760  Biso   1.000  C
  C1350    1.0000 0.51730  0.12170  0.96840  Biso   1.000  C
  C1351    1.0000 0.53130  0.14520  0.98460  Biso   1.000  C
  C1352    1.0000 0.51840  0.17870  0.98710  Biso   1.000  C
  Zn105    1.0000 0.68320  0.42430  0.33790  Biso   1.000  Zn
  Zn106    1.0000 0.82300  0.42420  0.37260  Biso   1.000  Zn
  Zn107    1.0000 0.78020  0.32620  0.29770  Biso   1.000  Zn
  Zn108    1.0000 0.92650  0.42350  0.44810  Biso   1.000  Zn
  Cl261    1.0000 0.77500  0.43870  0.22140  Biso   1.000  Cl
  Cl262    1.0000 0.75260  0.34770  0.44750  Biso   1.000  Cl
  Cl263    1.0000 0.89720  0.42210  0.27190  Biso   1.000  Cl
  Cl264    1.0000 0.83030  0.22720  0.37520  Biso   1.000  Cl
  Cl265    1.0000 0.95480  0.34140  0.35450  Biso   1.000  Cl
  Cl266    1.0000 0.93110  0.46180  0.30060  Biso   1.000  Cl
  Cl267    1.0000 0.86380  0.27780  0.45260  Biso   1.000  Cl
  Cl268    1.0000 0.58720  0.46730  0.41810  Biso   1.000  Cl
  Cl269    1.0000 0.96860  0.44700  0.35170  Biso   1.000  Cl
  Cl270    1.0000 0.76770  0.40890  0.47820  Biso   1.000  Cl
  N417     1.0000 0.67110  0.47290  0.32970  Biso   1.000  N
  N418     1.0000 0.70690  0.40130  0.31080  Biso   1.000  N
  N419     1.0000 0.74140  0.36130  0.29530  Biso   1.000  N
  N420     1.0000 0.71640  0.42510  0.36380  Biso   1.000  N
  N421     1.0000 0.77080  0.42700  0.37660  Biso   1.000  N
  N422     1.0000 0.80790  0.32330  0.26760  Biso   1.000  N
  N423     1.0000 0.75840  0.28220  0.30490  Biso   1.000  N
  N424     1.0000 0.82890  0.38780  0.34710  Biso   1.000  N
  N425     1.0000 0.81060  0.34490  0.32230  Biso   1.000  N
  N426     1.0000 0.83790  0.46860  0.36350  Biso   1.000  N
  N427     1.0000 0.89690  0.40500  0.42590  Biso   1.000  N
  N428     1.0000 0.84880  0.40710  0.39870  Biso   1.000  N
  N429     1.0000 0.64070  0.39700  0.34540  Biso   1.000  N
  N430     1.0000 0.93500  0.47070  0.43520  Biso   1.000  N
  N431     1.0000 0.97000  0.40200  0.44880  Biso   1.000  N
  N432     1.0000 0.90650  0.42570  0.47980  Biso   1.000  N
  C1353    1.0000 0.64300  0.47910  0.31470  Biso   1.000  C
  C1354    1.0000 0.61670  0.46370  0.30070  Biso   1.000  C
  C1355    1.0000 0.60020  0.48550  0.28440  Biso   1.000  C
  C1356    1.0000 0.72140  0.37040  0.31400  Biso   1.000  C
  C1357    1.0000 0.71730  0.41070  0.29180  Biso   1.000  C
  C1358    1.0000 0.70830  0.44080  0.28000  Biso   1.000  C
  C1359    1.0000 0.72150  0.44760  0.25760  Biso   1.000  C
  C1360    1.0000 0.74370  0.42410  0.24690  Biso   1.000  C
  C1361    1.0000 0.75270  0.39390  0.25870  Biso   1.000  C
  C1362    1.0000 0.73950  0.38720  0.28110  Biso   1.000  C
  C1363    1.0000 0.74990  0.43790  0.35890  Biso   1.000  C
  C1364    1.0000 0.75640  0.40970  0.39470  Biso   1.000  C
  C1365    1.0000 0.76030  0.39380  0.41660  Biso   1.000  C
  C1366    1.0000 0.73230  0.37780  0.42730  Biso   1.000  C
  C1367    1.0000 0.70030  0.37790  0.41620  Biso   1.000  C
  C1368    1.0000 0.69630  0.39380  0.39440  Biso   1.000  C
  C1369    1.0000 0.72440  0.40970  0.38360  Biso   1.000  C
  C1370    1.0000 0.83650  0.34480  0.26030  Biso   1.000  C
  C1371    1.0000 0.85040  0.37300  0.27310  Biso   1.000  C
  C1372    1.0000 0.87480  0.38750  0.25910  Biso   1.000  C
  C1373    1.0000 0.76790  0.25890  0.32230  Biso   1.000  C
  C1374    1.0000 0.79590  0.25890  0.34140  Biso   1.000  C
  C1375    1.0000 0.79500  0.22850  0.35500  Biso   1.000  C
  C1376    1.0000 0.80140  0.37230  0.33500  Biso   1.000  C
  C1377    1.0000 0.84430  0.34150  0.32760  Biso   1.000  C
  C1378    1.0000 0.86700  0.31670  0.31910  Biso   1.000  C
  C1379    1.0000 0.90110  0.31630  0.32670  Biso   1.000  C
  C1380    1.0000 0.91250  0.34090  0.34290  Biso   1.000  C
  C1381    1.0000 0.88980  0.36570  0.35140  Biso   1.000  C
  C1382    1.0000 0.85570  0.36600  0.34380  Biso   1.000  C
  C1383    1.0000 0.86200  0.48030  0.34510  Biso   1.000  C
  C1384    1.0000 0.88170  0.45980  0.33350  Biso   1.000  C
  C1385    1.0000 0.89820  0.48160  0.31990  Biso   1.000  C
  C1386    1.0000 0.87580  0.42380  0.41080  Biso   1.000  C
  C1387    1.0000 0.85360  0.37460  0.40520  Biso   1.000  C
  C1388    1.0000 0.83710  0.34340  0.40110  Biso   1.000  C
  C1389    1.0000 0.84580  0.31440  0.41430  Biso   1.000  C
  C1390    1.0000 0.87110  0.31660  0.43160  Biso   1.000  C
  C1391    1.0000 0.88770  0.34790  0.43580  Biso   1.000  C
  C1392    1.0000 0.87900  0.37680  0.42260  Biso   1.000  C
  C1393    1.0000 0.61820  0.40910  0.36200  Biso   1.000  C
  C1394    1.0000 0.61630  0.43900  0.38030  Biso   1.000  C
  C1395    1.0000 0.58870  0.43610  0.39420  Biso   1.000  C
  C1396    1.0000 0.94070  0.48480  0.41300  Biso   1.000  C
  C1397    1.0000 0.94950  0.46350  0.39400  Biso   1.000  C
  C1398    1.0000 0.95660  0.48040  0.37330  Biso   1.000  C
  C1399    1.0000 0.87200  0.42340  0.48790  Biso   1.000  C
  C1400    1.0000 0.84190  0.40970  0.47540  Biso   1.000  C
  C1401    1.0000 0.81440  0.40350  0.48760  Biso   1.000  C
  C1402    1.0000 0.98270  0.37830  0.46840  Biso   1.000  C
  C1403    1.0000 0.96870  0.35480  0.48460  Biso   1.000  C
  C1404    1.0000 0.98160  0.32130  0.48710  Biso   1.000  C
  Zn109    1.0000 0.18320  0.92430  0.83790  Biso   1.000  Zn
  Zn110    1.0000 0.32300  0.92420  0.87260  Biso   1.000  Zn
  Zn111    1.0000 0.28020  0.82620  0.79770  Biso   1.000  Zn
  Zn112    1.0000 0.42650  0.92350  0.94810  Biso   1.000  Zn
  Cl271    1.0000 0.27500  0.93870  0.72140  Biso   1.000  Cl
  Cl272    1.0000 0.25260  0.84770  0.94750  Biso   1.000  Cl
  Cl273    1.0000 0.39720  0.92210  0.77190  Biso   1.000  Cl
  Cl274    1.0000 0.33030  0.72720  0.87520  Biso   1.000  Cl
  Cl275    1.0000 0.45480  0.84140  0.85450  Biso   1.000  Cl
  Cl276    1.0000 0.43110  0.96180  0.80060  Biso   1.000  Cl
  Cl277    1.0000 0.36380  0.77780  0.95260  Biso   1.000  Cl
  Cl278    1.0000 0.08720  0.96730  0.91810  Biso   1.000  Cl
  Cl279    1.0000 0.46860  0.94700  0.85170  Biso   1.000  Cl
  Cl280    1.0000 0.26770  0.90890  0.97820  Biso   1.000  Cl
  N433     1.0000 0.17110  0.97290  0.82970  Biso   1.000  N
  N434     1.0000 0.20690  0.90130  0.81080  Biso   1.000  N
  N435     1.0000 0.24140  0.86130  0.79530  Biso   1.000  N
  N436     1.0000 0.21640  0.92510  0.86380  Biso   1.000  N
  N437     1.0000 0.27080  0.92700  0.87660  Biso   1.000  N
  N438     1.0000 0.30790  0.82330  0.76760  Biso   1.000  N
  N439     1.0000 0.25840  0.78220  0.80490  Biso   1.000  N
  N440     1.0000 0.32890  0.88780  0.84710  Biso   1.000  N
  N441     1.0000 0.31060  0.84490  0.82230  Biso   1.000  N
  N442     1.0000 0.33790  0.96860  0.86350  Biso   1.000  N
  N443     1.0000 0.39690  0.90500  0.92590  Biso   1.000  N
  N444     1.0000 0.34880  0.90710  0.89870  Biso   1.000  N
  N445     1.0000 0.14070  0.89700  0.84540  Biso   1.000  N
  N446     1.0000 0.43500  0.97070  0.93520  Biso   1.000  N
  N447     1.0000 0.47000  0.90200  0.94880  Biso   1.000  N
  N448     1.0000 0.40650  0.92570  0.97980  Biso   1.000  N
  C1405    1.0000 0.14300  0.97910  0.81470  Biso   1.000  C
  C1406    1.0000 0.11670  0.96370  0.80070  Biso   1.000  C
  C1407    1.0000 0.10020  0.98550  0.78440  Biso   1.000  C
  C1408    1.0000 0.22140  0.87040  0.81400  Biso   1.000  C
  C1409    1.0000 0.21730  0.91070  0.79180  Biso   1.000  C
  C1410    1.0000 0.20830  0.94080  0.78000  Biso   1.000  C
  C1411    1.0000 0.22150  0.94760  0.75760  Biso   1.000  C
  C1412    1.0000 0.24370  0.92410  0.74690  Biso   1.000  C
  C1413    1.0000 0.25270  0.89390  0.75870  Biso   1.000  C
  C1414    1.0000 0.23950  0.88720  0.78110  Biso   1.000  C
  C1415    1.0000 0.24990  0.93790  0.85890  Biso   1.000  C
  C1416    1.0000 0.25640  0.90970  0.89470  Biso   1.000  C
  C1417    1.0000 0.26030  0.89380  0.91660  Biso   1.000  C
  C1418    1.0000 0.23230  0.87780  0.92730  Biso   1.000  C
  C1419    1.0000 0.20030  0.87790  0.91620  Biso   1.000  C
  C1420    1.0000 0.19630  0.89380  0.89440  Biso   1.000  C
  C1421    1.0000 0.22440  0.90970  0.88360  Biso   1.000  C
  C1422    1.0000 0.33650  0.84480  0.76030  Biso   1.000  C
  C1423    1.0000 0.35040  0.87300  0.77310  Biso   1.000  C
  C1424    1.0000 0.37480  0.88750  0.75910  Biso   1.000  C
  C1425    1.0000 0.26790  0.75890  0.82230  Biso   1.000  C
  C1426    1.0000 0.29590  0.75890  0.84140  Biso   1.000  C
  C1427    1.0000 0.29500  0.72850  0.85500  Biso   1.000  C
  C1428    1.0000 0.30140  0.87230  0.83500  Biso   1.000  C
  C1429    1.0000 0.34430  0.84150  0.82760  Biso   1.000  C
  C1430    1.0000 0.36700  0.81670  0.81910  Biso   1.000  C
  C1431    1.0000 0.40110  0.81630  0.82670  Biso   1.000  C
  C1432    1.0000 0.41250  0.84090  0.84290  Biso   1.000  C
  C1433    1.0000 0.38980  0.86570  0.85140  Biso   1.000  C
  C1434    1.0000 0.35570  0.86600  0.84380  Biso   1.000  C
  C1435    1.0000 0.36200  0.98030  0.84510  Biso   1.000  C
  C1436    1.0000 0.38170  0.95980  0.83350  Biso   1.000  C
  C1437    1.0000 0.39820  0.98160  0.81990  Biso   1.000  C
  C1438    1.0000 0.37580  0.92380  0.91080  Biso   1.000  C
  C1439    1.0000 0.35360  0.87460  0.90520  Biso   1.000  C
  C1440    1.0000 0.33710  0.84340  0.90110  Biso   1.000  C
  C1441    1.0000 0.34580  0.81440  0.91430  Biso   1.000  C
  C1442    1.0000 0.37110  0.81660  0.93160  Biso   1.000  C
  C1443    1.0000 0.38770  0.84790  0.93580  Biso   1.000  C
  C1444    1.0000 0.37900  0.87680  0.92260  Biso   1.000  C
  C1445    1.0000 0.11820  0.90910  0.86200  Biso   1.000  C
  C1446    1.0000 0.11630  0.93900  0.88030  Biso   1.000  C
  C1447    1.0000 0.08870  0.93610  0.89420  Biso   1.000  C
  C1448    1.0000 0.44070  0.98480  0.91300  Biso   1.000  C
  C1449    1.0000 0.44950  0.96350  0.89400  Biso   1.000  C
  C1450    1.0000 0.45660  0.98040  0.87330  Biso   1.000  C
  C1451    1.0000 0.37200  0.92340  0.98790  Biso   1.000  C
  C1452    1.0000 0.34190  0.90970  0.97540  Biso   1.000  C
  C1453    1.0000 0.31440  0.90350  0.98760  Biso   1.000  C
  C1454    1.0000 0.48270  0.87830  0.96840  Biso   1.000  C
  C1455    1.0000 0.46870  0.85480  0.98460  Biso   1.000  C
  C1456    1.0000 0.48160  0.82130  0.98710  Biso   1.000  C
  Zn113    1.0000 0.57570  0.68320  0.33790  Biso   1.000  Zn
  Zn114    1.0000 0.57580  0.82300  0.37260  Biso   1.000  Zn
  Zn115    1.0000 0.67380  0.78020  0.29770  Biso   1.000  Zn
  Zn116    1.0000 0.57650  0.92650  0.44810  Biso   1.000  Zn
  Cl281    1.0000 0.56130  0.77500  0.22140  Biso   1.000  Cl
  Cl282    1.0000 0.65230  0.75260  0.44750  Biso   1.000  Cl
  Cl283    1.0000 0.57790  0.89720  0.27190  Biso   1.000  Cl
  Cl284    1.0000 0.77280  0.83030  0.37520  Biso   1.000  Cl
  Cl285    1.0000 0.65860  0.95480  0.35450  Biso   1.000  Cl
  Cl286    1.0000 0.53820  0.93110  0.30060  Biso   1.000  Cl
  Cl287    1.0000 0.72220  0.86380  0.45260  Biso   1.000  Cl
  Cl288    1.0000 0.53270  0.58720  0.41810  Biso   1.000  Cl
  Cl289    1.0000 0.55300  0.96860  0.35170  Biso   1.000  Cl
  Cl290    1.0000 0.59110  0.76770  0.47820  Biso   1.000  Cl
  N449     1.0000 0.52710  0.67110  0.32970  Biso   1.000  N
  N450     1.0000 0.59870  0.70690  0.31080  Biso   1.000  N
  N451     1.0000 0.63870  0.74140  0.29530  Biso   1.000  N
  N452     1.0000 0.57490  0.71640  0.36380  Biso   1.000  N
  N453     1.0000 0.57300  0.77080  0.37660  Biso   1.000  N
  N454     1.0000 0.67670  0.80790  0.26760  Biso   1.000  N
  N455     1.0000 0.71780  0.75840  0.30490  Biso   1.000  N
  N456     1.0000 0.61220  0.82890  0.34710  Biso   1.000  N
  N457     1.0000 0.65510  0.81060  0.32230  Biso   1.000  N
  N458     1.0000 0.53140  0.83790  0.36350  Biso   1.000  N
  N459     1.0000 0.59500  0.89690  0.42590  Biso   1.000  N
  N460     1.0000 0.59290  0.84880  0.39870  Biso   1.000  N
  N461     1.0000 0.60300  0.64070  0.34540  Biso   1.000  N
  N462     1.0000 0.52930  0.93500  0.43520  Biso   1.000  N
  N463     1.0000 0.59800  0.97000  0.44880  Biso   1.000  N
  N464     1.0000 0.57430  0.90650  0.47980  Biso   1.000  N
  C1457    1.0000 0.52090  0.64300  0.31470  Biso   1.000  C
  C1458    1.0000 0.53630  0.61670  0.30070  Biso   1.000  C
  C1459    1.0000 0.51450  0.60020  0.28440  Biso   1.000  C
  C1460    1.0000 0.62960  0.72140  0.31400  Biso   1.000  C
  C1461    1.0000 0.58930  0.71730  0.29180  Biso   1.000  C
  C1462    1.0000 0.55920  0.70830  0.28000  Biso   1.000  C
  C1463    1.0000 0.55240  0.72150  0.25760  Biso   1.000  C
  C1464    1.0000 0.57590  0.74370  0.24690  Biso   1.000  C
  C1465    1.0000 0.60610  0.75270  0.25870  Biso   1.000  C
  C1466    1.0000 0.61280  0.73950  0.28110  Biso   1.000  C
  C1467    1.0000 0.56210  0.74990  0.35890  Biso   1.000  C
  C1468    1.0000 0.59030  0.75640  0.39470  Biso   1.000  C
  C1469    1.0000 0.60620  0.76030  0.41660  Biso   1.000  C
  C1470    1.0000 0.62220  0.73230  0.42730  Biso   1.000  C
  C1471    1.0000 0.62210  0.70030  0.41620  Biso   1.000  C
  C1472    1.0000 0.60620  0.69630  0.39440  Biso   1.000  C
  C1473    1.0000 0.59030  0.72440  0.38360  Biso   1.000  C
  C1474    1.0000 0.65520  0.83650  0.26030  Biso   1.000  C
  C1475    1.0000 0.62700  0.85040  0.27310  Biso   1.000  C
  C1476    1.0000 0.61250  0.87480  0.25910  Biso   1.000  C
  C1477    1.0000 0.74110  0.76790  0.32230  Biso   1.000  C
  C1478    1.0000 0.74110  0.79590  0.34140  Biso   1.000  C
  C1479    1.0000 0.77150  0.79500  0.35500  Biso   1.000  C
  C1480    1.0000 0.62770  0.80140  0.33500  Biso   1.000  C
  C1481    1.0000 0.65850  0.84430  0.32760  Biso   1.000  C
  C1482    1.0000 0.68330  0.86700  0.31910  Biso   1.000  C
  C1483    1.0000 0.68370  0.90110  0.32670  Biso   1.000  C
  C1484    1.0000 0.65910  0.91250  0.34290  Biso   1.000  C
  C1485    1.0000 0.63430  0.88980  0.35140  Biso   1.000  C
  C1486    1.0000 0.63400  0.85570  0.34380  Biso   1.000  C
  C1487    1.0000 0.51970  0.86200  0.34510  Biso   1.000  C
  C1488    1.0000 0.54020  0.88170  0.33350  Biso   1.000  C
  C1489    1.0000 0.51840  0.89820  0.31990  Biso   1.000  C
  C1490    1.0000 0.57620  0.87580  0.41080  Biso   1.000  C
  C1491    1.0000 0.62540  0.85360  0.40520  Biso   1.000  C
  C1492    1.0000 0.65660  0.83710  0.40110  Biso   1.000  C
  C1493    1.0000 0.68560  0.84580  0.41430  Biso   1.000  C
  C1494    1.0000 0.68340  0.87110  0.43160  Biso   1.000  C
  C1495    1.0000 0.65210  0.88770  0.43580  Biso   1.000  C
  C1496    1.0000 0.62320  0.87900  0.42260  Biso   1.000  C
  C1497    1.0000 0.59090  0.61820  0.36200  Biso   1.000  C
  C1498    1.0000 0.56100  0.61630  0.38030  Biso   1.000  C
  C1499    1.0000 0.56390  0.58870  0.39420  Biso   1.000  C
  C1500    1.0000 0.51520  0.94070  0.41300  Biso   1.000  C
  C1501    1.0000 0.53650  0.94950  0.39400  Biso   1.000  C
  C1502    1.0000 0.51960  0.95660  0.37330  Biso   1.000  C
  C1503    1.0000 0.57660  0.87200  0.48790  Biso   1.000  C
  C1504    1.0000 0.59030  0.84190  0.47540  Biso   1.000  C
  C1505    1.0000 0.59650  0.81440  0.48760  Biso   1.000  C
  C1506    1.0000 0.62170  0.98270  0.46840  Biso   1.000  C
  C1507    1.0000 0.64520  0.96870  0.48460  Biso   1.000  C
  C1508    1.0000 0.67870  0.98160  0.48710  Biso   1.000  C
  Zn117    1.0000 0.07570  0.18320  0.83790  Biso   1.000  Zn
  Zn118    1.0000 0.07580  0.32300  0.87260  Biso   1.000  Zn
  Zn119    1.0000 0.17380  0.28020  0.79770  Biso   1.000  Zn
  Zn120    1.0000 0.07650  0.42650  0.94810  Biso   1.000  Zn
  Cl291    1.0000 0.06130  0.27500  0.72140  Biso   1.000  Cl
  Cl292    1.0000 0.15230  0.25260  0.94750  Biso   1.000  Cl
  Cl293    1.0000 0.07790  0.39720  0.77190  Biso   1.000  Cl
  Cl294    1.0000 0.27280  0.33030  0.87520  Biso   1.000  Cl
  Cl295    1.0000 0.15860  0.45480  0.85450  Biso   1.000  Cl
  Cl296    1.0000 0.03820  0.43110  0.80060  Biso   1.000  Cl
  Cl297    1.0000 0.22220  0.36380  0.95260  Biso   1.000  Cl
  Cl298    1.0000 0.03270  0.08720  0.91810  Biso   1.000  Cl
  Cl299    1.0000 0.05300  0.46860  0.85170  Biso   1.000  Cl
  Cl300    1.0000 0.09110  0.26770  0.97820  Biso   1.000  Cl
  N465     1.0000 0.02710  0.17110  0.82970  Biso   1.000  N
  N466     1.0000 0.09870  0.20690  0.81080  Biso   1.000  N
  N467     1.0000 0.13870  0.24140  0.79530  Biso   1.000  N
  N468     1.0000 0.07490  0.21640  0.86380  Biso   1.000  N
  N469     1.0000 0.07300  0.27080  0.87660  Biso   1.000  N
  N470     1.0000 0.17670  0.30790  0.76760  Biso   1.000  N
  N471     1.0000 0.21780  0.25840  0.80490  Biso   1.000  N
  N472     1.0000 0.11220  0.32890  0.84710  Biso   1.000  N
  N473     1.0000 0.15510  0.31060  0.82230  Biso   1.000  N
  N474     1.0000 0.03140  0.33790  0.86350  Biso   1.000  N
  N475     1.0000 0.09500  0.39690  0.92590  Biso   1.000  N
  N476     1.0000 0.09290  0.34880  0.89870  Biso   1.000  N
  N477     1.0000 0.10300  0.14070  0.84540  Biso   1.000  N
  N478     1.0000 0.02930  0.43500  0.93520  Biso   1.000  N
  N479     1.0000 0.09800  0.47000  0.94880  Biso   1.000  N
  N480     1.0000 0.07430  0.40650  0.97980  Biso   1.000  N
  C1509    1.0000 0.02090  0.14300  0.81470  Biso   1.000  C
  C1510    1.0000 0.03630  0.11670  0.80070  Biso   1.000  C
  C1511    1.0000 0.01450  0.10020  0.78440  Biso   1.000  C
  C1512    1.0000 0.12960  0.22140  0.81400  Biso   1.000  C
  C1513    1.0000 0.08930  0.21730  0.79180  Biso   1.000  C
  C1514    1.0000 0.05920  0.20830  0.78000  Biso   1.000  C
  C1515    1.0000 0.05240  0.22150  0.75760  Biso   1.000  C
  C1516    1.0000 0.07590  0.24370  0.74690  Biso   1.000  C
  C1517    1.0000 0.10610  0.25270  0.75870  Biso   1.000  C
  C1518    1.0000 0.11280  0.23950  0.78110  Biso   1.000  C
  C1519    1.0000 0.06210  0.24990  0.85890  Biso   1.000  C
  C1520    1.0000 0.09030  0.25640  0.89470  Biso   1.000  C
  C1521    1.0000 0.10620  0.26030  0.91660  Biso   1.000  C
  C1522    1.0000 0.12220  0.23230  0.92730  Biso   1.000  C
  C1523    1.0000 0.12210  0.20030  0.91620  Biso   1.000  C
  C1524    1.0000 0.10620  0.19630  0.89440  Biso   1.000  C
  C1525    1.0000 0.09030  0.22440  0.88360  Biso   1.000  C
  C1526    1.0000 0.15520  0.33650  0.76030  Biso   1.000  C
  C1527    1.0000 0.12700  0.35040  0.77310  Biso   1.000  C
  C1528    1.0000 0.11250  0.37480  0.75910  Biso   1.000  C
  C1529    1.0000 0.24110  0.26790  0.82230  Biso   1.000  C
  C1530    1.0000 0.24110  0.29590  0.84140  Biso   1.000  C
  C1531    1.0000 0.27150  0.29500  0.85500  Biso   1.000  C
  C1532    1.0000 0.12770  0.30140  0.83500  Biso   1.000  C
  C1533    1.0000 0.15850  0.34430  0.82760  Biso   1.000  C
  C1534    1.0000 0.18330  0.36700  0.81910  Biso   1.000  C
  C1535    1.0000 0.18370  0.40110  0.82670  Biso   1.000  C
  C1536    1.0000 0.15910  0.41250  0.84290  Biso   1.000  C
  C1537    1.0000 0.13430  0.38980  0.85140  Biso   1.000  C
  C1538    1.0000 0.13400  0.35570  0.84380  Biso   1.000  C
  C1539    1.0000 0.01970  0.36200  0.84510  Biso   1.000  C
  C1540    1.0000 0.04020  0.38170  0.83350  Biso   1.000  C
  C1541    1.0000 0.01840  0.39820  0.81990  Biso   1.000  C
  C1542    1.0000 0.07620  0.37580  0.91080  Biso   1.000  C
  C1543    1.0000 0.12540  0.35360  0.90520  Biso   1.000  C
  C1544    1.0000 0.15660  0.33710  0.90110  Biso   1.000  C
  C1545    1.0000 0.18560  0.34580  0.91430  Biso   1.000  C
  C1546    1.0000 0.18340  0.37110  0.93160  Biso   1.000  C
  C1547    1.0000 0.15210  0.38770  0.93580  Biso   1.000  C
  C1548    1.0000 0.12320  0.37900  0.92260  Biso   1.000  C
  C1549    1.0000 0.09090  0.11820  0.86200  Biso   1.000  C
  C1550    1.0000 0.06100  0.11630  0.88030  Biso   1.000  C
  C1551    1.0000 0.06390  0.08870  0.89420  Biso   1.000  C
  C1552    1.0000 0.01520  0.44070  0.91300  Biso   1.000  C
  C1553    1.0000 0.03650  0.44950  0.89400  Biso   1.000  C
  C1554    1.0000 0.01960  0.45660  0.87330  Biso   1.000  C
  C1555    1.0000 0.07660  0.37200  0.98790  Biso   1.000  C
  C1556    1.0000 0.09030  0.34190  0.97540  Biso   1.000  C
  C1557    1.0000 0.09650  0.31440  0.98760  Biso   1.000  C
  C1558    1.0000 0.12170  0.48270  0.96840  Biso   1.000  C
  C1559    1.0000 0.14520  0.46870  0.98460  Biso   1.000  C
  C1560    1.0000 0.17870  0.48160  0.98710  Biso   1.000  C
  Zn121    1.0000 0.42430  0.31680  0.33790  Biso   1.000  Zn
  Zn122    1.0000 0.42420  0.17700  0.37260  Biso   1.000  Zn
  Zn123    1.0000 0.32620  0.21980  0.29770  Biso   1.000  Zn
  Zn124    1.0000 0.42350  0.07350  0.44810  Biso   1.000  Zn
  Cl301    1.0000 0.43870  0.22500  0.22140  Biso   1.000  Cl
  Cl302    1.0000 0.34770  0.24740  0.44750  Biso   1.000  Cl
  Cl303    1.0000 0.42210  0.10280  0.27190  Biso   1.000  Cl
  Cl304    1.0000 0.22720  0.16970  0.37520  Biso   1.000  Cl
  Cl305    1.0000 0.34140  0.04520  0.35450  Biso   1.000  Cl
  Cl306    1.0000 0.46180  0.06890  0.30060  Biso   1.000  Cl
  Cl307    1.0000 0.27780  0.13620  0.45260  Biso   1.000  Cl
  Cl308    1.0000 0.46730  0.41280  0.41810  Biso   1.000  Cl
  Cl309    1.0000 0.44700  0.03140  0.35170  Biso   1.000  Cl
  Cl310    1.0000 0.40890  0.23230  0.47820  Biso   1.000  Cl
  N481     1.0000 0.47290  0.32890  0.32970  Biso   1.000  N
  N482     1.0000 0.40130  0.29310  0.31080  Biso   1.000  N
  N483     1.0000 0.36130  0.25860  0.29530  Biso   1.000  N
  N484     1.0000 0.42510  0.28360  0.36380  Biso   1.000  N
  N485     1.0000 0.42700  0.22920  0.37660  Biso   1.000  N
  N486     1.0000 0.32330  0.19210  0.26760  Biso   1.000  N
  N487     1.0000 0.28220  0.24160  0.30490  Biso   1.000  N
  N488     1.0000 0.38780  0.17110  0.34710  Biso   1.000  N
  N489     1.0000 0.34490  0.18940  0.32230  Biso   1.000  N
  N490     1.0000 0.46860  0.16210  0.36350  Biso   1.000  N
  N491     1.0000 0.40500  0.10310  0.42590  Biso   1.000  N
  N492     1.0000 0.40710  0.15120  0.39870  Biso   1.000  N
  N493     1.0000 0.39700  0.35930  0.34540  Biso   1.000  N
  N494     1.0000 0.47070  0.06500  0.43520  Biso   1.000  N
  N495     1.0000 0.40200  0.03000  0.44880  Biso   1.000  N
  N496     1.0000 0.42570  0.09350  0.47980  Biso   1.000  N
  C1561    1.0000 0.47910  0.35700  0.31470  Biso   1.000  C
  C1562    1.0000 0.46370  0.38330  0.30070  Biso   1.000  C
  C1563    1.0000 0.48550  0.39980  0.28440  Biso   1.000  C
  C1564    1.0000 0.37040  0.27860  0.31400  Biso   1.000  C
  C1565    1.0000 0.41070  0.28270  0.29180  Biso   1.000  C
  C1566    1.0000 0.44080  0.29170  0.28000  Biso   1.000  C
  C1567    1.0000 0.44760  0.27850  0.25760  Biso   1.000  C
  C1568    1.0000 0.42410  0.25630  0.24690  Biso   1.000  C
  C1569    1.0000 0.39390  0.24730  0.25870  Biso   1.000  C
  C1570    1.0000 0.38720  0.26050  0.28110  Biso   1.000  C
  C1571    1.0000 0.43790  0.25010  0.35890  Biso   1.000  C
  C1572    1.0000 0.40970  0.24360  0.39470  Biso   1.000  C
  C1573    1.0000 0.39380  0.23970  0.41660  Biso   1.000  C
  C1574    1.0000 0.37780  0.26770  0.42730  Biso   1.000  C
  C1575    1.0000 0.37790  0.29970  0.41620  Biso   1.000  C
  C1576    1.0000 0.39380  0.30370  0.39440  Biso   1.000  C
  C1577    1.0000 0.40970  0.27560  0.38360  Biso   1.000  C
  C1578    1.0000 0.34480  0.16350  0.26030  Biso   1.000  C
  C1579    1.0000 0.37300  0.14960  0.27310  Biso   1.000  C
  C1580    1.0000 0.38750  0.12520  0.25910  Biso   1.000  C
  C1581    1.0000 0.25890  0.23210  0.32230  Biso   1.000  C
  C1582    1.0000 0.25890  0.20410  0.34140  Biso   1.000  C
  C1583    1.0000 0.22850  0.20500  0.35500  Biso   1.000  C
  C1584    1.0000 0.37230  0.19860  0.33500  Biso   1.000  C
  C1585    1.0000 0.34150  0.15570  0.32760  Biso   1.000  C
  C1586    1.0000 0.31670  0.13300  0.31910  Biso   1.000  C
  C1587    1.0000 0.31630  0.09890  0.32670  Biso   1.000  C
  C1588    1.0000 0.34090  0.08750  0.34290  Biso   1.000  C
  C1589    1.0000 0.36570  0.11020  0.35140  Biso   1.000  C
  C1590    1.0000 0.36600  0.14430  0.34380  Biso   1.000  C
  C1591    1.0000 0.48030  0.13800  0.34510  Biso   1.000  C
  C1592    1.0000 0.45980  0.11830  0.33350  Biso   1.000  C
  C1593    1.0000 0.48160  0.10180  0.31990  Biso   1.000  C
  C1594    1.0000 0.42380  0.12420  0.41080  Biso   1.000  C
  C1595    1.0000 0.37460  0.14640  0.40520  Biso   1.000  C
  C1596    1.0000 0.34340  0.16290  0.40110  Biso   1.000  C
  C1597    1.0000 0.31440  0.15420  0.41430  Biso   1.000  C
  C1598    1.0000 0.31660  0.12890  0.43160  Biso   1.000  C
  C1599    1.0000 0.34790  0.11230  0.43580  Biso   1.000  C
  C1600    1.0000 0.37680  0.12100  0.42260  Biso   1.000  C
  C1601    1.0000 0.40910  0.38180  0.36200  Biso   1.000  C
  C1602    1.0000 0.43900  0.38370  0.38030  Biso   1.000  C
  C1603    1.0000 0.43610  0.41130  0.39420  Biso   1.000  C
  C1604    1.0000 0.48480  0.05930  0.41300  Biso   1.000  C
  C1605    1.0000 0.46350  0.05050  0.39400  Biso   1.000  C
  C1606    1.0000 0.48040  0.04340  0.37330  Biso   1.000  C
  C1607    1.0000 0.42340  0.12800  0.48790  Biso   1.000  C
  C1608    1.0000 0.40970  0.15810  0.47540  Biso   1.000  C
  C1609    1.0000 0.40350  0.18560  0.48760  Biso   1.000  C
  C1610    1.0000 0.37830  0.01730  0.46840  Biso   1.000  C
  C1611    1.0000 0.35480  0.03130  0.48460  Biso   1.000  C
  C1612    1.0000 0.32130  0.01840  0.48710  Biso   1.000  C
  Zn125    1.0000 0.92430  0.81680  0.83790  Biso   1.000  Zn
  Zn126    1.0000 0.92420  0.67700  0.87260  Biso   1.000  Zn
  Zn127    1.0000 0.82620  0.71980  0.79770  Biso   1.000  Zn
  Zn128    1.0000 0.92350  0.57350  0.94810  Biso   1.000  Zn
  Cl311    1.0000 0.93870  0.72500  0.72140  Biso   1.000  Cl
  Cl312    1.0000 0.84770  0.74740  0.94750  Biso   1.000  Cl
  Cl313    1.0000 0.92210  0.60280  0.77190  Biso   1.000  Cl
  Cl314    1.0000 0.72720  0.66970  0.87520  Biso   1.000  Cl
  Cl315    1.0000 0.84140  0.54520  0.85450  Biso   1.000  Cl
  Cl316    1.0000 0.96180  0.56890  0.80060  Biso   1.000  Cl
  Cl317    1.0000 0.77780  0.63620  0.95260  Biso   1.000  Cl
  Cl318    1.0000 0.96730  0.91280  0.91810  Biso   1.000  Cl
  Cl319    1.0000 0.94700  0.53140  0.85170  Biso   1.000  Cl
  Cl320    1.0000 0.90890  0.73230  0.97820  Biso   1.000  Cl
  N497     1.0000 0.97290  0.82890  0.82970  Biso   1.000  N
  N498     1.0000 0.90130  0.79310  0.81080  Biso   1.000  N
  N499     1.0000 0.86130  0.75860  0.79530  Biso   1.000  N
  N500     1.0000 0.92510  0.78360  0.86380  Biso   1.000  N
  N501     1.0000 0.92700  0.72920  0.87660  Biso   1.000  N
  N502     1.0000 0.82330  0.69210  0.76760  Biso   1.000  N
  N503     1.0000 0.78220  0.74160  0.80490  Biso   1.000  N
  N504     1.0000 0.88780  0.67110  0.84710  Biso   1.000  N
  N505     1.0000 0.84490  0.68940  0.82230  Biso   1.000  N
  N506     1.0000 0.96860  0.66210  0.86350  Biso   1.000  N
  N507     1.0000 0.90500  0.60310  0.92590  Biso   1.000  N
  N508     1.0000 0.90710  0.65120  0.89870  Biso   1.000  N
  N509     1.0000 0.89700  0.85930  0.84540  Biso   1.000  N
  N510     1.0000 0.97070  0.56500  0.93520  Biso   1.000  N
  N511     1.0000 0.90200  0.53000  0.94880  Biso   1.000  N
  N512     1.0000 0.92570  0.59350  0.97980  Biso   1.000  N
  C1613    1.0000 0.97910  0.85700  0.81470  Biso   1.000  C
  C1614    1.0000 0.96370  0.88330  0.80070  Biso   1.000  C
  C1615    1.0000 0.98550  0.89980  0.78440  Biso   1.000  C
  C1616    1.0000 0.87040  0.77860  0.81400  Biso   1.000  C
  C1617    1.0000 0.91070  0.78270  0.79180  Biso   1.000  C
  C1618    1.0000 0.94080  0.79170  0.78000  Biso   1.000  C
  C1619    1.0000 0.94760  0.77850  0.75760  Biso   1.000  C
  C1620    1.0000 0.92410  0.75630  0.74690  Biso   1.000  C
  C1621    1.0000 0.89390  0.74730  0.75870  Biso   1.000  C
  C1622    1.0000 0.88720  0.76050  0.78110  Biso   1.000  C
  C1623    1.0000 0.93790  0.75010  0.85890  Biso   1.000  C
  C1624    1.0000 0.90970  0.74360  0.89470  Biso   1.000  C
  C1625    1.0000 0.89380  0.73970  0.91660  Biso   1.000  C
  C1626    1.0000 0.87780  0.76770  0.92730  Biso   1.000  C
  C1627    1.0000 0.87790  0.79970  0.91620  Biso   1.000  C
  C1628    1.0000 0.89380  0.80370  0.89440  Biso   1.000  C
  C1629    1.0000 0.90970  0.77560  0.88360  Biso   1.000  C
  C1630    1.0000 0.84480  0.66350  0.76030  Biso   1.000  C
  C1631    1.0000 0.87300  0.64960  0.77310  Biso   1.000  C
  C1632    1.0000 0.88750  0.62520  0.75910  Biso   1.000  C
  C1633    1.0000 0.75890  0.73210  0.82230  Biso   1.000  C
  C1634    1.0000 0.75890  0.70410  0.84140  Biso   1.000  C
  C1635    1.0000 0.72850  0.70500  0.85500  Biso   1.000  C
  C1636    1.0000 0.87230  0.69860  0.83500  Biso   1.000  C
  C1637    1.0000 0.84150  0.65570  0.82760  Biso   1.000  C
  C1638    1.0000 0.81670  0.63300  0.81910  Biso   1.000  C
  C1639    1.0000 0.81630  0.59890  0.82670  Biso   1.000  C
  C1640    1.0000 0.84090  0.58750  0.84290  Biso   1.000  C
  C1641    1.0000 0.86570  0.61020  0.85140  Biso   1.000  C
  C1642    1.0000 0.86600  0.64430  0.84380  Biso   1.000  C
  C1643    1.0000 0.98030  0.63800  0.84510  Biso   1.000  C
  C1644    1.0000 0.95980  0.61830  0.83350  Biso   1.000  C
  C1645    1.0000 0.98160  0.60180  0.81990  Biso   1.000  C
  C1646    1.0000 0.92380  0.62420  0.91080  Biso   1.000  C
  C1647    1.0000 0.87460  0.64640  0.90520  Biso   1.000  C
  C1648    1.0000 0.84340  0.66290  0.90110  Biso   1.000  C
  C1649    1.0000 0.81440  0.65420  0.91430  Biso   1.000  C
  C1650    1.0000 0.81660  0.62890  0.93160  Biso   1.000  C
  C1651    1.0000 0.84790  0.61230  0.93580  Biso   1.000  C
  C1652    1.0000 0.87680  0.62100  0.92260  Biso   1.000  C
  C1653    1.0000 0.90910  0.88180  0.86200  Biso   1.000  C
  C1654    1.0000 0.93900  0.88370  0.88030  Biso   1.000  C
  C1655    1.0000 0.93610  0.91130  0.89420  Biso   1.000  C
  C1656    1.0000 0.98480  0.55930  0.91300  Biso   1.000  C
  C1657    1.0000 0.96350  0.55050  0.89400  Biso   1.000  C
  C1658    1.0000 0.98040  0.54340  0.87330  Biso   1.000  C
  C1659    1.0000 0.92340  0.62800  0.98790  Biso   1.000  C
  C1660    1.0000 0.90970  0.65810  0.97540  Biso   1.000  C
  C1661    1.0000 0.90350  0.68560  0.98760  Biso   1.000  C
  C1662    1.0000 0.87830  0.51730  0.96840  Biso   1.000  C
  C1663    1.0000 0.85480  0.53130  0.98460  Biso   1.000  C
  C1664    1.0000 0.82130  0.51840  0.98710  Biso   1.000  C
  C1665    1.0000 0.27150  0.27150  0.29580  Biso   1.000  C
  C1666    1.0000 0.36950  0.36950  0.33360  Biso   1.000  C
  C1667    1.0000 0.77150  0.77150  0.79580  Biso   1.000  C
  C1668    1.0000 0.86950  0.86950  0.83360  Biso   1.000  C
  C1669    1.0000 0.72850  0.72850  0.29580  Biso   1.000  C
  C1670    1.0000 0.63050  0.63050  0.33360  Biso   1.000  C
  C1671    1.0000 0.22850  0.22850  0.79580  Biso   1.000  C
  C1672    1.0000 0.13050  0.13050  0.83360  Biso   1.000  C
  C1673    1.0000 0.72850  0.27150  0.29580  Biso   1.000  C
  C1674    1.0000 0.63050  0.36950  0.33360  Biso   1.000  C
  C1675    1.0000 0.22850  0.77150  0.79580  Biso   1.000  C
  C1676    1.0000 0.13050  0.86950  0.83360  Biso   1.000  C
  C1677    1.0000 0.27150  0.72850  0.29580  Biso   1.000  C
  C1678    1.0000 0.36950  0.63050  0.33360  Biso   1.000  C
  C1679    1.0000 0.77150  0.22850  0.79580  Biso   1.000  C
  C1680    1.0000 0.86950  0.13050  0.83360  Biso   1.000  C
  C1681    1.0000 0.72850  0.27150  0.70420  Biso   1.000  C
  C1682    1.0000 0.63050  0.36950  0.66640  Biso   1.000  C
  C1683    1.0000 0.22850  0.77150  0.20420  Biso   1.000  C
  C1684    1.0000 0.13050  0.86950  0.16640  Biso   1.000  C
  C1685    1.0000 0.27150  0.72850  0.70420  Biso   1.000  C
  C1686    1.0000 0.36950  0.63050  0.66640  Biso   1.000  C
  C1687    1.0000 0.77150  0.22850  0.20420  Biso   1.000  C
  C1688    1.0000 0.86950  0.13050  0.16640  Biso   1.000  C
  C1689    1.0000 0.27150  0.27150  0.70420  Biso   1.000  C
  C1690    1.0000 0.36950  0.36950  0.66640  Biso   1.000  C
  C1691    1.0000 0.77150  0.77150  0.20420  Biso   1.000  C
  C1692    1.0000 0.86950  0.86950  0.16640  Biso   1.000  C
  C1693    1.0000 0.72850  0.72850  0.70420  Biso   1.000  C
  C1694    1.0000 0.63050  0.63050  0.66640  Biso   1.000  C
  C1695    1.0000 0.22850  0.22850  0.20420  Biso   1.000  C
  C1696    1.0000 0.13050  0.13050  0.16640  Biso   1.000  C
  C1697    1.0000 0.31110  0.50000  0.33990  Biso   1.000  C
  C1698    1.0000 0.17580  0.50000  0.37340  Biso   1.000  C
  C1699    1.0000 0.06980  0.50000  0.44660  Biso   1.000  C
  C1700    1.0000 0.81110  0.00000  0.83990  Biso   1.000  C
  C1701    1.0000 0.67580  0.00000  0.87340  Biso   1.000  C
  C1702    1.0000 0.56980  0.00000  0.94660  Biso   1.000  C
  C1703    1.0000 0.68890  0.50000  0.33990  Biso   1.000  C
  C1704    1.0000 0.82420  0.50000  0.37340  Biso   1.000  C
  C1705    1.0000 0.93020  0.50000  0.44660  Biso   1.000  C
  C1706    1.0000 0.18890  0.00000  0.83990  Biso   1.000  C
  C1707    1.0000 0.32420  0.00000  0.87340  Biso   1.000  C
  C1708    1.0000 0.43020  0.00000  0.94660  Biso   1.000  C
  C1709    1.0000 0.50000  0.31110  0.33990  Biso   1.000  C
  C1710    1.0000 0.50000  0.17580  0.37340  Biso   1.000  C
  C1711    1.0000 0.50000  0.06980  0.44660  Biso   1.000  C
  C1712    1.0000 0.00000  0.81110  0.83990  Biso   1.000  C
  C1713    1.0000 0.00000  0.67580  0.87340  Biso   1.000  C
  C1714    1.0000 0.00000  0.56980  0.94660  Biso   1.000  C
  C1715    1.0000 0.50000  0.68890  0.33990  Biso   1.000  C
  C1716    1.0000 0.50000  0.82420  0.37340  Biso   1.000  C
  C1717    1.0000 0.50000  0.93020  0.44660  Biso   1.000  C
  C1718    1.0000 0.00000  0.18890  0.83990  Biso   1.000  C
  C1719    1.0000 0.00000  0.32420  0.87340  Biso   1.000  C
  C1720    1.0000 0.00000  0.43020  0.94660  Biso   1.000  C
  C1721    1.0000 0.68890  0.50000  0.66010  Biso   1.000  C
  C1722    1.0000 0.82420  0.50000  0.62660  Biso   1.000  C
  C1723    1.0000 0.93020  0.50000  0.55340  Biso   1.000  C
  C1724    1.0000 0.18890  0.00000  0.16010  Biso   1.000  C
  C1725    1.0000 0.32420  0.00000  0.12660  Biso   1.000  C
  C1726    1.0000 0.43020  0.00000  0.05340  Biso   1.000  C
  C1727    1.0000 0.31110  0.50000  0.66010  Biso   1.000  C
  C1728    1.0000 0.17580  0.50000  0.62660  Biso   1.000  C
  C1729    1.0000 0.06980  0.50000  0.55340  Biso   1.000  C
  C1730    1.0000 0.81110  0.00000  0.16010  Biso   1.000  C
  C1731    1.0000 0.67580  0.00000  0.12660  Biso   1.000  C
  C1732    1.0000 0.56980  0.00000  0.05340  Biso   1.000  C
  C1733    1.0000 0.50000  0.31110  0.66010  Biso   1.000  C
  C1734    1.0000 0.50000  0.17580  0.62660  Biso   1.000  C
  C1735    1.0000 0.50000  0.06980  0.55340  Biso   1.000  C
  C1736    1.0000 0.00000  0.81110  0.16010  Biso   1.000  C
  C1737    1.0000 0.00000  0.67580  0.12660  Biso   1.000  C
  C1738    1.0000 0.00000  0.56980  0.05340  Biso   1.000  C
  C1739    1.0000 0.50000  0.68890  0.66010  Biso   1.000  C
  C1740    1.0000 0.50000  0.82420  0.62660  Biso   1.000  C
  C1741    1.0000 0.50000  0.93020  0.55340  Biso   1.000  C
  C1742    1.0000 0.00000  0.18890  0.16010  Biso   1.000  C
  C1743    1.0000 0.00000  0.32420  0.12660  Biso   1.000  C
  C1744    1.0000 0.00000  0.43020  0.05340  Biso   1.000  C
  C1745    1.0000 0.19820  0.30180  0.25000  Biso   1.000  C
  C1746    1.0000 0.80180  0.69820  0.25000  Biso   1.000  C
  C1747    1.0000 0.69820  0.19820  0.25000  Biso   1.000  C
  C1748    1.0000 0.30180  0.80180  0.25000  Biso   1.000  C
  C1749    1.0000 0.80180  0.30180  0.75000  Biso   1.000  C
  C1750    1.0000 0.19820  0.69820  0.75000  Biso   1.000  C
  C1751    1.0000 0.30180  0.19820  0.75000  Biso   1.000  C
  C1752    1.0000 0.69820  0.80180  0.75000  Biso   1.000  C
  C1753    1.0000 0.80180  0.69820  0.75000  Biso   1.000  C
  C1754    1.0000 0.30180  0.19820  0.25000  Biso   1.000  C
  C1755    1.0000 0.19820  0.30180  0.75000  Biso   1.000  C
  C1756    1.0000 0.30180  0.80180  0.75000  Biso   1.000  C
  C1757    1.0000 0.69820  0.19820  0.75000  Biso   1.000  C
  C1758    1.0000 0.19820  0.69820  0.25000  Biso   1.000  C
  C1759    1.0000 0.80180  0.30180  0.25000  Biso   1.000  C
  C1760    1.0000 0.69820  0.80180  0.25000  Biso   1.000  C
  C1761    1.0000 0.07570  0.42780  0.50000  Biso   1.000  C
  C1762    1.0000 0.57570  0.92780  0.00000  Biso   1.000  C
  C1763    1.0000 0.92430  0.57220  0.50000  Biso   1.000  C
  C1764    1.0000 0.42430  0.07220  0.00000  Biso   1.000  C
  C1765    1.0000 0.57220  0.07570  0.50000  Biso   1.000  C
  C1766    1.0000 0.07220  0.57570  0.00000  Biso   1.000  C
  C1767    1.0000 0.42780  0.92430  0.50000  Biso   1.000  C
  C1768    1.0000 0.92780  0.42430  0.00000  Biso   1.000  C
  C1769    1.0000 0.92430  0.42780  0.50000  Biso   1.000  C
  C1770    1.0000 0.42430  0.92780  0.00000  Biso   1.000  C
  C1771    1.0000 0.07570  0.57220  0.50000  Biso   1.000  C
  C1772    1.0000 0.57570  0.07220  0.00000  Biso   1.000  C
  C1773    1.0000 0.42780  0.07570  0.50000  Biso   1.000  C
  C1774    1.0000 0.92780  0.57570  0.00000  Biso   1.000  C
  C1775    1.0000 0.57220  0.92430  0.50000  Biso   1.000  C
  C1776    1.0000 0.07220  0.42430  0.00000  Biso   1.000  C
  C1777    1.0000 0.00000  0.41420  0.44270  Biso   1.000  C
  C1778    1.0000 0.50000  0.91420  0.94270  Biso   1.000  C
  C1779    1.0000 0.00000  0.58580  0.44270  Biso   1.000  C
  C1780    1.0000 0.50000  0.08580  0.94270  Biso   1.000  C
  C1781    1.0000 0.58580  0.00000  0.44270  Biso   1.000  C
  C1782    1.0000 0.08580  0.50000  0.94270  Biso   1.000  C
  C1783    1.0000 0.41420  0.00000  0.44270  Biso   1.000  C
  C1784    1.0000 0.91420  0.50000  0.94270  Biso   1.000  C
  C1785    1.0000 0.00000  0.41420  0.55730  Biso   1.000  C
  C1786    1.0000 0.50000  0.91420  0.05730  Biso   1.000  C
  C1787    1.0000 0.00000  0.58580  0.55730  Biso   1.000  C
  C1788    1.0000 0.50000  0.08580  0.05730  Biso   1.000  C
  C1789    1.0000 0.41420  0.00000  0.55730  Biso   1.000  C
  C1790    1.0000 0.91420  0.50000  0.05730  Biso   1.000  C
  C1791    1.0000 0.58580  0.00000  0.55730  Biso   1.000  C
  C1792    1.0000 0.08580  0.50000  0.05730  Biso   1.000  C
