data_image0
_cell_length_a       27.819
_cell_length_b       27.819
_cell_length_c       12.613
_cell_angle_alpha    90
_cell_angle_beta     90
_cell_angle_gamma    120

_symmetry_space_group_name_H-M    "P 1"
_symmetry_int_tables_number       1

loop_
  _symmetry_equiv_pos_as_xyz
  'x, y, z'

loop_
  _atom_site_label
  _atom_site_occupancy
  _atom_site_fract_x
  _atom_site_fract_y
  _atom_site_fract_z
  _atom_site_thermal_displace_type
  _atom_site_B_iso_or_equiv
  _atom_site_type_symbol
  O1       1.0000 0.59414  0.08791  0.08130  Biso   1.000  O
  O2       1.0000 0.62080  0.09280  0.91530  Biso   1.000  O
  O3       1.0000 0.59597  0.08815  0.30460  Biso   1.000  O
  O4       1.0000 0.60871  0.07291  0.47010  Biso   1.000  O
  O5       1.0000 0.62560  0.01289  0.12180  Biso   1.000  O
  H1       1.0000 0.62220  0.04060  0.10700  Biso   1.000  H
  H2       1.0000 0.59580  0.98280  0.11200  Biso   1.000  H
  C1       1.0000 0.59656  0.10350  0.98530  Biso   1.000  C
  H3       1.0000 0.55990  0.17620  0.82700  Biso   1.000  H
  H4       1.0000 0.63420  0.21210  0.01400  Biso   1.000  H
  C2       1.0000 0.59104  0.09295  0.40350  Biso   1.000  C
  H5       1.0000 0.60520  0.15410  0.58100  Biso   1.000  H
  H6       1.0000 0.57360  0.20360  0.40710  Biso   1.000  H
  O6       1.0000 0.26081  0.42124  0.41463  Biso   1.000  O
  O7       1.0000 0.28747  0.42613  0.24863  Biso   1.000  O
  O8       1.0000 0.26264  0.42148  0.63793  Biso   1.000  O
  O9       1.0000 0.27538  0.40624  0.80343  Biso   1.000  O
  O10      1.0000 0.29227  0.34622  0.45513  Biso   1.000  O
  H7       1.0000 0.28887  0.37393  0.44033  Biso   1.000  H
  H8       1.0000 0.26247  0.31613  0.44533  Biso   1.000  H
  C3       1.0000 0.26323  0.43683  0.31863  Biso   1.000  C
  H9       1.0000 0.22657  0.50953  0.16033  Biso   1.000  H
  H10      1.0000 0.30087  0.54543  0.34733  Biso   1.000  H
  C4       1.0000 0.25771  0.42628  0.73683  Biso   1.000  C
  H11      1.0000 0.27187  0.48743  0.91433  Biso   1.000  H
  H12      1.0000 0.24027  0.53693  0.74043  Biso   1.000  H
  O11      1.0000 0.92747  0.75458  0.74797  Biso   1.000  O
  O12      1.0000 0.95413  0.75947  0.58197  Biso   1.000  O
  O13      1.0000 0.92930  0.75482  0.97127  Biso   1.000  O
  O14      1.0000 0.94204  0.73958  0.13677  Biso   1.000  O
  O15      1.0000 0.95893  0.67956  0.78847  Biso   1.000  O
  H13      1.0000 0.95553  0.70727  0.77367  Biso   1.000  H
  H14      1.0000 0.92913  0.64947  0.77867  Biso   1.000  H
  C5       1.0000 0.92989  0.77017  0.65197  Biso   1.000  C
  H15      1.0000 0.89323  0.84287  0.49367  Biso   1.000  H
  H16      1.0000 0.96753  0.87877  0.68067  Biso   1.000  H
  C6       1.0000 0.92437  0.75962  0.07017  Biso   1.000  C
  H17      1.0000 0.93853  0.82077  0.24767  Biso   1.000  H
  H18      1.0000 0.90693  0.87027  0.07377  Biso   1.000  H
  O16      1.0000 0.91209  0.50623  0.08130  Biso   1.000  O
  O17      1.0000 0.90720  0.52800  0.91530  Biso   1.000  O
  O18      1.0000 0.91185  0.50782  0.30460  Biso   1.000  O
  O19      1.0000 0.92709  0.53580  0.47010  Biso   1.000  O
  O20      1.0000 0.98711  0.61271  0.12180  Biso   1.000  O
  H19      1.0000 0.95940  0.58160  0.10700  Biso   1.000  H
  H20      1.0000 0.01720  0.61300  0.11200  Biso   1.000  H
  C7       1.0000 0.89650  0.49306  0.98530  Biso   1.000  C
  H21      1.0000 0.82380  0.38370  0.82700  Biso   1.000  H
  H22      1.0000 0.78790  0.42210  0.01400  Biso   1.000  H
  C8       1.0000 0.90705  0.49809  0.40350  Biso   1.000  C
  H23      1.0000 0.84590  0.45110  0.58100  Biso   1.000  H
  H24      1.0000 0.79640  0.37000  0.40710  Biso   1.000  H
  O21      1.0000 0.57876  0.83956  0.41463  Biso   1.000  O
  O22      1.0000 0.57387  0.86133  0.24863  Biso   1.000  O
  O23      1.0000 0.57852  0.84115  0.63793  Biso   1.000  O
  O24      1.0000 0.59376  0.86913  0.80343  Biso   1.000  O
  O25      1.0000 0.65378  0.94604  0.45513  Biso   1.000  O
  H25      1.0000 0.62607  0.91493  0.44033  Biso   1.000  H
  H26      1.0000 0.68387  0.94633  0.44533  Biso   1.000  H
  C9       1.0000 0.56317  0.82639  0.31863  Biso   1.000  C
  H27      1.0000 0.49047  0.71703  0.16033  Biso   1.000  H
  H28      1.0000 0.45457  0.75543  0.34733  Biso   1.000  H
  C10      1.0000 0.57372  0.83142  0.73683  Biso   1.000  C
  H29      1.0000 0.51257  0.78443  0.91433  Biso   1.000  H
  H30      1.0000 0.46307  0.70333  0.74043  Biso   1.000  H
  O26      1.0000 0.24542  0.17290  0.74797  Biso   1.000  O
  O27      1.0000 0.24053  0.19467  0.58197  Biso   1.000  O
  O28      1.0000 0.24518  0.17449  0.97127  Biso   1.000  O
  O29      1.0000 0.26042  0.20247  0.13677  Biso   1.000  O
  O30      1.0000 0.32044  0.27938  0.78847  Biso   1.000  O
  H31      1.0000 0.29273  0.24827  0.77367  Biso   1.000  H
  H32      1.0000 0.35053  0.27967  0.77867  Biso   1.000  H
  C11      1.0000 0.22983  0.15973  0.65197  Biso   1.000  C
  H33      1.0000 0.15713  0.05037  0.49367  Biso   1.000  H
  H34      1.0000 0.12123  0.08877  0.68067  Biso   1.000  H
  C12      1.0000 0.24038  0.16476  0.07017  Biso   1.000  C
  H35      1.0000 0.17923  0.11777  0.24767  Biso   1.000  H
  H36      1.0000 0.12973  0.03667  0.07377  Biso   1.000  H
  O31      1.0000 0.49377  0.40586  0.08130  Biso   1.000  O
  O32      1.0000 0.47200  0.37920  0.91530  Biso   1.000  O
  O33      1.0000 0.49218  0.40403  0.30460  Biso   1.000  O
  O34      1.0000 0.46420  0.39129  0.47010  Biso   1.000  O
  O35      1.0000 0.38729  0.37440  0.12180  Biso   1.000  O
  H37      1.0000 0.41840  0.37780  0.10700  Biso   1.000  H
  H38      1.0000 0.38700  0.40420  0.11200  Biso   1.000  H
  C13      1.0000 0.50694  0.40344  0.98530  Biso   1.000  C
  H39      1.0000 0.61630  0.44010  0.82700  Biso   1.000  H
  H40      1.0000 0.57790  0.36580  0.01400  Biso   1.000  H
  C14      1.0000 0.50191  0.40896  0.40350  Biso   1.000  C
  H41      1.0000 0.54890  0.39480  0.58100  Biso   1.000  H
  H42      1.0000 0.63000  0.42640  0.40710  Biso   1.000  H
  O36      1.0000 0.16044  0.73919  0.41463  Biso   1.000  O
  O37      1.0000 0.13867  0.71253  0.24863  Biso   1.000  O
  O38      1.0000 0.15885  0.73736  0.63793  Biso   1.000  O
  O39      1.0000 0.13087  0.72462  0.80343  Biso   1.000  O
  O40      1.0000 0.05396  0.70773  0.45513  Biso   1.000  O
  H43      1.0000 0.08507  0.71113  0.44033  Biso   1.000  H
  H44      1.0000 0.05367  0.73753  0.44533  Biso   1.000  H
  C15      1.0000 0.17361  0.73677  0.31863  Biso   1.000  C
  H45      1.0000 0.28297  0.77343  0.16033  Biso   1.000  H
  H46      1.0000 0.24457  0.69913  0.34733  Biso   1.000  H
  C16      1.0000 0.16858  0.74229  0.73683  Biso   1.000  C
  H47      1.0000 0.21557  0.72813  0.91433  Biso   1.000  H
  H48      1.0000 0.29667  0.75973  0.74043  Biso   1.000  H
  O41      1.0000 0.82710  0.07253  0.74797  Biso   1.000  O
  O42      1.0000 0.80533  0.04587  0.58197  Biso   1.000  O
  O43      1.0000 0.82551  0.07070  0.97127  Biso   1.000  O
  O44      1.0000 0.79753  0.05796  0.13677  Biso   1.000  O
  O45      1.0000 0.72062  0.04107  0.78847  Biso   1.000  O
  H49      1.0000 0.75173  0.04447  0.77367  Biso   1.000  H
  H50      1.0000 0.72033  0.07087  0.77867  Biso   1.000  H
  C17      1.0000 0.84027  0.07011  0.65197  Biso   1.000  C
  H51      1.0000 0.94963  0.10677  0.49367  Biso   1.000  H
  H52      1.0000 0.91123  0.03247  0.68067  Biso   1.000  H
  C18      1.0000 0.83524  0.07563  0.07017  Biso   1.000  C
  H53      1.0000 0.88223  0.06147  0.24767  Biso   1.000  H
  H54      1.0000 0.96333  0.09307  0.07377  Biso   1.000  H
  O46      1.0000 0.08791  0.59414  0.91870  Biso   1.000  O
  O47      1.0000 0.09280  0.62080  0.08470  Biso   1.000  O
  O48      1.0000 0.08815  0.59597  0.69540  Biso   1.000  O
  O49      1.0000 0.07291  0.60871  0.52990  Biso   1.000  O
  O50      1.0000 0.01289  0.62560  0.87820  Biso   1.000  O
  H55      1.0000 0.04060  0.62220  0.89300  Biso   1.000  H
  H56      1.0000 0.98280  0.59580  0.88800  Biso   1.000  H
  C19      1.0000 0.10350  0.59656  0.01470  Biso   1.000  C
  H57      1.0000 0.17620  0.55990  0.17300  Biso   1.000  H
  H58      1.0000 0.21210  0.63420  0.98600  Biso   1.000  H
  C20      1.0000 0.09295  0.59104  0.59650  Biso   1.000  C
  H59      1.0000 0.15410  0.60520  0.41900  Biso   1.000  H
  H60      1.0000 0.20360  0.57360  0.59290  Biso   1.000  H
  O51      1.0000 0.75458  0.92747  0.25203  Biso   1.000  O
  O52      1.0000 0.75947  0.95413  0.41803  Biso   1.000  O
  O53      1.0000 0.75482  0.92930  0.02873  Biso   1.000  O
  O54      1.0000 0.73958  0.94204  0.86323  Biso   1.000  O
  O55      1.0000 0.67956  0.95893  0.21153  Biso   1.000  O
  H61      1.0000 0.70727  0.95553  0.22633  Biso   1.000  H
  H62      1.0000 0.64947  0.92913  0.22133  Biso   1.000  H
  C21      1.0000 0.77017  0.92989  0.34803  Biso   1.000  C
  H63      1.0000 0.84287  0.89323  0.50633  Biso   1.000  H
  H64      1.0000 0.87877  0.96753  0.31933  Biso   1.000  H
  C22      1.0000 0.75962  0.92437  0.92983  Biso   1.000  C
  H65      1.0000 0.82077  0.93853  0.75233  Biso   1.000  H
  H66      1.0000 0.87027  0.90693  0.92623  Biso   1.000  H
  O56      1.0000 0.42124  0.26081  0.58537  Biso   1.000  O
  O57      1.0000 0.42613  0.28747  0.75137  Biso   1.000  O
  O58      1.0000 0.42148  0.26264  0.36207  Biso   1.000  O
  O59      1.0000 0.40624  0.27538  0.19657  Biso   1.000  O
  O60      1.0000 0.34622  0.29227  0.54487  Biso   1.000  O
  H67      1.0000 0.37393  0.28887  0.55967  Biso   1.000  H
  H68      1.0000 0.31613  0.26247  0.55467  Biso   1.000  H
  C23      1.0000 0.43683  0.26323  0.68137  Biso   1.000  C
  H69      1.0000 0.50953  0.22657  0.83967  Biso   1.000  H
  H70      1.0000 0.54543  0.30087  0.65267  Biso   1.000  H
  C24      1.0000 0.42628  0.25771  0.26317  Biso   1.000  C
  H71      1.0000 0.48743  0.27187  0.08567  Biso   1.000  H
  H72      1.0000 0.53693  0.24027  0.25957  Biso   1.000  H
  O61      1.0000 0.50623  0.91209  0.91870  Biso   1.000  O
  O62      1.0000 0.52800  0.90720  0.08470  Biso   1.000  O
  O63      1.0000 0.50782  0.91185  0.69540  Biso   1.000  O
  O64      1.0000 0.53580  0.92709  0.52990  Biso   1.000  O
  O65      1.0000 0.61271  0.98711  0.87820  Biso   1.000  O
  H73      1.0000 0.58160  0.95940  0.89300  Biso   1.000  H
  H74      1.0000 0.61300  0.01720  0.88800  Biso   1.000  H
  C25      1.0000 0.49306  0.89650  0.01470  Biso   1.000  C
  H75      1.0000 0.38370  0.82380  0.17300  Biso   1.000  H
  H76      1.0000 0.42210  0.78790  0.98600  Biso   1.000  H
  C26      1.0000 0.49809  0.90705  0.59650  Biso   1.000  C
  H77      1.0000 0.45110  0.84590  0.41900  Biso   1.000  H
  H78      1.0000 0.37000  0.79640  0.59290  Biso   1.000  H
  O66      1.0000 0.17290  0.24542  0.25203  Biso   1.000  O
  O67      1.0000 0.19467  0.24053  0.41803  Biso   1.000  O
  O68      1.0000 0.17449  0.24518  0.02873  Biso   1.000  O
  O69      1.0000 0.20247  0.26042  0.86323  Biso   1.000  O
  O70      1.0000 0.27938  0.32044  0.21153  Biso   1.000  O
  H79      1.0000 0.24827  0.29273  0.22633  Biso   1.000  H
  H80      1.0000 0.27967  0.35053  0.22133  Biso   1.000  H
  C27      1.0000 0.15973  0.22983  0.34803  Biso   1.000  C
  H81      1.0000 0.05037  0.15713  0.50633  Biso   1.000  H
  H82      1.0000 0.08877  0.12123  0.31933  Biso   1.000  H
  C28      1.0000 0.16476  0.24038  0.92983  Biso   1.000  C
  H83      1.0000 0.11777  0.17923  0.75233  Biso   1.000  H
  H84      1.0000 0.03667  0.12973  0.92623  Biso   1.000  H
  O71      1.0000 0.83956  0.57876  0.58537  Biso   1.000  O
  O72      1.0000 0.86133  0.57387  0.75137  Biso   1.000  O
  O73      1.0000 0.84115  0.57852  0.36207  Biso   1.000  O
  O74      1.0000 0.86913  0.59376  0.19657  Biso   1.000  O
  O75      1.0000 0.94604  0.65378  0.54487  Biso   1.000  O
  H85      1.0000 0.91493  0.62607  0.55967  Biso   1.000  H
  H86      1.0000 0.94633  0.68387  0.55467  Biso   1.000  H
  C29      1.0000 0.82639  0.56317  0.68137  Biso   1.000  C
  H87      1.0000 0.71703  0.49047  0.83967  Biso   1.000  H
  H88      1.0000 0.75543  0.45457  0.65267  Biso   1.000  H
  C30      1.0000 0.83142  0.57372  0.26317  Biso   1.000  C
  H89      1.0000 0.78443  0.51257  0.08567  Biso   1.000  H
  H90      1.0000 0.70333  0.46307  0.25957  Biso   1.000  H
  O76      1.0000 0.40586  0.49377  0.91870  Biso   1.000  O
  O77      1.0000 0.37920  0.47200  0.08470  Biso   1.000  O
  O78      1.0000 0.40403  0.49218  0.69540  Biso   1.000  O
  O79      1.0000 0.39129  0.46420  0.52990  Biso   1.000  O
  O80      1.0000 0.37440  0.38729  0.87820  Biso   1.000  O
  H91      1.0000 0.37780  0.41840  0.89300  Biso   1.000  H
  H92      1.0000 0.40420  0.38700  0.88800  Biso   1.000  H
  C31      1.0000 0.40344  0.50694  0.01470  Biso   1.000  C
  H93      1.0000 0.44010  0.61630  0.17300  Biso   1.000  H
  H94      1.0000 0.36580  0.57790  0.98600  Biso   1.000  H
  C32      1.0000 0.40896  0.50191  0.59650  Biso   1.000  C
  H95      1.0000 0.39480  0.54890  0.41900  Biso   1.000  H
  H96      1.0000 0.42640  0.63000  0.59290  Biso   1.000  H
  O81      1.0000 0.07253  0.82710  0.25203  Biso   1.000  O
  O82      1.0000 0.04587  0.80533  0.41803  Biso   1.000  O
  O83      1.0000 0.07070  0.82551  0.02873  Biso   1.000  O
  O84      1.0000 0.05796  0.79753  0.86323  Biso   1.000  O
  O85      1.0000 0.04107  0.72062  0.21153  Biso   1.000  O
  H97      1.0000 0.04447  0.75173  0.22633  Biso   1.000  H
  H98      1.0000 0.07087  0.72033  0.22133  Biso   1.000  H
  C33      1.0000 0.07011  0.84027  0.34803  Biso   1.000  C
  H99      1.0000 0.10677  0.94963  0.50633  Biso   1.000  H
  H100     1.0000 0.03247  0.91123  0.31933  Biso   1.000  H
  C34      1.0000 0.07563  0.83524  0.92983  Biso   1.000  C
  H101     1.0000 0.06147  0.88223  0.75233  Biso   1.000  H
  H102     1.0000 0.09307  0.96333  0.92623  Biso   1.000  H
  O86      1.0000 0.73919  0.16044  0.58537  Biso   1.000  O
  O87      1.0000 0.71253  0.13867  0.75137  Biso   1.000  O
  O88      1.0000 0.73736  0.15885  0.36207  Biso   1.000  O
  O89      1.0000 0.72462  0.13087  0.19657  Biso   1.000  O
  O90      1.0000 0.70773  0.05396  0.54487  Biso   1.000  O
  H103     1.0000 0.71113  0.08507  0.55967  Biso   1.000  H
  H104     1.0000 0.73753  0.05367  0.55467  Biso   1.000  H
  C35      1.0000 0.73677  0.17361  0.68137  Biso   1.000  C
  H105     1.0000 0.77343  0.28297  0.83967  Biso   1.000  H
  H106     1.0000 0.69913  0.24457  0.65267  Biso   1.000  H
  C36      1.0000 0.74229  0.16858  0.26317  Biso   1.000  C
  H107     1.0000 0.72813  0.21557  0.08567  Biso   1.000  H
  H108     1.0000 0.75973  0.29667  0.25957  Biso   1.000  H
  O91      1.0000 0.40586  0.91209  0.91870  Biso   1.000  O
  O92      1.0000 0.37920  0.90720  0.08470  Biso   1.000  O
  O93      1.0000 0.40403  0.91185  0.69540  Biso   1.000  O
  O94      1.0000 0.39129  0.92709  0.52990  Biso   1.000  O
  O95      1.0000 0.37440  0.98711  0.87820  Biso   1.000  O
  H109     1.0000 0.37780  0.95940  0.89300  Biso   1.000  H
  H110     1.0000 0.40420  0.01720  0.88800  Biso   1.000  H
  C37      1.0000 0.40344  0.89650  0.01470  Biso   1.000  C
  H111     1.0000 0.44010  0.82380  0.17300  Biso   1.000  H
  H112     1.0000 0.36580  0.78790  0.98600  Biso   1.000  H
  C38      1.0000 0.40896  0.90705  0.59650  Biso   1.000  C
  H113     1.0000 0.39480  0.84590  0.41900  Biso   1.000  H
  H114     1.0000 0.42640  0.79640  0.59290  Biso   1.000  H
  O96      1.0000 0.07253  0.24542  0.25203  Biso   1.000  O
  O97      1.0000 0.04587  0.24053  0.41803  Biso   1.000  O
  O98      1.0000 0.07070  0.24518  0.02873  Biso   1.000  O
  O99      1.0000 0.05796  0.26042  0.86323  Biso   1.000  O
  O100     1.0000 0.04107  0.32044  0.21153  Biso   1.000  O
  H115     1.0000 0.04447  0.29273  0.22633  Biso   1.000  H
  H116     1.0000 0.07087  0.35053  0.22133  Biso   1.000  H
  C39      1.0000 0.07011  0.22983  0.34803  Biso   1.000  C
  H117     1.0000 0.10677  0.15713  0.50633  Biso   1.000  H
  H118     1.0000 0.03247  0.12123  0.31933  Biso   1.000  H
  C40      1.0000 0.07563  0.24038  0.92983  Biso   1.000  C
  H119     1.0000 0.06147  0.17923  0.75233  Biso   1.000  H
  H120     1.0000 0.09307  0.12973  0.92623  Biso   1.000  H
  O101     1.0000 0.73919  0.57876  0.58537  Biso   1.000  O
  O102     1.0000 0.71253  0.57387  0.75137  Biso   1.000  O
  O103     1.0000 0.73736  0.57852  0.36207  Biso   1.000  O
  O104     1.0000 0.72462  0.59376  0.19657  Biso   1.000  O
  O105     1.0000 0.70773  0.65378  0.54487  Biso   1.000  O
  H121     1.0000 0.71113  0.62607  0.55967  Biso   1.000  H
  H122     1.0000 0.73753  0.68387  0.55467  Biso   1.000  H
  C41      1.0000 0.73677  0.56317  0.68137  Biso   1.000  C
  H123     1.0000 0.77343  0.49047  0.83967  Biso   1.000  H
  H124     1.0000 0.69913  0.45457  0.65267  Biso   1.000  H
  C42      1.0000 0.74229  0.57372  0.26317  Biso   1.000  C
  H125     1.0000 0.72813  0.51257  0.08567  Biso   1.000  H
  H126     1.0000 0.75973  0.46307  0.25957  Biso   1.000  H
  O106     1.0000 0.08791  0.49377  0.91870  Biso   1.000  O
  O107     1.0000 0.09280  0.47200  0.08470  Biso   1.000  O
  O108     1.0000 0.08815  0.49218  0.69540  Biso   1.000  O
  O109     1.0000 0.07291  0.46420  0.52990  Biso   1.000  O
  O110     1.0000 0.01289  0.38729  0.87820  Biso   1.000  O
  H127     1.0000 0.04060  0.41840  0.89300  Biso   1.000  H
  H128     1.0000 0.98280  0.38700  0.88800  Biso   1.000  H
  C43      1.0000 0.10350  0.50694  0.01470  Biso   1.000  C
  H129     1.0000 0.17620  0.61630  0.17300  Biso   1.000  H
  H130     1.0000 0.21210  0.57790  0.98600  Biso   1.000  H
  C44      1.0000 0.09295  0.50191  0.59650  Biso   1.000  C
  H131     1.0000 0.15410  0.54890  0.41900  Biso   1.000  H
  H132     1.0000 0.20360  0.63000  0.59290  Biso   1.000  H
  O111     1.0000 0.75458  0.82710  0.25203  Biso   1.000  O
  O112     1.0000 0.75947  0.80533  0.41803  Biso   1.000  O
  O113     1.0000 0.75482  0.82551  0.02873  Biso   1.000  O
  O114     1.0000 0.73958  0.79753  0.86323  Biso   1.000  O
  O115     1.0000 0.67956  0.72062  0.21153  Biso   1.000  O
  H133     1.0000 0.70727  0.75173  0.22633  Biso   1.000  H
  H134     1.0000 0.64947  0.72033  0.22133  Biso   1.000  H
  C45      1.0000 0.77017  0.84027  0.34803  Biso   1.000  C
  H135     1.0000 0.84287  0.94963  0.50633  Biso   1.000  H
  H136     1.0000 0.87877  0.91123  0.31933  Biso   1.000  H
  C46      1.0000 0.75962  0.83524  0.92983  Biso   1.000  C
  H137     1.0000 0.82077  0.88223  0.75233  Biso   1.000  H
  H138     1.0000 0.87027  0.96333  0.92623  Biso   1.000  H
  O116     1.0000 0.42124  0.16044  0.58537  Biso   1.000  O
  O117     1.0000 0.42613  0.13867  0.75137  Biso   1.000  O
  O118     1.0000 0.42148  0.15885  0.36207  Biso   1.000  O
  O119     1.0000 0.40624  0.13087  0.19657  Biso   1.000  O
  O120     1.0000 0.34622  0.05396  0.54487  Biso   1.000  O
  H139     1.0000 0.37393  0.08507  0.55967  Biso   1.000  H
  H140     1.0000 0.31613  0.05367  0.55467  Biso   1.000  H
  C47      1.0000 0.43683  0.17361  0.68137  Biso   1.000  C
  H141     1.0000 0.50953  0.28297  0.83967  Biso   1.000  H
  H142     1.0000 0.54543  0.24457  0.65267  Biso   1.000  H
  C48      1.0000 0.42628  0.16858  0.26317  Biso   1.000  C
  H143     1.0000 0.48743  0.21557  0.08567  Biso   1.000  H
  H144     1.0000 0.53693  0.29667  0.25957  Biso   1.000  H
  O121     1.0000 0.50623  0.59414  0.91870  Biso   1.000  O
  O122     1.0000 0.52800  0.62080  0.08470  Biso   1.000  O
  O123     1.0000 0.50782  0.59597  0.69540  Biso   1.000  O
  O124     1.0000 0.53580  0.60871  0.52990  Biso   1.000  O
  O125     1.0000 0.61271  0.62560  0.87820  Biso   1.000  O
  H145     1.0000 0.58160  0.62220  0.89300  Biso   1.000  H
  H146     1.0000 0.61300  0.59580  0.88800  Biso   1.000  H
  C49      1.0000 0.49306  0.59656  0.01470  Biso   1.000  C
  H147     1.0000 0.38370  0.55990  0.17300  Biso   1.000  H
  H148     1.0000 0.42210  0.63420  0.98600  Biso   1.000  H
  C50      1.0000 0.49809  0.59104  0.59650  Biso   1.000  C
  H149     1.0000 0.45110  0.60520  0.41900  Biso   1.000  H
  H150     1.0000 0.37000  0.57360  0.59290  Biso   1.000  H
  O126     1.0000 0.17290  0.92747  0.25203  Biso   1.000  O
  O127     1.0000 0.19467  0.95413  0.41803  Biso   1.000  O
  O128     1.0000 0.17449  0.92930  0.02873  Biso   1.000  O
  O129     1.0000 0.20247  0.94204  0.86323  Biso   1.000  O
  O130     1.0000 0.27938  0.95893  0.21153  Biso   1.000  O
  H151     1.0000 0.24827  0.95553  0.22633  Biso   1.000  H
  H152     1.0000 0.27967  0.92913  0.22133  Biso   1.000  H
  C51      1.0000 0.15973  0.92989  0.34803  Biso   1.000  C
  H153     1.0000 0.05037  0.89323  0.50633  Biso   1.000  H
  H154     1.0000 0.08877  0.96753  0.31933  Biso   1.000  H
  C52      1.0000 0.16476  0.92437  0.92983  Biso   1.000  C
  H155     1.0000 0.11777  0.93853  0.75233  Biso   1.000  H
  H156     1.0000 0.03667  0.90693  0.92623  Biso   1.000  H
  O131     1.0000 0.83956  0.26081  0.58537  Biso   1.000  O
  O132     1.0000 0.86133  0.28747  0.75137  Biso   1.000  O
  O133     1.0000 0.84115  0.26264  0.36207  Biso   1.000  O
  O134     1.0000 0.86913  0.27538  0.19657  Biso   1.000  O
  O135     1.0000 0.94604  0.29227  0.54487  Biso   1.000  O
  H157     1.0000 0.91493  0.28887  0.55967  Biso   1.000  H
  H158     1.0000 0.94633  0.26247  0.55467  Biso   1.000  H
  C53      1.0000 0.82639  0.26323  0.68137  Biso   1.000  C
  H159     1.0000 0.71703  0.22657  0.83967  Biso   1.000  H
  H160     1.0000 0.75543  0.30087  0.65267  Biso   1.000  H
  C54      1.0000 0.83142  0.25771  0.26317  Biso   1.000  C
  H161     1.0000 0.78443  0.27187  0.08567  Biso   1.000  H
  H162     1.0000 0.70333  0.24027  0.25957  Biso   1.000  H
  O136     1.0000 0.91209  0.40586  0.08130  Biso   1.000  O
  O137     1.0000 0.90720  0.37920  0.91530  Biso   1.000  O
  O138     1.0000 0.91185  0.40403  0.30460  Biso   1.000  O
  O139     1.0000 0.92709  0.39129  0.47010  Biso   1.000  O
  O140     1.0000 0.98711  0.37440  0.12180  Biso   1.000  O
  H163     1.0000 0.95940  0.37780  0.10700  Biso   1.000  H
  H164     1.0000 0.01720  0.40420  0.11200  Biso   1.000  H
  C55      1.0000 0.89650  0.40344  0.98530  Biso   1.000  C
  H165     1.0000 0.82380  0.44010  0.82700  Biso   1.000  H
  H166     1.0000 0.78790  0.36580  0.01400  Biso   1.000  H
  C56      1.0000 0.90705  0.40896  0.40350  Biso   1.000  C
  H167     1.0000 0.84590  0.39480  0.58100  Biso   1.000  H
  H168     1.0000 0.79640  0.42640  0.40710  Biso   1.000  H
  O141     1.0000 0.57876  0.73919  0.41463  Biso   1.000  O
  O142     1.0000 0.57387  0.71253  0.24863  Biso   1.000  O
  O143     1.0000 0.57852  0.73736  0.63793  Biso   1.000  O
  O144     1.0000 0.59376  0.72462  0.80343  Biso   1.000  O
  O145     1.0000 0.65378  0.70773  0.45513  Biso   1.000  O
  H169     1.0000 0.62607  0.71113  0.44033  Biso   1.000  H
  H170     1.0000 0.68387  0.73753  0.44533  Biso   1.000  H
  C57      1.0000 0.56317  0.73677  0.31863  Biso   1.000  C
  H171     1.0000 0.49047  0.77343  0.16033  Biso   1.000  H
  H172     1.0000 0.45457  0.69913  0.34733  Biso   1.000  H
  C58      1.0000 0.57372  0.74229  0.73683  Biso   1.000  C
  H173     1.0000 0.51257  0.72813  0.91433  Biso   1.000  H
  H174     1.0000 0.46307  0.75973  0.74043  Biso   1.000  H
  O146     1.0000 0.24542  0.07253  0.74797  Biso   1.000  O
  O147     1.0000 0.24053  0.04587  0.58197  Biso   1.000  O
  O148     1.0000 0.24518  0.07070  0.97127  Biso   1.000  O
  O149     1.0000 0.26042  0.05796  0.13677  Biso   1.000  O
  O150     1.0000 0.32044  0.04107  0.78847  Biso   1.000  O
  H175     1.0000 0.29273  0.04447  0.77367  Biso   1.000  H
  H176     1.0000 0.35053  0.07087  0.77867  Biso   1.000  H
  C59      1.0000 0.22983  0.07011  0.65197  Biso   1.000  C
  H177     1.0000 0.15713  0.10677  0.49367  Biso   1.000  H
  H178     1.0000 0.12123  0.03247  0.68067  Biso   1.000  H
  C60      1.0000 0.24038  0.07563  0.07017  Biso   1.000  C
  H179     1.0000 0.17923  0.06147  0.24767  Biso   1.000  H
  H180     1.0000 0.12973  0.09307  0.07377  Biso   1.000  H
  O151     1.0000 0.49377  0.08791  0.08130  Biso   1.000  O
  O152     1.0000 0.47200  0.09280  0.91530  Biso   1.000  O
  O153     1.0000 0.49218  0.08815  0.30460  Biso   1.000  O
  O154     1.0000 0.46420  0.07291  0.47010  Biso   1.000  O
  O155     1.0000 0.38729  0.01289  0.12180  Biso   1.000  O
  H181     1.0000 0.41840  0.04060  0.10700  Biso   1.000  H
  H182     1.0000 0.38700  0.98280  0.11200  Biso   1.000  H
  C61      1.0000 0.50694  0.10350  0.98530  Biso   1.000  C
  H183     1.0000 0.61630  0.17620  0.82700  Biso   1.000  H
  H184     1.0000 0.57790  0.21210  0.01400  Biso   1.000  H
  C62      1.0000 0.50191  0.09295  0.40350  Biso   1.000  C
  H185     1.0000 0.54890  0.15410  0.58100  Biso   1.000  H
  H186     1.0000 0.63000  0.20360  0.40710  Biso   1.000  H
  O156     1.0000 0.16044  0.42124  0.41463  Biso   1.000  O
  O157     1.0000 0.13867  0.42613  0.24863  Biso   1.000  O
  O158     1.0000 0.15885  0.42148  0.63793  Biso   1.000  O
  O159     1.0000 0.13087  0.40624  0.80343  Biso   1.000  O
  O160     1.0000 0.05396  0.34622  0.45513  Biso   1.000  O
  H187     1.0000 0.08507  0.37393  0.44033  Biso   1.000  H
  H188     1.0000 0.05367  0.31613  0.44533  Biso   1.000  H
  C63      1.0000 0.17361  0.43683  0.31863  Biso   1.000  C
  H189     1.0000 0.28297  0.50953  0.16033  Biso   1.000  H
  H190     1.0000 0.24457  0.54543  0.34733  Biso   1.000  H
  C64      1.0000 0.16858  0.42628  0.73683  Biso   1.000  C
  H191     1.0000 0.21557  0.48743  0.91433  Biso   1.000  H
  H192     1.0000 0.29667  0.53693  0.74043  Biso   1.000  H
  O161     1.0000 0.82710  0.75458  0.74797  Biso   1.000  O
  O162     1.0000 0.80533  0.75947  0.58197  Biso   1.000  O
  O163     1.0000 0.82551  0.75482  0.97127  Biso   1.000  O
  O164     1.0000 0.79753  0.73958  0.13677  Biso   1.000  O
  O165     1.0000 0.72062  0.67956  0.78847  Biso   1.000  O
  H193     1.0000 0.75173  0.70727  0.77367  Biso   1.000  H
  H194     1.0000 0.72033  0.64947  0.77867  Biso   1.000  H
  C65      1.0000 0.84027  0.77017  0.65197  Biso   1.000  C
  H195     1.0000 0.94963  0.84287  0.49367  Biso   1.000  H
  H196     1.0000 0.91123  0.87877  0.68067  Biso   1.000  H
  C66      1.0000 0.83524  0.75962  0.07017  Biso   1.000  C
  H197     1.0000 0.88223  0.82077  0.24767  Biso   1.000  H
  H198     1.0000 0.96333  0.87027  0.07377  Biso   1.000  H
  O166     1.0000 0.59414  0.50623  0.08130  Biso   1.000  O
  O167     1.0000 0.62080  0.52800  0.91530  Biso   1.000  O
  O168     1.0000 0.59597  0.50782  0.30460  Biso   1.000  O
  O169     1.0000 0.60871  0.53580  0.47010  Biso   1.000  O
  O170     1.0000 0.62560  0.61271  0.12180  Biso   1.000  O
  H199     1.0000 0.62220  0.58160  0.10700  Biso   1.000  H
  H200     1.0000 0.59580  0.61300  0.11200  Biso   1.000  H
  C67      1.0000 0.59656  0.49306  0.98530  Biso   1.000  C
  H201     1.0000 0.55990  0.38370  0.82700  Biso   1.000  H
  H202     1.0000 0.63420  0.42210  0.01400  Biso   1.000  H
  C68      1.0000 0.59104  0.49809  0.40350  Biso   1.000  C
  H203     1.0000 0.60520  0.45110  0.58100  Biso   1.000  H
  H204     1.0000 0.57360  0.37000  0.40710  Biso   1.000  H
  O171     1.0000 0.26081  0.83956  0.41463  Biso   1.000  O
  O172     1.0000 0.28747  0.86133  0.24863  Biso   1.000  O
  O173     1.0000 0.26264  0.84115  0.63793  Biso   1.000  O
  O174     1.0000 0.27538  0.86913  0.80343  Biso   1.000  O
  O175     1.0000 0.29227  0.94604  0.45513  Biso   1.000  O
  H205     1.0000 0.28887  0.91493  0.44033  Biso   1.000  H
  H206     1.0000 0.26247  0.94633  0.44533  Biso   1.000  H
  C69      1.0000 0.26323  0.82639  0.31863  Biso   1.000  C
  H207     1.0000 0.22657  0.71703  0.16033  Biso   1.000  H
  H208     1.0000 0.30087  0.75543  0.34733  Biso   1.000  H
  C70      1.0000 0.25771  0.83142  0.73683  Biso   1.000  C
  H209     1.0000 0.27187  0.78443  0.91433  Biso   1.000  H
  H210     1.0000 0.24027  0.70333  0.74043  Biso   1.000  H
  O176     1.0000 0.92747  0.17290  0.74797  Biso   1.000  O
  O177     1.0000 0.95413  0.19467  0.58197  Biso   1.000  O
  O178     1.0000 0.92930  0.17449  0.97127  Biso   1.000  O
  O179     1.0000 0.94204  0.20247  0.13677  Biso   1.000  O
  O180     1.0000 0.95893  0.27938  0.78847  Biso   1.000  O
  H211     1.0000 0.95553  0.24827  0.77367  Biso   1.000  H
  H212     1.0000 0.92913  0.27967  0.77867  Biso   1.000  H
  C71      1.0000 0.92989  0.15973  0.65197  Biso   1.000  C
  H213     1.0000 0.89323  0.05037  0.49367  Biso   1.000  H
  H214     1.0000 0.96753  0.08877  0.68067  Biso   1.000  H
  C72      1.0000 0.92437  0.16476  0.07017  Biso   1.000  C
  H215     1.0000 0.93853  0.11777  0.24767  Biso   1.000  H
  H216     1.0000 0.90693  0.03667  0.07377  Biso   1.000  H
  Ba1      1.0000 0.66667  0.03962  0.33333  Biso   1.000  Ba
  Ba2      1.0000 0.96038  0.62704  0.33333  Biso   1.000  Ba
  Ba3      1.0000 0.37296  0.33333  0.33333  Biso   1.000  Ba
  Ba4      1.0000 0.03962  0.66667  0.66667  Biso   1.000  Ba
  Ba5      1.0000 0.70629  0.00000  0.00000  Biso   1.000  Ba
  Ba6      1.0000 0.62704  0.96038  0.66667  Biso   1.000  Ba
  Ba7      1.0000 0.29371  0.29371  0.00000  Biso   1.000  Ba
  Ba8      1.0000 0.33333  0.37296  0.66667  Biso   1.000  Ba
  Ba9      1.0000 0.00000  0.70629  0.00000  Biso   1.000  Ba
  Ba10     1.0000 0.33333  0.96038  0.66667  Biso   1.000  Ba
  Ba11     1.0000 0.00000  0.29371  0.00000  Biso   1.000  Ba
  Ba12     1.0000 0.03962  0.37296  0.66667  Biso   1.000  Ba
  Ba13     1.0000 0.70629  0.70629  0.00000  Biso   1.000  Ba
  Ba14     1.0000 0.62704  0.66667  0.66667  Biso   1.000  Ba
  Ba15     1.0000 0.29371  0.00000  0.00000  Biso   1.000  Ba
  Ba16     1.0000 0.96038  0.33333  0.33333  Biso   1.000  Ba
  Ba17     1.0000 0.37296  0.03962  0.33333  Biso   1.000  Ba
  Ba18     1.0000 0.66667  0.62704  0.33333  Biso   1.000  Ba
  Zn1      1.0000 0.53775  0.07550  0.19346  Biso   1.000  Zn
  C73      1.0000 0.56905  0.13810  0.95860  Biso   1.000  C
  C74      1.0000 0.57735  0.15470  0.84210  Biso   1.000  C
  H217     1.0000 0.56095  0.12190  0.79880  Biso   1.000  H
  C75      1.0000 0.59520  0.19040  0.02880  Biso   1.000  C
  H218     1.0000 0.58985  0.17970  0.10210  Biso   1.000  H
  C76      1.0000 0.56305  0.12610  0.44080  Biso   1.000  C
  C77      1.0000 0.56690  0.13380  0.56020  Biso   1.000  C
  H219     1.0000 0.54905  0.09810  0.59420  Biso   1.000  H
  C78      1.0000 0.59165  0.18330  0.38630  Biso   1.000  C
  H220     1.0000 0.58920  0.17840  0.31070  Biso   1.000  H
  Zn2      1.0000 0.20442  0.40883  0.52679  Biso   1.000  Zn
  C79      1.0000 0.23572  0.47143  0.29193  Biso   1.000  C
  C80      1.0000 0.24402  0.48803  0.17543  Biso   1.000  C
  H221     1.0000 0.22762  0.45523  0.13213  Biso   1.000  H
  C81      1.0000 0.26187  0.52373  0.36213  Biso   1.000  C
  H222     1.0000 0.25652  0.51303  0.43543  Biso   1.000  H
  C82      1.0000 0.22972  0.45943  0.77413  Biso   1.000  C
  C83      1.0000 0.23357  0.46713  0.89353  Biso   1.000  C
  H223     1.0000 0.21572  0.43143  0.92753  Biso   1.000  H
  C84      1.0000 0.25832  0.51663  0.71963  Biso   1.000  C
  H224     1.0000 0.25587  0.51173  0.64403  Biso   1.000  H
  Zn3      1.0000 0.87108  0.74217  0.86013  Biso   1.000  Zn
  C85      1.0000 0.90238  0.80477  0.62527  Biso   1.000  C
  C86      1.0000 0.91068  0.82137  0.50877  Biso   1.000  C
  H225     1.0000 0.89428  0.78857  0.46547  Biso   1.000  H
  C87      1.0000 0.92853  0.85707  0.69547  Biso   1.000  C
  H226     1.0000 0.92318  0.84637  0.76877  Biso   1.000  H
  C88      1.0000 0.89638  0.79277  0.10747  Biso   1.000  C
  C89      1.0000 0.90023  0.80047  0.22687  Biso   1.000  C
  H227     1.0000 0.88238  0.76477  0.26087  Biso   1.000  H
  C90      1.0000 0.92498  0.84997  0.05297  Biso   1.000  C
  H228     1.0000 0.92253  0.84507  0.97737  Biso   1.000  H
  Zn4      1.0000 0.92450  0.46225  0.19346  Biso   1.000  Zn
  C91      1.0000 0.86190  0.43095  0.95860  Biso   1.000  C
  C92      1.0000 0.84530  0.42265  0.84210  Biso   1.000  C
  H229     1.0000 0.87810  0.43905  0.79880  Biso   1.000  H
  C93      1.0000 0.80960  0.40480  0.02880  Biso   1.000  C
  H230     1.0000 0.82030  0.41015  0.10210  Biso   1.000  H
  C94      1.0000 0.87390  0.43695  0.44080  Biso   1.000  C
  C95      1.0000 0.86620  0.43310  0.56020  Biso   1.000  C
  H231     1.0000 0.90190  0.45095  0.59420  Biso   1.000  H
  C96      1.0000 0.81670  0.40835  0.38630  Biso   1.000  C
  H232     1.0000 0.82160  0.41080  0.31070  Biso   1.000  H
  Zn5      1.0000 0.59117  0.79558  0.52679  Biso   1.000  Zn
  C97      1.0000 0.52857  0.76428  0.29193  Biso   1.000  C
  C98      1.0000 0.51197  0.75598  0.17543  Biso   1.000  C
  H233     1.0000 0.54477  0.77238  0.13213  Biso   1.000  H
  C99      1.0000 0.47627  0.73813  0.36213  Biso   1.000  C
  H234     1.0000 0.48697  0.74348  0.43543  Biso   1.000  H
  C100     1.0000 0.54057  0.77028  0.77413  Biso   1.000  C
  C101     1.0000 0.53287  0.76643  0.89353  Biso   1.000  C
  H235     1.0000 0.56857  0.78428  0.92753  Biso   1.000  H
  C102     1.0000 0.48337  0.74168  0.71963  Biso   1.000  C
  H236     1.0000 0.48827  0.74413  0.64403  Biso   1.000  H
  Zn6      1.0000 0.25783  0.12892  0.86013  Biso   1.000  Zn
  C103     1.0000 0.19523  0.09762  0.62527  Biso   1.000  C
  C104     1.0000 0.17863  0.08932  0.50877  Biso   1.000  C
  H237     1.0000 0.21143  0.10572  0.46547  Biso   1.000  H
  C105     1.0000 0.14293  0.07147  0.69547  Biso   1.000  C
  H238     1.0000 0.15363  0.07682  0.76877  Biso   1.000  H
  C106     1.0000 0.20723  0.10362  0.10747  Biso   1.000  C
  C107     1.0000 0.19953  0.09977  0.22687  Biso   1.000  C
  H239     1.0000 0.23523  0.11762  0.26087  Biso   1.000  H
  C108     1.0000 0.15003  0.07502  0.05297  Biso   1.000  C
  H240     1.0000 0.15493  0.07747  0.97737  Biso   1.000  H
  Zn7      1.0000 0.53775  0.46225  0.19346  Biso   1.000  Zn
  C109     1.0000 0.56905  0.43095  0.95860  Biso   1.000  C
  C110     1.0000 0.57735  0.42265  0.84210  Biso   1.000  C
  H241     1.0000 0.56095  0.43905  0.79880  Biso   1.000  H
  C111     1.0000 0.59520  0.40480  0.02880  Biso   1.000  C
  H242     1.0000 0.58985  0.41015  0.10210  Biso   1.000  H
  C112     1.0000 0.56305  0.43695  0.44080  Biso   1.000  C
  C113     1.0000 0.56690  0.43310  0.56020  Biso   1.000  C
  H243     1.0000 0.54905  0.45095  0.59420  Biso   1.000  H
  C114     1.0000 0.59165  0.40835  0.38630  Biso   1.000  C
  H244     1.0000 0.58920  0.41080  0.31070  Biso   1.000  H
  Zn8      1.0000 0.20442  0.79558  0.52679  Biso   1.000  Zn
  C115     1.0000 0.23572  0.76428  0.29193  Biso   1.000  C
  C116     1.0000 0.24402  0.75598  0.17543  Biso   1.000  C
  H245     1.0000 0.22762  0.77238  0.13213  Biso   1.000  H
  C117     1.0000 0.26187  0.73813  0.36213  Biso   1.000  C
  H246     1.0000 0.25652  0.74348  0.43543  Biso   1.000  H
  C118     1.0000 0.22972  0.77028  0.77413  Biso   1.000  C
  C119     1.0000 0.23357  0.76643  0.89353  Biso   1.000  C
  H247     1.0000 0.21572  0.78428  0.92753  Biso   1.000  H
  C120     1.0000 0.25832  0.74168  0.71963  Biso   1.000  C
  H248     1.0000 0.25587  0.74413  0.64403  Biso   1.000  H
  Zn9      1.0000 0.87108  0.12892  0.86013  Biso   1.000  Zn
  C121     1.0000 0.90238  0.09762  0.62527  Biso   1.000  C
  C122     1.0000 0.91068  0.08932  0.50877  Biso   1.000  C
  H249     1.0000 0.89428  0.10572  0.46547  Biso   1.000  H
  C123     1.0000 0.92853  0.07147  0.69547  Biso   1.000  C
  H250     1.0000 0.92318  0.07682  0.76877  Biso   1.000  H
  C124     1.0000 0.89638  0.10362  0.10747  Biso   1.000  C
  C125     1.0000 0.90023  0.09977  0.22687  Biso   1.000  C
  H251     1.0000 0.88238  0.11762  0.26087  Biso   1.000  H
  C126     1.0000 0.92498  0.07502  0.05297  Biso   1.000  C
  H252     1.0000 0.92253  0.07747  0.97737  Biso   1.000  H
  Zn10     1.0000 0.07550  0.53775  0.80654  Biso   1.000  Zn
  C127     1.0000 0.13810  0.56905  0.04140  Biso   1.000  C
  C128     1.0000 0.15470  0.57735  0.15790  Biso   1.000  C
  H253     1.0000 0.12190  0.56095  0.20120  Biso   1.000  H
  C129     1.0000 0.19040  0.59520  0.97120  Biso   1.000  C
  H254     1.0000 0.17970  0.58985  0.89790  Biso   1.000  H
  C130     1.0000 0.12610  0.56305  0.55920  Biso   1.000  C
  C131     1.0000 0.13380  0.56690  0.43980  Biso   1.000  C
  H255     1.0000 0.09810  0.54905  0.40580  Biso   1.000  H
  C132     1.0000 0.18330  0.59165  0.61370  Biso   1.000  C
  H256     1.0000 0.17840  0.58920  0.68930  Biso   1.000  H
  Zn11     1.0000 0.74217  0.87108  0.13987  Biso   1.000  Zn
  C133     1.0000 0.80477  0.90238  0.37473  Biso   1.000  C
  C134     1.0000 0.82137  0.91068  0.49123  Biso   1.000  C
  H257     1.0000 0.78857  0.89428  0.53453  Biso   1.000  H
  C135     1.0000 0.85707  0.92853  0.30453  Biso   1.000  C
  H258     1.0000 0.84637  0.92318  0.23123  Biso   1.000  H
  C136     1.0000 0.79277  0.89638  0.89253  Biso   1.000  C
  C137     1.0000 0.80047  0.90023  0.77313  Biso   1.000  C
  H259     1.0000 0.76477  0.88238  0.73913  Biso   1.000  H
  C138     1.0000 0.84997  0.92498  0.94703  Biso   1.000  C
  H260     1.0000 0.84507  0.92253  0.02263  Biso   1.000  H
  Zn12     1.0000 0.40883  0.20442  0.47321  Biso   1.000  Zn
  C139     1.0000 0.47143  0.23572  0.70807  Biso   1.000  C
  C140     1.0000 0.48803  0.24402  0.82457  Biso   1.000  C
  H261     1.0000 0.45523  0.22762  0.86787  Biso   1.000  H
  C141     1.0000 0.52373  0.26187  0.63787  Biso   1.000  C
  H262     1.0000 0.51303  0.25652  0.56457  Biso   1.000  H
  C142     1.0000 0.45943  0.22972  0.22587  Biso   1.000  C
  C143     1.0000 0.46713  0.23357  0.10647  Biso   1.000  C
  H263     1.0000 0.43143  0.21572  0.07247  Biso   1.000  H
  C144     1.0000 0.51663  0.25832  0.28037  Biso   1.000  C
  H264     1.0000 0.51173  0.25587  0.35597  Biso   1.000  H
  Zn13     1.0000 0.46225  0.92450  0.80654  Biso   1.000  Zn
  C145     1.0000 0.43095  0.86190  0.04140  Biso   1.000  C
  C146     1.0000 0.42265  0.84530  0.15790  Biso   1.000  C
  H265     1.0000 0.43905  0.87810  0.20120  Biso   1.000  H
  C147     1.0000 0.40480  0.80960  0.97120  Biso   1.000  C
  H266     1.0000 0.41015  0.82030  0.89790  Biso   1.000  H
  C148     1.0000 0.43695  0.87390  0.55920  Biso   1.000  C
  C149     1.0000 0.43310  0.86620  0.43980  Biso   1.000  C
  H267     1.0000 0.45095  0.90190  0.40580  Biso   1.000  H
  C150     1.0000 0.40835  0.81670  0.61370  Biso   1.000  C
  H268     1.0000 0.41080  0.82160  0.68930  Biso   1.000  H
  Zn14     1.0000 0.12892  0.25783  0.13987  Biso   1.000  Zn
  C151     1.0000 0.09762  0.19523  0.37473  Biso   1.000  C
  C152     1.0000 0.08932  0.17863  0.49123  Biso   1.000  C
  H269     1.0000 0.10572  0.21143  0.53453  Biso   1.000  H
  C153     1.0000 0.07147  0.14293  0.30453  Biso   1.000  C
  H270     1.0000 0.07682  0.15363  0.23123  Biso   1.000  H
  C154     1.0000 0.10362  0.20723  0.89253  Biso   1.000  C
  C155     1.0000 0.09977  0.19953  0.77313  Biso   1.000  C
  H271     1.0000 0.11762  0.23523  0.73913  Biso   1.000  H
  C156     1.0000 0.07502  0.15003  0.94703  Biso   1.000  C
  H272     1.0000 0.07747  0.15493  0.02263  Biso   1.000  H
  Zn15     1.0000 0.79558  0.59117  0.47321  Biso   1.000  Zn
  C157     1.0000 0.76428  0.52857  0.70807  Biso   1.000  C
  C158     1.0000 0.75598  0.51197  0.82457  Biso   1.000  C
  H273     1.0000 0.77238  0.54477  0.86787  Biso   1.000  H
  C159     1.0000 0.73813  0.47627  0.63787  Biso   1.000  C
  H274     1.0000 0.74348  0.48697  0.56457  Biso   1.000  H
  C160     1.0000 0.77028  0.54057  0.22587  Biso   1.000  C
  C161     1.0000 0.76643  0.53287  0.10647  Biso   1.000  C
  H275     1.0000 0.78428  0.56857  0.07247  Biso   1.000  H
  C162     1.0000 0.74168  0.48337  0.28037  Biso   1.000  C
  H276     1.0000 0.74413  0.48827  0.35597  Biso   1.000  H
  Zn16     1.0000 0.46225  0.53775  0.80654  Biso   1.000  Zn
  C163     1.0000 0.43095  0.56905  0.04140  Biso   1.000  C
  C164     1.0000 0.42265  0.57735  0.15790  Biso   1.000  C
  H277     1.0000 0.43905  0.56095  0.20120  Biso   1.000  H
  C165     1.0000 0.40480  0.59520  0.97120  Biso   1.000  C
  H278     1.0000 0.41015  0.58985  0.89790  Biso   1.000  H
  C166     1.0000 0.43695  0.56305  0.55920  Biso   1.000  C
  C167     1.0000 0.43310  0.56690  0.43980  Biso   1.000  C
  H279     1.0000 0.45095  0.54905  0.40580  Biso   1.000  H
  C168     1.0000 0.40835  0.59165  0.61370  Biso   1.000  C
  H280     1.0000 0.41080  0.58920  0.68930  Biso   1.000  H
  Zn17     1.0000 0.12892  0.87108  0.13987  Biso   1.000  Zn
  C169     1.0000 0.09762  0.90238  0.37473  Biso   1.000  C
  C170     1.0000 0.08932  0.91068  0.49123  Biso   1.000  C
  H281     1.0000 0.10572  0.89428  0.53453  Biso   1.000  H
  C171     1.0000 0.07147  0.92853  0.30453  Biso   1.000  C
  H282     1.0000 0.07682  0.92318  0.23123  Biso   1.000  H
  C172     1.0000 0.10362  0.89638  0.89253  Biso   1.000  C
  C173     1.0000 0.09977  0.90023  0.77313  Biso   1.000  C
  H283     1.0000 0.11762  0.88238  0.73913  Biso   1.000  H
  C174     1.0000 0.07502  0.92498  0.94703  Biso   1.000  C
  H284     1.0000 0.07747  0.92253  0.02263  Biso   1.000  H
  Zn18     1.0000 0.79558  0.20442  0.47321  Biso   1.000  Zn
  C175     1.0000 0.76428  0.23572  0.70807  Biso   1.000  C
  C176     1.0000 0.75598  0.24402  0.82457  Biso   1.000  C
  H285     1.0000 0.77238  0.22762  0.86787  Biso   1.000  H
  C177     1.0000 0.73813  0.26187  0.63787  Biso   1.000  C
  H286     1.0000 0.74348  0.25652  0.56457  Biso   1.000  H
  C178     1.0000 0.77028  0.22972  0.22587  Biso   1.000  C
  C179     1.0000 0.76643  0.23357  0.10647  Biso   1.000  C
  H287     1.0000 0.78428  0.21572  0.07247  Biso   1.000  H
  C180     1.0000 0.74168  0.25832  0.28037  Biso   1.000  C
  H288     1.0000 0.74413  0.25587  0.35597  Biso   1.000  H
