data_image0
_cell_length_a       12.3418
_cell_length_b       21.655
_cell_length_c       34.182
_cell_angle_alpha    90
_cell_angle_beta     90
_cell_angle_gamma    90

_symmetry_space_group_name_H-M    "P 1"
_symmetry_int_tables_number       1

loop_
  _symmetry_equiv_pos_as_xyz
  'x, y, z'

loop_
  _atom_site_label
  _atom_site_occupancy
  _atom_site_fract_x
  _atom_site_fract_y
  _atom_site_fract_z
  _atom_site_thermal_displace_type
  _atom_site_B_iso_or_equiv
  _atom_site_type_symbol
  N1       1.0000 0.62670  0.19370  0.07949  Biso   1.000  N
  N2       1.0000 0.35850  0.22550  0.00199  Biso   1.000  N
  C1       1.0000 0.55890  0.18890  0.04940  Biso   1.000  C
  H1       1.0000 0.51120  0.15440  0.04880  Biso   1.000  H
  C2       1.0000 0.55340  0.23070  0.01895  Biso   1.000  C
  C3       1.0000 0.62540  0.28090  0.02010  Biso   1.000  C
  H2       1.0000 0.62680  0.31010  0.99940  Biso   1.000  H
  C4       1.0000 0.69340  0.28720  0.05140  Biso   1.000  C
  H3       1.0000 0.74080  0.32170  0.05310  Biso   1.000  H
  C5       1.0000 0.69260  0.24300  0.08050  Biso   1.000  C
  H4       1.0000 0.74050  0.24770  0.10200  Biso   1.000  H
  C6       1.0000 0.47230  0.22140  0.98690  Biso   1.000  C
  H5       1.0000 0.48380  0.18030  0.97480  Biso   1.000  H
  H6       1.0000 0.48330  0.25310  0.96640  Biso   1.000  H
  C7       1.0000 0.28200  0.20780  0.97070  Biso   1.000  C
  H7       1.0000 0.29790  0.16520  0.96190  Biso   1.000  H
  H8       1.0000 0.29110  0.23580  0.94800  Biso   1.000  H
  C8       1.0000 0.33380  0.28860  0.01450  Biso   1.000  C
  H9       1.0000 0.34330  0.31720  0.99220  Biso   1.000  H
  H10      1.0000 0.38440  0.30110  0.03550  Biso   1.000  H
  N3       1.0000 0.62670  0.69370  0.57949  Biso   1.000  N
  N4       1.0000 0.35850  0.72550  0.50199  Biso   1.000  N
  C9       1.0000 0.55890  0.68890  0.54940  Biso   1.000  C
  H11      1.0000 0.51120  0.65440  0.54880  Biso   1.000  H
  C10      1.0000 0.55340  0.73070  0.51895  Biso   1.000  C
  C11      1.0000 0.62540  0.78090  0.52010  Biso   1.000  C
  H12      1.0000 0.62680  0.81010  0.49940  Biso   1.000  H
  C12      1.0000 0.69340  0.78720  0.55140  Biso   1.000  C
  H13      1.0000 0.74080  0.82170  0.55310  Biso   1.000  H
  C13      1.0000 0.69260  0.74300  0.58050  Biso   1.000  C
  H14      1.0000 0.74050  0.74770  0.60200  Biso   1.000  H
  C14      1.0000 0.47230  0.72140  0.48690  Biso   1.000  C
  H15      1.0000 0.48380  0.68030  0.47480  Biso   1.000  H
  H16      1.0000 0.48330  0.75310  0.46640  Biso   1.000  H
  C15      1.0000 0.28200  0.70780  0.47070  Biso   1.000  C
  H17      1.0000 0.29790  0.66520  0.46190  Biso   1.000  H
  H18      1.0000 0.29110  0.73580  0.44800  Biso   1.000  H
  C16      1.0000 0.33380  0.78860  0.51450  Biso   1.000  C
  H19      1.0000 0.34330  0.81720  0.49220  Biso   1.000  H
  H20      1.0000 0.38440  0.80110  0.53550  Biso   1.000  H
  N5       1.0000 0.12670  0.19370  0.57949  Biso   1.000  N
  N6       1.0000 0.85850  0.22550  0.50199  Biso   1.000  N
  C17      1.0000 0.05890  0.18890  0.54940  Biso   1.000  C
  H21      1.0000 0.01120  0.15440  0.54880  Biso   1.000  H
  C18      1.0000 0.05340  0.23070  0.51895  Biso   1.000  C
  C19      1.0000 0.12540  0.28090  0.52010  Biso   1.000  C
  H22      1.0000 0.12680  0.31010  0.49940  Biso   1.000  H
  C20      1.0000 0.19340  0.28720  0.55140  Biso   1.000  C
  H23      1.0000 0.24080  0.32170  0.55310  Biso   1.000  H
  C21      1.0000 0.19260  0.24300  0.58050  Biso   1.000  C
  H24      1.0000 0.24050  0.24770  0.60200  Biso   1.000  H
  C22      1.0000 0.97230  0.22140  0.48690  Biso   1.000  C
  H25      1.0000 0.98380  0.18030  0.47480  Biso   1.000  H
  H26      1.0000 0.98330  0.25310  0.46640  Biso   1.000  H
  C23      1.0000 0.78200  0.20780  0.47070  Biso   1.000  C
  H27      1.0000 0.79790  0.16520  0.46190  Biso   1.000  H
  H28      1.0000 0.79110  0.23580  0.44800  Biso   1.000  H
  C24      1.0000 0.83380  0.28860  0.51450  Biso   1.000  C
  H29      1.0000 0.84330  0.31720  0.49220  Biso   1.000  H
  H30      1.0000 0.88440  0.30110  0.53550  Biso   1.000  H
  N7       1.0000 0.12670  0.69370  0.07949  Biso   1.000  N
  N8       1.0000 0.85850  0.72550  0.00199  Biso   1.000  N
  C25      1.0000 0.05890  0.68890  0.04940  Biso   1.000  C
  H31      1.0000 0.01120  0.65440  0.04880  Biso   1.000  H
  C26      1.0000 0.05340  0.73070  0.01895  Biso   1.000  C
  C27      1.0000 0.12540  0.78090  0.02010  Biso   1.000  C
  H32      1.0000 0.12680  0.81010  0.99940  Biso   1.000  H
  C28      1.0000 0.19340  0.78720  0.05140  Biso   1.000  C
  H33      1.0000 0.24080  0.82170  0.05310  Biso   1.000  H
  C29      1.0000 0.19260  0.74300  0.08050  Biso   1.000  C
  H34      1.0000 0.24050  0.74770  0.10200  Biso   1.000  H
  C30      1.0000 0.97230  0.72140  0.98690  Biso   1.000  C
  H35      1.0000 0.98380  0.68030  0.97480  Biso   1.000  H
  H36      1.0000 0.98330  0.75310  0.96640  Biso   1.000  H
  C31      1.0000 0.78200  0.70780  0.97070  Biso   1.000  C
  H37      1.0000 0.79790  0.66520  0.96190  Biso   1.000  H
  H38      1.0000 0.79110  0.73580  0.94800  Biso   1.000  H
  C32      1.0000 0.83380  0.78860  0.01450  Biso   1.000  C
  H39      1.0000 0.84330  0.81720  0.99220  Biso   1.000  H
  H40      1.0000 0.88440  0.80110  0.03550  Biso   1.000  H
  N9       1.0000 0.12330  0.55630  0.07949  Biso   1.000  N
  N10      1.0000 0.39150  0.52450  0.00199  Biso   1.000  N
  C33      1.0000 0.19110  0.56110  0.04940  Biso   1.000  C
  H41      1.0000 0.23880  0.59560  0.04880  Biso   1.000  H
  C34      1.0000 0.19660  0.51930  0.01895  Biso   1.000  C
  C35      1.0000 0.12460  0.46910  0.02010  Biso   1.000  C
  H42      1.0000 0.12320  0.43990  0.99940  Biso   1.000  H
  C36      1.0000 0.05660  0.46280  0.05140  Biso   1.000  C
  H43      1.0000 0.00920  0.42830  0.05310  Biso   1.000  H
  C37      1.0000 0.05740  0.50700  0.08050  Biso   1.000  C
  H44      1.0000 0.00950  0.50230  0.10200  Biso   1.000  H
  C38      1.0000 0.27770  0.52860  0.98690  Biso   1.000  C
  H45      1.0000 0.26620  0.56970  0.97480  Biso   1.000  H
  H46      1.0000 0.26670  0.49690  0.96640  Biso   1.000  H
  C39      1.0000 0.46800  0.54220  0.97070  Biso   1.000  C
  H47      1.0000 0.45210  0.58480  0.96190  Biso   1.000  H
  H48      1.0000 0.45890  0.51420  0.94800  Biso   1.000  H
  C40      1.0000 0.41620  0.46140  0.01450  Biso   1.000  C
  H49      1.0000 0.40670  0.43280  0.99220  Biso   1.000  H
  H50      1.0000 0.36560  0.44890  0.03550  Biso   1.000  H
  N11      1.0000 0.12330  0.05630  0.57949  Biso   1.000  N
  N12      1.0000 0.39150  0.02450  0.50199  Biso   1.000  N
  C41      1.0000 0.19110  0.06110  0.54940  Biso   1.000  C
  H51      1.0000 0.23880  0.09560  0.54880  Biso   1.000  H
  C42      1.0000 0.19660  0.01930  0.51895  Biso   1.000  C
  C43      1.0000 0.12460  0.96910  0.52010  Biso   1.000  C
  H52      1.0000 0.12320  0.93990  0.49940  Biso   1.000  H
  C44      1.0000 0.05660  0.96280  0.55140  Biso   1.000  C
  H53      1.0000 0.00920  0.92830  0.55310  Biso   1.000  H
  C45      1.0000 0.05740  0.00700  0.58050  Biso   1.000  C
  H54      1.0000 0.00950  0.00230  0.60200  Biso   1.000  H
  C46      1.0000 0.27770  0.02860  0.48690  Biso   1.000  C
  H55      1.0000 0.26620  0.06970  0.47480  Biso   1.000  H
  H56      1.0000 0.26670  0.99690  0.46640  Biso   1.000  H
  C47      1.0000 0.46800  0.04220  0.47070  Biso   1.000  C
  H57      1.0000 0.45210  0.08480  0.46190  Biso   1.000  H
  H58      1.0000 0.45890  0.01420  0.44800  Biso   1.000  H
  C48      1.0000 0.41620  0.96140  0.51450  Biso   1.000  C
  H59      1.0000 0.40670  0.93280  0.49220  Biso   1.000  H
  H60      1.0000 0.36560  0.94890  0.53550  Biso   1.000  H
  N13      1.0000 0.62330  0.55630  0.57949  Biso   1.000  N
  N14      1.0000 0.89150  0.52450  0.50199  Biso   1.000  N
  C49      1.0000 0.69110  0.56110  0.54940  Biso   1.000  C
  H61      1.0000 0.73880  0.59560  0.54880  Biso   1.000  H
  C50      1.0000 0.69660  0.51930  0.51895  Biso   1.000  C
  C51      1.0000 0.62460  0.46910  0.52010  Biso   1.000  C
  H62      1.0000 0.62320  0.43990  0.49940  Biso   1.000  H
  C52      1.0000 0.55660  0.46280  0.55140  Biso   1.000  C
  H63      1.0000 0.50920  0.42830  0.55310  Biso   1.000  H
  C53      1.0000 0.55740  0.50700  0.58050  Biso   1.000  C
  H64      1.0000 0.50950  0.50230  0.60200  Biso   1.000  H
  C54      1.0000 0.77770  0.52860  0.48690  Biso   1.000  C
  H65      1.0000 0.76620  0.56970  0.47480  Biso   1.000  H
  H66      1.0000 0.76670  0.49690  0.46640  Biso   1.000  H
  C55      1.0000 0.96800  0.54220  0.47070  Biso   1.000  C
  H67      1.0000 0.95210  0.58480  0.46190  Biso   1.000  H
  H68      1.0000 0.95890  0.51420  0.44800  Biso   1.000  H
  C56      1.0000 0.91620  0.46140  0.51450  Biso   1.000  C
  H69      1.0000 0.90670  0.43280  0.49220  Biso   1.000  H
  H70      1.0000 0.86560  0.44890  0.53550  Biso   1.000  H
  N15      1.0000 0.62330  0.05630  0.07949  Biso   1.000  N
  N16      1.0000 0.89150  0.02450  0.00199  Biso   1.000  N
  C57      1.0000 0.69110  0.06110  0.04940  Biso   1.000  C
  H71      1.0000 0.73880  0.09560  0.04880  Biso   1.000  H
  C58      1.0000 0.69660  0.01930  0.01895  Biso   1.000  C
  C59      1.0000 0.62460  0.96910  0.02010  Biso   1.000  C
  H72      1.0000 0.62320  0.93990  0.99940  Biso   1.000  H
  C60      1.0000 0.55660  0.96280  0.05140  Biso   1.000  C
  H73      1.0000 0.50920  0.92830  0.05310  Biso   1.000  H
  C61      1.0000 0.55740  0.00700  0.08050  Biso   1.000  C
  H74      1.0000 0.50950  0.00230  0.10200  Biso   1.000  H
  C62      1.0000 0.77770  0.02860  0.98690  Biso   1.000  C
  H75      1.0000 0.76620  0.06970  0.97480  Biso   1.000  H
  H76      1.0000 0.76670  0.99690  0.96640  Biso   1.000  H
  C63      1.0000 0.96800  0.04220  0.97070  Biso   1.000  C
  H77      1.0000 0.95210  0.08480  0.96190  Biso   1.000  H
  H78      1.0000 0.95890  0.01420  0.94800  Biso   1.000  H
  C64      1.0000 0.91620  0.96140  0.01450  Biso   1.000  C
  H79      1.0000 0.90670  0.93280  0.99220  Biso   1.000  H
  H80      1.0000 0.86560  0.94890  0.03550  Biso   1.000  H
  N17      1.0000 0.12330  0.19370  0.67051  Biso   1.000  N
  N18      1.0000 0.39150  0.22550  0.74801  Biso   1.000  N
  C65      1.0000 0.19110  0.18890  0.70060  Biso   1.000  C
  H81      1.0000 0.23880  0.15440  0.70120  Biso   1.000  H
  C66      1.0000 0.19660  0.23070  0.73105  Biso   1.000  C
  C67      1.0000 0.12460  0.28090  0.72990  Biso   1.000  C
  H82      1.0000 0.12320  0.31010  0.75060  Biso   1.000  H
  C68      1.0000 0.05660  0.28720  0.69860  Biso   1.000  C
  H83      1.0000 0.00920  0.32170  0.69690  Biso   1.000  H
  C69      1.0000 0.05740  0.24300  0.66950  Biso   1.000  C
  H84      1.0000 0.00950  0.24770  0.64800  Biso   1.000  H
  C70      1.0000 0.27770  0.22140  0.76310  Biso   1.000  C
  H85      1.0000 0.26620  0.18030  0.77520  Biso   1.000  H
  H86      1.0000 0.26670  0.25310  0.78360  Biso   1.000  H
  C71      1.0000 0.46800  0.20780  0.77930  Biso   1.000  C
  H87      1.0000 0.45210  0.16520  0.78810  Biso   1.000  H
  H88      1.0000 0.45890  0.23580  0.80200  Biso   1.000  H
  C72      1.0000 0.41620  0.28860  0.73550  Biso   1.000  C
  H89      1.0000 0.40670  0.31720  0.75780  Biso   1.000  H
  H90      1.0000 0.36560  0.30110  0.71450  Biso   1.000  H
  N19      1.0000 0.12330  0.69370  0.17051  Biso   1.000  N
  N20      1.0000 0.39150  0.72550  0.24801  Biso   1.000  N
  C73      1.0000 0.19110  0.68890  0.20060  Biso   1.000  C
  H91      1.0000 0.23880  0.65440  0.20120  Biso   1.000  H
  C74      1.0000 0.19660  0.73070  0.23105  Biso   1.000  C
  C75      1.0000 0.12460  0.78090  0.22990  Biso   1.000  C
  H92      1.0000 0.12320  0.81010  0.25060  Biso   1.000  H
  C76      1.0000 0.05660  0.78720  0.19860  Biso   1.000  C
  H93      1.0000 0.00920  0.82170  0.19690  Biso   1.000  H
  C77      1.0000 0.05740  0.74300  0.16950  Biso   1.000  C
  H94      1.0000 0.00950  0.74770  0.14800  Biso   1.000  H
  C78      1.0000 0.27770  0.72140  0.26310  Biso   1.000  C
  H95      1.0000 0.26620  0.68030  0.27520  Biso   1.000  H
  H96      1.0000 0.26670  0.75310  0.28360  Biso   1.000  H
  C79      1.0000 0.46800  0.70780  0.27930  Biso   1.000  C
  H97      1.0000 0.45210  0.66520  0.28810  Biso   1.000  H
  H98      1.0000 0.45890  0.73580  0.30200  Biso   1.000  H
  C80      1.0000 0.41620  0.78860  0.23550  Biso   1.000  C
  H99      1.0000 0.40670  0.81720  0.25780  Biso   1.000  H
  H100     1.0000 0.36560  0.80110  0.21450  Biso   1.000  H
  N21      1.0000 0.62330  0.19370  0.17051  Biso   1.000  N
  N22      1.0000 0.89150  0.22550  0.24801  Biso   1.000  N
  C81      1.0000 0.69110  0.18890  0.20060  Biso   1.000  C
  H101     1.0000 0.73880  0.15440  0.20120  Biso   1.000  H
  C82      1.0000 0.69660  0.23070  0.23105  Biso   1.000  C
  C83      1.0000 0.62460  0.28090  0.22990  Biso   1.000  C
  H102     1.0000 0.62320  0.31010  0.25060  Biso   1.000  H
  C84      1.0000 0.55660  0.28720  0.19860  Biso   1.000  C
  H103     1.0000 0.50920  0.32170  0.19690  Biso   1.000  H
  C85      1.0000 0.55740  0.24300  0.16950  Biso   1.000  C
  H104     1.0000 0.50950  0.24770  0.14800  Biso   1.000  H
  C86      1.0000 0.77770  0.22140  0.26310  Biso   1.000  C
  H105     1.0000 0.76620  0.18030  0.27520  Biso   1.000  H
  H106     1.0000 0.76670  0.25310  0.28360  Biso   1.000  H
  C87      1.0000 0.96800  0.20780  0.27930  Biso   1.000  C
  H107     1.0000 0.95210  0.16520  0.28810  Biso   1.000  H
  H108     1.0000 0.95890  0.23580  0.30200  Biso   1.000  H
  C88      1.0000 0.91620  0.28860  0.23550  Biso   1.000  C
  H109     1.0000 0.90670  0.31720  0.25780  Biso   1.000  H
  H110     1.0000 0.86560  0.30110  0.21450  Biso   1.000  H
  N23      1.0000 0.62330  0.69370  0.67051  Biso   1.000  N
  N24      1.0000 0.89150  0.72550  0.74801  Biso   1.000  N
  C89      1.0000 0.69110  0.68890  0.70060  Biso   1.000  C
  H111     1.0000 0.73880  0.65440  0.70120  Biso   1.000  H
  C90      1.0000 0.69660  0.73070  0.73105  Biso   1.000  C
  C91      1.0000 0.62460  0.78090  0.72990  Biso   1.000  C
  H112     1.0000 0.62320  0.81010  0.75060  Biso   1.000  H
  C92      1.0000 0.55660  0.78720  0.69860  Biso   1.000  C
  H113     1.0000 0.50920  0.82170  0.69690  Biso   1.000  H
  C93      1.0000 0.55740  0.74300  0.66950  Biso   1.000  C
  H114     1.0000 0.50950  0.74770  0.64800  Biso   1.000  H
  C94      1.0000 0.77770  0.72140  0.76310  Biso   1.000  C
  H115     1.0000 0.76620  0.68030  0.77520  Biso   1.000  H
  H116     1.0000 0.76670  0.75310  0.78360  Biso   1.000  H
  C95      1.0000 0.96800  0.70780  0.77930  Biso   1.000  C
  H117     1.0000 0.95210  0.66520  0.78810  Biso   1.000  H
  H118     1.0000 0.95890  0.73580  0.80200  Biso   1.000  H
  C96      1.0000 0.91620  0.78860  0.73550  Biso   1.000  C
  H119     1.0000 0.90670  0.81720  0.75780  Biso   1.000  H
  H120     1.0000 0.86560  0.80110  0.71450  Biso   1.000  H
  N25      1.0000 0.62670  0.55630  0.67051  Biso   1.000  N
  N26      1.0000 0.35850  0.52450  0.74801  Biso   1.000  N
  C97      1.0000 0.55890  0.56110  0.70060  Biso   1.000  C
  H121     1.0000 0.51120  0.59560  0.70120  Biso   1.000  H
  C98      1.0000 0.55340  0.51930  0.73105  Biso   1.000  C
  C99      1.0000 0.62540  0.46910  0.72990  Biso   1.000  C
  H122     1.0000 0.62680  0.43990  0.75060  Biso   1.000  H
  C100     1.0000 0.69340  0.46280  0.69860  Biso   1.000  C
  H123     1.0000 0.74080  0.42830  0.69690  Biso   1.000  H
  C101     1.0000 0.69260  0.50700  0.66950  Biso   1.000  C
  H124     1.0000 0.74050  0.50230  0.64800  Biso   1.000  H
  C102     1.0000 0.47230  0.52860  0.76310  Biso   1.000  C
  H125     1.0000 0.48380  0.56970  0.77520  Biso   1.000  H
  H126     1.0000 0.48330  0.49690  0.78360  Biso   1.000  H
  C103     1.0000 0.28200  0.54220  0.77930  Biso   1.000  C
  H127     1.0000 0.29790  0.58480  0.78810  Biso   1.000  H
  H128     1.0000 0.29110  0.51420  0.80200  Biso   1.000  H
  C104     1.0000 0.33380  0.46140  0.73550  Biso   1.000  C
  H129     1.0000 0.34330  0.43280  0.75780  Biso   1.000  H
  H130     1.0000 0.38440  0.44890  0.71450  Biso   1.000  H
  N27      1.0000 0.62670  0.05630  0.17051  Biso   1.000  N
  N28      1.0000 0.35850  0.02450  0.24801  Biso   1.000  N
  C105     1.0000 0.55890  0.06110  0.20060  Biso   1.000  C
  H131     1.0000 0.51120  0.09560  0.20120  Biso   1.000  H
  C106     1.0000 0.55340  0.01930  0.23105  Biso   1.000  C
  C107     1.0000 0.62540  0.96910  0.22990  Biso   1.000  C
  H132     1.0000 0.62680  0.93990  0.25060  Biso   1.000  H
  C108     1.0000 0.69340  0.96280  0.19860  Biso   1.000  C
  H133     1.0000 0.74080  0.92830  0.19690  Biso   1.000  H
  C109     1.0000 0.69260  0.00700  0.16950  Biso   1.000  C
  H134     1.0000 0.74050  0.00230  0.14800  Biso   1.000  H
  C110     1.0000 0.47230  0.02860  0.26310  Biso   1.000  C
  H135     1.0000 0.48380  0.06970  0.27520  Biso   1.000  H
  H136     1.0000 0.48330  0.99690  0.28360  Biso   1.000  H
  C111     1.0000 0.28200  0.04220  0.27930  Biso   1.000  C
  H137     1.0000 0.29790  0.08480  0.28810  Biso   1.000  H
  H138     1.0000 0.29110  0.01420  0.30200  Biso   1.000  H
  C112     1.0000 0.33380  0.96140  0.23550  Biso   1.000  C
  H139     1.0000 0.34330  0.93280  0.25780  Biso   1.000  H
  H140     1.0000 0.38440  0.94890  0.21450  Biso   1.000  H
  N29      1.0000 0.12670  0.55630  0.17051  Biso   1.000  N
  N30      1.0000 0.85850  0.52450  0.24801  Biso   1.000  N
  C113     1.0000 0.05890  0.56110  0.20060  Biso   1.000  C
  H141     1.0000 0.01120  0.59560  0.20120  Biso   1.000  H
  C114     1.0000 0.05340  0.51930  0.23105  Biso   1.000  C
  C115     1.0000 0.12540  0.46910  0.22990  Biso   1.000  C
  H142     1.0000 0.12680  0.43990  0.25060  Biso   1.000  H
  C116     1.0000 0.19340  0.46280  0.19860  Biso   1.000  C
  H143     1.0000 0.24080  0.42830  0.19690  Biso   1.000  H
  C117     1.0000 0.19260  0.50700  0.16950  Biso   1.000  C
  H144     1.0000 0.24050  0.50230  0.14800  Biso   1.000  H
  C118     1.0000 0.97230  0.52860  0.26310  Biso   1.000  C
  H145     1.0000 0.98380  0.56970  0.27520  Biso   1.000  H
  H146     1.0000 0.98330  0.49690  0.28360  Biso   1.000  H
  C119     1.0000 0.78200  0.54220  0.27930  Biso   1.000  C
  H147     1.0000 0.79790  0.58480  0.28810  Biso   1.000  H
  H148     1.0000 0.79110  0.51420  0.30200  Biso   1.000  H
  C120     1.0000 0.83380  0.46140  0.23550  Biso   1.000  C
  H149     1.0000 0.84330  0.43280  0.25780  Biso   1.000  H
  H150     1.0000 0.88440  0.44890  0.21450  Biso   1.000  H
  N31      1.0000 0.12670  0.05630  0.67051  Biso   1.000  N
  N32      1.0000 0.85850  0.02450  0.74801  Biso   1.000  N
  C121     1.0000 0.05890  0.06110  0.70060  Biso   1.000  C
  H151     1.0000 0.01120  0.09560  0.70120  Biso   1.000  H
  C122     1.0000 0.05340  0.01930  0.73105  Biso   1.000  C
  C123     1.0000 0.12540  0.96910  0.72990  Biso   1.000  C
  H152     1.0000 0.12680  0.93990  0.75060  Biso   1.000  H
  C124     1.0000 0.19340  0.96280  0.69860  Biso   1.000  C
  H153     1.0000 0.24080  0.92830  0.69690  Biso   1.000  H
  C125     1.0000 0.19260  0.00700  0.66950  Biso   1.000  C
  H154     1.0000 0.24050  0.00230  0.64800  Biso   1.000  H
  C126     1.0000 0.97230  0.02860  0.76310  Biso   1.000  C
  H155     1.0000 0.98380  0.06970  0.77520  Biso   1.000  H
  H156     1.0000 0.98330  0.99690  0.78360  Biso   1.000  H
  C127     1.0000 0.78200  0.04220  0.77930  Biso   1.000  C
  H157     1.0000 0.79790  0.08480  0.78810  Biso   1.000  H
  H158     1.0000 0.79110  0.01420  0.80200  Biso   1.000  H
  C128     1.0000 0.83380  0.96140  0.73550  Biso   1.000  C
  H159     1.0000 0.84330  0.93280  0.75780  Biso   1.000  H
  H160     1.0000 0.88440  0.94890  0.71450  Biso   1.000  H
  N33      1.0000 0.37330  0.80630  0.92051  Biso   1.000  N
  N34      1.0000 0.64150  0.77450  0.99801  Biso   1.000  N
  C129     1.0000 0.44110  0.81110  0.95060  Biso   1.000  C
  H161     1.0000 0.48880  0.84560  0.95120  Biso   1.000  H
  C130     1.0000 0.44660  0.76930  0.98105  Biso   1.000  C
  C131     1.0000 0.37460  0.71910  0.97990  Biso   1.000  C
  H162     1.0000 0.37320  0.68990  0.00060  Biso   1.000  H
  C132     1.0000 0.30660  0.71280  0.94860  Biso   1.000  C
  H163     1.0000 0.25920  0.67830  0.94690  Biso   1.000  H
  C133     1.0000 0.30740  0.75700  0.91950  Biso   1.000  C
  H164     1.0000 0.25950  0.75230  0.89800  Biso   1.000  H
  C134     1.0000 0.52770  0.77860  0.01310  Biso   1.000  C
  H165     1.0000 0.51620  0.81970  0.02520  Biso   1.000  H
  H166     1.0000 0.51670  0.74690  0.03360  Biso   1.000  H
  C135     1.0000 0.71800  0.79220  0.02930  Biso   1.000  C
  H167     1.0000 0.70210  0.83480  0.03810  Biso   1.000  H
  H168     1.0000 0.70890  0.76420  0.05200  Biso   1.000  H
  C136     1.0000 0.66620  0.71140  0.98550  Biso   1.000  C
  H169     1.0000 0.65670  0.68280  0.00780  Biso   1.000  H
  H170     1.0000 0.61560  0.69890  0.96450  Biso   1.000  H
  N35      1.0000 0.37330  0.30630  0.42051  Biso   1.000  N
  N36      1.0000 0.64150  0.27450  0.49801  Biso   1.000  N
  C137     1.0000 0.44110  0.31110  0.45060  Biso   1.000  C
  H171     1.0000 0.48880  0.34560  0.45120  Biso   1.000  H
  C138     1.0000 0.44660  0.26930  0.48105  Biso   1.000  C
  C139     1.0000 0.37460  0.21910  0.47990  Biso   1.000  C
  H172     1.0000 0.37320  0.18990  0.50060  Biso   1.000  H
  C140     1.0000 0.30660  0.21280  0.44860  Biso   1.000  C
  H173     1.0000 0.25920  0.17830  0.44690  Biso   1.000  H
  C141     1.0000 0.30740  0.25700  0.41950  Biso   1.000  C
  H174     1.0000 0.25950  0.25230  0.39800  Biso   1.000  H
  C142     1.0000 0.52770  0.27860  0.51310  Biso   1.000  C
  H175     1.0000 0.51620  0.31970  0.52520  Biso   1.000  H
  H176     1.0000 0.51670  0.24690  0.53360  Biso   1.000  H
  C143     1.0000 0.71800  0.29220  0.52930  Biso   1.000  C
  H177     1.0000 0.70210  0.33480  0.53810  Biso   1.000  H
  H178     1.0000 0.70890  0.26420  0.55200  Biso   1.000  H
  C144     1.0000 0.66620  0.21140  0.48550  Biso   1.000  C
  H179     1.0000 0.65670  0.18280  0.50780  Biso   1.000  H
  H180     1.0000 0.61560  0.19890  0.46450  Biso   1.000  H
  N37      1.0000 0.87330  0.80630  0.42051  Biso   1.000  N
  N38      1.0000 0.14150  0.77450  0.49801  Biso   1.000  N
  C145     1.0000 0.94110  0.81110  0.45060  Biso   1.000  C
  H181     1.0000 0.98880  0.84560  0.45120  Biso   1.000  H
  C146     1.0000 0.94660  0.76930  0.48105  Biso   1.000  C
  C147     1.0000 0.87460  0.71910  0.47990  Biso   1.000  C
  H182     1.0000 0.87320  0.68990  0.50060  Biso   1.000  H
  C148     1.0000 0.80660  0.71280  0.44860  Biso   1.000  C
  H183     1.0000 0.75920  0.67830  0.44690  Biso   1.000  H
  C149     1.0000 0.80740  0.75700  0.41950  Biso   1.000  C
  H184     1.0000 0.75950  0.75230  0.39800  Biso   1.000  H
  C150     1.0000 0.02770  0.77860  0.51310  Biso   1.000  C
  H185     1.0000 0.01620  0.81970  0.52520  Biso   1.000  H
  H186     1.0000 0.01670  0.74690  0.53360  Biso   1.000  H
  C151     1.0000 0.21800  0.79220  0.52930  Biso   1.000  C
  H187     1.0000 0.20210  0.83480  0.53810  Biso   1.000  H
  H188     1.0000 0.20890  0.76420  0.55200  Biso   1.000  H
  C152     1.0000 0.16620  0.71140  0.48550  Biso   1.000  C
  H189     1.0000 0.15670  0.68280  0.50780  Biso   1.000  H
  H190     1.0000 0.11560  0.69890  0.46450  Biso   1.000  H
  N39      1.0000 0.87330  0.30630  0.92051  Biso   1.000  N
  N40      1.0000 0.14150  0.27450  0.99801  Biso   1.000  N
  C153     1.0000 0.94110  0.31110  0.95060  Biso   1.000  C
  H191     1.0000 0.98880  0.34560  0.95120  Biso   1.000  H
  C154     1.0000 0.94660  0.26930  0.98105  Biso   1.000  C
  C155     1.0000 0.87460  0.21910  0.97990  Biso   1.000  C
  H192     1.0000 0.87320  0.18990  0.00060  Biso   1.000  H
  C156     1.0000 0.80660  0.21280  0.94860  Biso   1.000  C
  H193     1.0000 0.75920  0.17830  0.94690  Biso   1.000  H
  C157     1.0000 0.80740  0.25700  0.91950  Biso   1.000  C
  H194     1.0000 0.75950  0.25230  0.89800  Biso   1.000  H
  C158     1.0000 0.02770  0.27860  0.01310  Biso   1.000  C
  H195     1.0000 0.01620  0.31970  0.02520  Biso   1.000  H
  H196     1.0000 0.01670  0.24690  0.03360  Biso   1.000  H
  C159     1.0000 0.21800  0.29220  0.02930  Biso   1.000  C
  H197     1.0000 0.20210  0.33480  0.03810  Biso   1.000  H
  H198     1.0000 0.20890  0.26420  0.05200  Biso   1.000  H
  C160     1.0000 0.16620  0.21140  0.98550  Biso   1.000  C
  H199     1.0000 0.15670  0.18280  0.00780  Biso   1.000  H
  H200     1.0000 0.11560  0.19890  0.96450  Biso   1.000  H
  N41      1.0000 0.87670  0.44370  0.92051  Biso   1.000  N
  N42      1.0000 0.60850  0.47550  0.99801  Biso   1.000  N
  C161     1.0000 0.80890  0.43890  0.95060  Biso   1.000  C
  H201     1.0000 0.76120  0.40440  0.95120  Biso   1.000  H
  C162     1.0000 0.80340  0.48070  0.98105  Biso   1.000  C
  C163     1.0000 0.87540  0.53090  0.97990  Biso   1.000  C
  H202     1.0000 0.87680  0.56010  0.00060  Biso   1.000  H
  C164     1.0000 0.94340  0.53720  0.94860  Biso   1.000  C
  H203     1.0000 0.99080  0.57170  0.94690  Biso   1.000  H
  C165     1.0000 0.94260  0.49300  0.91950  Biso   1.000  C
  H204     1.0000 0.99050  0.49770  0.89800  Biso   1.000  H
  C166     1.0000 0.72230  0.47140  0.01310  Biso   1.000  C
  H205     1.0000 0.73380  0.43030  0.02520  Biso   1.000  H
  H206     1.0000 0.73330  0.50310  0.03360  Biso   1.000  H
  C167     1.0000 0.53200  0.45780  0.02930  Biso   1.000  C
  H207     1.0000 0.54790  0.41520  0.03810  Biso   1.000  H
  H208     1.0000 0.54110  0.48580  0.05200  Biso   1.000  H
  C168     1.0000 0.58380  0.53860  0.98550  Biso   1.000  C
  H209     1.0000 0.59330  0.56720  0.00780  Biso   1.000  H
  H210     1.0000 0.63440  0.55110  0.96450  Biso   1.000  H
  N43      1.0000 0.87670  0.94370  0.42051  Biso   1.000  N
  N44      1.0000 0.60850  0.97550  0.49801  Biso   1.000  N
  C169     1.0000 0.80890  0.93890  0.45060  Biso   1.000  C
  H211     1.0000 0.76120  0.90440  0.45120  Biso   1.000  H
  C170     1.0000 0.80340  0.98070  0.48105  Biso   1.000  C
  C171     1.0000 0.87540  0.03090  0.47990  Biso   1.000  C
  H212     1.0000 0.87680  0.06010  0.50060  Biso   1.000  H
  C172     1.0000 0.94340  0.03720  0.44860  Biso   1.000  C
  H213     1.0000 0.99080  0.07170  0.44690  Biso   1.000  H
  C173     1.0000 0.94260  0.99300  0.41950  Biso   1.000  C
  H214     1.0000 0.99050  0.99770  0.39800  Biso   1.000  H
  C174     1.0000 0.72230  0.97140  0.51310  Biso   1.000  C
  H215     1.0000 0.73380  0.93030  0.52520  Biso   1.000  H
  H216     1.0000 0.73330  0.00310  0.53360  Biso   1.000  H
  C175     1.0000 0.53200  0.95780  0.52930  Biso   1.000  C
  H217     1.0000 0.54790  0.91520  0.53810  Biso   1.000  H
  H218     1.0000 0.54110  0.98580  0.55200  Biso   1.000  H
  C176     1.0000 0.58380  0.03860  0.48550  Biso   1.000  C
  H219     1.0000 0.59330  0.06720  0.50780  Biso   1.000  H
  H220     1.0000 0.63440  0.05110  0.46450  Biso   1.000  H
  N45      1.0000 0.37670  0.44370  0.42051  Biso   1.000  N
  N46      1.0000 0.10850  0.47550  0.49801  Biso   1.000  N
  C177     1.0000 0.30890  0.43890  0.45060  Biso   1.000  C
  H221     1.0000 0.26120  0.40440  0.45120  Biso   1.000  H
  C178     1.0000 0.30340  0.48070  0.48105  Biso   1.000  C
  C179     1.0000 0.37540  0.53090  0.47990  Biso   1.000  C
  H222     1.0000 0.37680  0.56010  0.50060  Biso   1.000  H
  C180     1.0000 0.44340  0.53720  0.44860  Biso   1.000  C
  H223     1.0000 0.49080  0.57170  0.44690  Biso   1.000  H
  C181     1.0000 0.44260  0.49300  0.41950  Biso   1.000  C
  H224     1.0000 0.49050  0.49770  0.39800  Biso   1.000  H
  C182     1.0000 0.22230  0.47140  0.51310  Biso   1.000  C
  H225     1.0000 0.23380  0.43030  0.52520  Biso   1.000  H
  H226     1.0000 0.23330  0.50310  0.53360  Biso   1.000  H
  C183     1.0000 0.03200  0.45780  0.52930  Biso   1.000  C
  H227     1.0000 0.04790  0.41520  0.53810  Biso   1.000  H
  H228     1.0000 0.04110  0.48580  0.55200  Biso   1.000  H
  C184     1.0000 0.08380  0.53860  0.48550  Biso   1.000  C
  H229     1.0000 0.09330  0.56720  0.50780  Biso   1.000  H
  H230     1.0000 0.13440  0.55110  0.46450  Biso   1.000  H
  N47      1.0000 0.37670  0.94370  0.92051  Biso   1.000  N
  N48      1.0000 0.10850  0.97550  0.99801  Biso   1.000  N
  C185     1.0000 0.30890  0.93890  0.95060  Biso   1.000  C
  H231     1.0000 0.26120  0.90440  0.95120  Biso   1.000  H
  C186     1.0000 0.30340  0.98070  0.98105  Biso   1.000  C
  C187     1.0000 0.37540  0.03090  0.97990  Biso   1.000  C
  H232     1.0000 0.37680  0.06010  0.00060  Biso   1.000  H
  C188     1.0000 0.44340  0.03720  0.94860  Biso   1.000  C
  H233     1.0000 0.49080  0.07170  0.94690  Biso   1.000  H
  C189     1.0000 0.44260  0.99300  0.91950  Biso   1.000  C
  H234     1.0000 0.49050  0.99770  0.89800  Biso   1.000  H
  C190     1.0000 0.22230  0.97140  0.01310  Biso   1.000  C
  H235     1.0000 0.23380  0.93030  0.02520  Biso   1.000  H
  H236     1.0000 0.23330  0.00310  0.03360  Biso   1.000  H
  C191     1.0000 0.03200  0.95780  0.02930  Biso   1.000  C
  H237     1.0000 0.04790  0.91520  0.03810  Biso   1.000  H
  H238     1.0000 0.04110  0.98580  0.05200  Biso   1.000  H
  C192     1.0000 0.08380  0.03860  0.98550  Biso   1.000  C
  H239     1.0000 0.09330  0.06720  0.00780  Biso   1.000  H
  H240     1.0000 0.13440  0.05110  0.96450  Biso   1.000  H
  N49      1.0000 0.87670  0.80630  0.32949  Biso   1.000  N
  N50      1.0000 0.60850  0.77450  0.25199  Biso   1.000  N
  C193     1.0000 0.80890  0.81110  0.29940  Biso   1.000  C
  H241     1.0000 0.76120  0.84560  0.29880  Biso   1.000  H
  C194     1.0000 0.80340  0.76930  0.26895  Biso   1.000  C
  C195     1.0000 0.87540  0.71910  0.27010  Biso   1.000  C
  H242     1.0000 0.87680  0.68990  0.24940  Biso   1.000  H
  C196     1.0000 0.94340  0.71280  0.30140  Biso   1.000  C
  H243     1.0000 0.99080  0.67830  0.30310  Biso   1.000  H
  C197     1.0000 0.94260  0.75700  0.33050  Biso   1.000  C
  H244     1.0000 0.99050  0.75230  0.35200  Biso   1.000  H
  C198     1.0000 0.72230  0.77860  0.23690  Biso   1.000  C
  H245     1.0000 0.73380  0.81970  0.22480  Biso   1.000  H
  H246     1.0000 0.73330  0.74690  0.21640  Biso   1.000  H
  C199     1.0000 0.53200  0.79220  0.22070  Biso   1.000  C
  H247     1.0000 0.54790  0.83480  0.21190  Biso   1.000  H
  H248     1.0000 0.54110  0.76420  0.19800  Biso   1.000  H
  C200     1.0000 0.58380  0.71140  0.26450  Biso   1.000  C
  H249     1.0000 0.59330  0.68280  0.24220  Biso   1.000  H
  H250     1.0000 0.63440  0.69890  0.28550  Biso   1.000  H
  N51      1.0000 0.87670  0.30630  0.82949  Biso   1.000  N
  N52      1.0000 0.60850  0.27450  0.75199  Biso   1.000  N
  C201     1.0000 0.80890  0.31110  0.79940  Biso   1.000  C
  H251     1.0000 0.76120  0.34560  0.79880  Biso   1.000  H
  C202     1.0000 0.80340  0.26930  0.76895  Biso   1.000  C
  C203     1.0000 0.87540  0.21910  0.77010  Biso   1.000  C
  H252     1.0000 0.87680  0.18990  0.74940  Biso   1.000  H
  C204     1.0000 0.94340  0.21280  0.80140  Biso   1.000  C
  H253     1.0000 0.99080  0.17830  0.80310  Biso   1.000  H
  C205     1.0000 0.94260  0.25700  0.83050  Biso   1.000  C
  H254     1.0000 0.99050  0.25230  0.85200  Biso   1.000  H
  C206     1.0000 0.72230  0.27860  0.73690  Biso   1.000  C
  H255     1.0000 0.73380  0.31970  0.72480  Biso   1.000  H
  H256     1.0000 0.73330  0.24690  0.71640  Biso   1.000  H
  C207     1.0000 0.53200  0.29220  0.72070  Biso   1.000  C
  H257     1.0000 0.54790  0.33480  0.71190  Biso   1.000  H
  H258     1.0000 0.54110  0.26420  0.69800  Biso   1.000  H
  C208     1.0000 0.58380  0.21140  0.76450  Biso   1.000  C
  H259     1.0000 0.59330  0.18280  0.74220  Biso   1.000  H
  H260     1.0000 0.63440  0.19890  0.78550  Biso   1.000  H
  N53      1.0000 0.37670  0.80630  0.82949  Biso   1.000  N
  N54      1.0000 0.10850  0.77450  0.75199  Biso   1.000  N
  C209     1.0000 0.30890  0.81110  0.79940  Biso   1.000  C
  H261     1.0000 0.26120  0.84560  0.79880  Biso   1.000  H
  C210     1.0000 0.30340  0.76930  0.76895  Biso   1.000  C
  C211     1.0000 0.37540  0.71910  0.77010  Biso   1.000  C
  H262     1.0000 0.37680  0.68990  0.74940  Biso   1.000  H
  C212     1.0000 0.44340  0.71280  0.80140  Biso   1.000  C
  H263     1.0000 0.49080  0.67830  0.80310  Biso   1.000  H
  C213     1.0000 0.44260  0.75700  0.83050  Biso   1.000  C
  H264     1.0000 0.49050  0.75230  0.85200  Biso   1.000  H
  C214     1.0000 0.22230  0.77860  0.73690  Biso   1.000  C
  H265     1.0000 0.23380  0.81970  0.72480  Biso   1.000  H
  H266     1.0000 0.23330  0.74690  0.71640  Biso   1.000  H
  C215     1.0000 0.03200  0.79220  0.72070  Biso   1.000  C
  H267     1.0000 0.04790  0.83480  0.71190  Biso   1.000  H
  H268     1.0000 0.04110  0.76420  0.69800  Biso   1.000  H
  C216     1.0000 0.08380  0.71140  0.76450  Biso   1.000  C
  H269     1.0000 0.09330  0.68280  0.74220  Biso   1.000  H
  H270     1.0000 0.13440  0.69890  0.78550  Biso   1.000  H
  N55      1.0000 0.37670  0.30630  0.32949  Biso   1.000  N
  N56      1.0000 0.10850  0.27450  0.25199  Biso   1.000  N
  C217     1.0000 0.30890  0.31110  0.29940  Biso   1.000  C
  H271     1.0000 0.26120  0.34560  0.29880  Biso   1.000  H
  C218     1.0000 0.30340  0.26930  0.26895  Biso   1.000  C
  C219     1.0000 0.37540  0.21910  0.27010  Biso   1.000  C
  H272     1.0000 0.37680  0.18990  0.24940  Biso   1.000  H
  C220     1.0000 0.44340  0.21280  0.30140  Biso   1.000  C
  H273     1.0000 0.49080  0.17830  0.30310  Biso   1.000  H
  C221     1.0000 0.44260  0.25700  0.33050  Biso   1.000  C
  H274     1.0000 0.49050  0.25230  0.35200  Biso   1.000  H
  C222     1.0000 0.22230  0.27860  0.23690  Biso   1.000  C
  H275     1.0000 0.23380  0.31970  0.22480  Biso   1.000  H
  H276     1.0000 0.23330  0.24690  0.21640  Biso   1.000  H
  C223     1.0000 0.03200  0.29220  0.22070  Biso   1.000  C
  H277     1.0000 0.04790  0.33480  0.21190  Biso   1.000  H
  H278     1.0000 0.04110  0.26420  0.19800  Biso   1.000  H
  C224     1.0000 0.08380  0.21140  0.26450  Biso   1.000  C
  H279     1.0000 0.09330  0.18280  0.24220  Biso   1.000  H
  H280     1.0000 0.13440  0.19890  0.28550  Biso   1.000  H
  N57      1.0000 0.37330  0.44370  0.32949  Biso   1.000  N
  N58      1.0000 0.64150  0.47550  0.25199  Biso   1.000  N
  C225     1.0000 0.44110  0.43890  0.29940  Biso   1.000  C
  H281     1.0000 0.48880  0.40440  0.29880  Biso   1.000  H
  C226     1.0000 0.44660  0.48070  0.26895  Biso   1.000  C
  C227     1.0000 0.37460  0.53090  0.27010  Biso   1.000  C
  H282     1.0000 0.37320  0.56010  0.24940  Biso   1.000  H
  C228     1.0000 0.30660  0.53720  0.30140  Biso   1.000  C
  H283     1.0000 0.25920  0.57170  0.30310  Biso   1.000  H
  C229     1.0000 0.30740  0.49300  0.33050  Biso   1.000  C
  H284     1.0000 0.25950  0.49770  0.35200  Biso   1.000  H
  C230     1.0000 0.52770  0.47140  0.23690  Biso   1.000  C
  H285     1.0000 0.51620  0.43030  0.22480  Biso   1.000  H
  H286     1.0000 0.51670  0.50310  0.21640  Biso   1.000  H
  C231     1.0000 0.71800  0.45780  0.22070  Biso   1.000  C
  H287     1.0000 0.70210  0.41520  0.21190  Biso   1.000  H
  H288     1.0000 0.70890  0.48580  0.19800  Biso   1.000  H
  C232     1.0000 0.66620  0.53860  0.26450  Biso   1.000  C
  H289     1.0000 0.65670  0.56720  0.24220  Biso   1.000  H
  H290     1.0000 0.61560  0.55110  0.28550  Biso   1.000  H
  N59      1.0000 0.37330  0.94370  0.82949  Biso   1.000  N
  N60      1.0000 0.64150  0.97550  0.75199  Biso   1.000  N
  C233     1.0000 0.44110  0.93890  0.79940  Biso   1.000  C
  H291     1.0000 0.48880  0.90440  0.79880  Biso   1.000  H
  C234     1.0000 0.44660  0.98070  0.76895  Biso   1.000  C
  C235     1.0000 0.37460  0.03090  0.77010  Biso   1.000  C
  H292     1.0000 0.37320  0.06010  0.74940  Biso   1.000  H
  C236     1.0000 0.30660  0.03720  0.80140  Biso   1.000  C
  H293     1.0000 0.25920  0.07170  0.80310  Biso   1.000  H
  C237     1.0000 0.30740  0.99300  0.83050  Biso   1.000  C
  H294     1.0000 0.25950  0.99770  0.85200  Biso   1.000  H
  C238     1.0000 0.52770  0.97140  0.73690  Biso   1.000  C
  H295     1.0000 0.51620  0.93030  0.72480  Biso   1.000  H
  H296     1.0000 0.51670  0.00310  0.71640  Biso   1.000  H
  C239     1.0000 0.71800  0.95780  0.72070  Biso   1.000  C
  H297     1.0000 0.70210  0.91520  0.71190  Biso   1.000  H
  H298     1.0000 0.70890  0.98580  0.69800  Biso   1.000  H
  C240     1.0000 0.66620  0.03860  0.76450  Biso   1.000  C
  H299     1.0000 0.65670  0.06720  0.74220  Biso   1.000  H
  H300     1.0000 0.61560  0.05110  0.78550  Biso   1.000  H
  N61      1.0000 0.87330  0.44370  0.82949  Biso   1.000  N
  N62      1.0000 0.14150  0.47550  0.75199  Biso   1.000  N
  C241     1.0000 0.94110  0.43890  0.79940  Biso   1.000  C
  H301     1.0000 0.98880  0.40440  0.79880  Biso   1.000  H
  C242     1.0000 0.94660  0.48070  0.76895  Biso   1.000  C
  C243     1.0000 0.87460  0.53090  0.77010  Biso   1.000  C
  H302     1.0000 0.87320  0.56010  0.74940  Biso   1.000  H
  C244     1.0000 0.80660  0.53720  0.80140  Biso   1.000  C
  H303     1.0000 0.75920  0.57170  0.80310  Biso   1.000  H
  C245     1.0000 0.80740  0.49300  0.83050  Biso   1.000  C
  H304     1.0000 0.75950  0.49770  0.85200  Biso   1.000  H
  C246     1.0000 0.02770  0.47140  0.73690  Biso   1.000  C
  H305     1.0000 0.01620  0.43030  0.72480  Biso   1.000  H
  H306     1.0000 0.01670  0.50310  0.71640  Biso   1.000  H
  C247     1.0000 0.21800  0.45780  0.72070  Biso   1.000  C
  H307     1.0000 0.20210  0.41520  0.71190  Biso   1.000  H
  H308     1.0000 0.20890  0.48580  0.69800  Biso   1.000  H
  C248     1.0000 0.16620  0.53860  0.76450  Biso   1.000  C
  H309     1.0000 0.15670  0.56720  0.74220  Biso   1.000  H
  H310     1.0000 0.11560  0.55110  0.78550  Biso   1.000  H
  N63      1.0000 0.87330  0.94370  0.32949  Biso   1.000  N
  N64      1.0000 0.14150  0.97550  0.25199  Biso   1.000  N
  C249     1.0000 0.94110  0.93890  0.29940  Biso   1.000  C
  H311     1.0000 0.98880  0.90440  0.29880  Biso   1.000  H
  C250     1.0000 0.94660  0.98070  0.26895  Biso   1.000  C
  C251     1.0000 0.87460  0.03090  0.27010  Biso   1.000  C
  H312     1.0000 0.87320  0.06010  0.24940  Biso   1.000  H
  C252     1.0000 0.80660  0.03720  0.30140  Biso   1.000  C
  H313     1.0000 0.75920  0.07170  0.30310  Biso   1.000  H
  C253     1.0000 0.80740  0.99300  0.33050  Biso   1.000  C
  H314     1.0000 0.75950  0.99770  0.35200  Biso   1.000  H
  C254     1.0000 0.02770  0.97140  0.23690  Biso   1.000  C
  H315     1.0000 0.01620  0.93030  0.22480  Biso   1.000  H
  H316     1.0000 0.01670  0.00310  0.21640  Biso   1.000  H
  C255     1.0000 0.21800  0.95780  0.22070  Biso   1.000  C
  H317     1.0000 0.20210  0.91520  0.21190  Biso   1.000  H
  H318     1.0000 0.20890  0.98580  0.19800  Biso   1.000  H
  C256     1.0000 0.16620  0.03860  0.26450  Biso   1.000  C
  H319     1.0000 0.15670  0.06720  0.24220  Biso   1.000  H
  H320     1.0000 0.11560  0.05110  0.28550  Biso   1.000  H
  Co1      1.0000 0.62500  0.12500  0.12500  Biso   1.000  Co
  Co2      1.0000 0.62500  0.62500  0.62500  Biso   1.000  Co
  Co3      1.0000 0.12500  0.62500  0.12500  Biso   1.000  Co
  Co4      1.0000 0.12500  0.12500  0.62500  Biso   1.000  Co
  Co5      1.0000 0.37500  0.87500  0.87500  Biso   1.000  Co
  Co6      1.0000 0.37500  0.37500  0.37500  Biso   1.000  Co
  Co7      1.0000 0.87500  0.37500  0.87500  Biso   1.000  Co
  Co8      1.0000 0.87500  0.87500  0.37500  Biso   1.000  Co
