data_image0
_cell_length_a       14.4927
_cell_length_b       44.273
_cell_length_c       50.103
_cell_angle_alpha    90
_cell_angle_beta     90
_cell_angle_gamma    90

_symmetry_space_group_name_H-M    "P 1"
_symmetry_int_tables_number       1

loop_
  _symmetry_equiv_pos_as_xyz
  'x, y, z'

loop_
  _atom_site_label
  _atom_site_occupancy
  _atom_site_fract_x
  _atom_site_fract_y
  _atom_site_fract_z
  _atom_site_thermal_displace_type
  _atom_site_B_iso_or_equiv
  _atom_site_type_symbol
  C1       1.0000 0.41670  0.60655  0.91544  Biso   1.000  C
  C2       1.0000 0.33005  0.58954  0.92059  Biso   1.000  C
  C3       1.0000 0.25505  0.59416  0.90379  Biso   1.000  C
  H1       1.0000 0.25930  0.60790  0.88980  Biso   1.000  H
  C4       1.0000 0.17364  0.57821  0.90787  Biso   1.000  C
  C5       1.0000 0.16724  0.55765  0.92875  Biso   1.000  C
  H2       1.0000 0.11280  0.54700  0.93150  Biso   1.000  H
  C6       1.0000 0.24224  0.55303  0.94555  Biso   1.000  C
  C7       1.0000 0.32365  0.56897  0.94147  Biso   1.000  C
  H3       1.0000 0.37380  0.56590  0.95270  Biso   1.000  H
  C8       1.0000 0.09680  0.58330  0.88934  Biso   1.000  C
  C9       1.0000 0.17130  0.51793  0.97692  Biso   1.000  C
  C10      1.0000 0.19079  0.49695  0.00035  Biso   1.000  C
  C11      1.0000 0.12375  0.49318  0.01991  Biso   1.000  C
  H4       1.0000 0.06820  0.50360  0.01870  Biso   1.000  H
  C12      1.0000 0.13979  0.47385  0.04128  Biso   1.000  C
  H5       1.0000 0.09490  0.47130  0.05440  Biso   1.000  H
  C13      1.0000 0.22286  0.45830  0.04309  Biso   1.000  C
  C14      1.0000 0.28990  0.46206  0.02353  Biso   1.000  C
  H6       1.0000 0.34550  0.45170  0.02470  Biso   1.000  H
  C15      1.0000 0.27386  0.48139  0.00216  Biso   1.000  C
  H7       1.0000 0.31870  0.48390  0.98910  Biso   1.000  H
  C16      1.0000 0.23900  0.43716  0.06608  Biso   1.000  C
  N1       1.0000 0.24360  0.53197  0.96745  Biso   1.000  N
  H8       1.0000 0.29840  0.52820  0.97520  Biso   1.000  H
  O1       1.0000 0.48500  0.60119  0.93052  Biso   1.000  O
  O2       1.0000 0.42850  0.62707  0.89966  Biso   1.000  O
  O3       1.0000 0.13250  0.58595  0.86751  Biso   1.000  O
  O4       1.0000 0.01400  0.58463  0.89463  Biso   1.000  O
  O5       1.0000 0.09270  0.52094  0.96991  Biso   1.000  O
  O6       1.0000 0.20660  0.44253  0.08804  Biso   1.000  O
  O7       1.0000 0.28660  0.41636  0.05758  Biso   1.000  O
  C17      1.0000 0.41670  0.10655  0.41544  Biso   1.000  C
  C18      1.0000 0.33005  0.08954  0.42059  Biso   1.000  C
  C19      1.0000 0.25505  0.09416  0.40379  Biso   1.000  C
  H9       1.0000 0.25930  0.10790  0.38980  Biso   1.000  H
  C20      1.0000 0.17364  0.07821  0.40787  Biso   1.000  C
  C21      1.0000 0.16724  0.05765  0.42875  Biso   1.000  C
  H10      1.0000 0.11280  0.04700  0.43150  Biso   1.000  H
  C22      1.0000 0.24224  0.05303  0.44555  Biso   1.000  C
  C23      1.0000 0.32365  0.06897  0.44147  Biso   1.000  C
  H11      1.0000 0.37380  0.06590  0.45270  Biso   1.000  H
  C24      1.0000 0.09680  0.08330  0.38934  Biso   1.000  C
  C25      1.0000 0.17130  0.01793  0.47692  Biso   1.000  C
  C26      1.0000 0.19079  0.99695  0.50035  Biso   1.000  C
  C27      1.0000 0.12375  0.99318  0.51991  Biso   1.000  C
  H12      1.0000 0.06820  0.00360  0.51870  Biso   1.000  H
  C28      1.0000 0.13979  0.97385  0.54128  Biso   1.000  C
  H13      1.0000 0.09490  0.97130  0.55440  Biso   1.000  H
  C29      1.0000 0.22286  0.95830  0.54309  Biso   1.000  C
  C30      1.0000 0.28990  0.96206  0.52353  Biso   1.000  C
  H14      1.0000 0.34550  0.95170  0.52470  Biso   1.000  H
  C31      1.0000 0.27386  0.98139  0.50216  Biso   1.000  C
  H15      1.0000 0.31870  0.98390  0.48910  Biso   1.000  H
  C32      1.0000 0.23900  0.93716  0.56608  Biso   1.000  C
  N2       1.0000 0.24360  0.03197  0.46745  Biso   1.000  N
  H16      1.0000 0.29840  0.02820  0.47520  Biso   1.000  H
  O8       1.0000 0.48500  0.10119  0.43052  Biso   1.000  O
  O9       1.0000 0.42850  0.12707  0.39966  Biso   1.000  O
  O10      1.0000 0.13250  0.08595  0.36751  Biso   1.000  O
  O11      1.0000 0.01400  0.08463  0.39463  Biso   1.000  O
  O12      1.0000 0.09270  0.02094  0.46991  Biso   1.000  O
  O13      1.0000 0.20660  0.94253  0.58804  Biso   1.000  O
  O14      1.0000 0.28660  0.91636  0.55758  Biso   1.000  O
  C33      1.0000 0.91670  0.60655  0.41544  Biso   1.000  C
  C34      1.0000 0.83005  0.58954  0.42059  Biso   1.000  C
  C35      1.0000 0.75505  0.59416  0.40379  Biso   1.000  C
  H17      1.0000 0.75930  0.60790  0.38980  Biso   1.000  H
  C36      1.0000 0.67364  0.57821  0.40787  Biso   1.000  C
  C37      1.0000 0.66724  0.55765  0.42875  Biso   1.000  C
  H18      1.0000 0.61280  0.54700  0.43150  Biso   1.000  H
  C38      1.0000 0.74224  0.55303  0.44555  Biso   1.000  C
  C39      1.0000 0.82365  0.56897  0.44147  Biso   1.000  C
  H19      1.0000 0.87380  0.56590  0.45270  Biso   1.000  H
  C40      1.0000 0.59680  0.58330  0.38934  Biso   1.000  C
  C41      1.0000 0.67130  0.51793  0.47692  Biso   1.000  C
  C42      1.0000 0.69079  0.49695  0.50035  Biso   1.000  C
  C43      1.0000 0.62375  0.49318  0.51991  Biso   1.000  C
  H20      1.0000 0.56820  0.50360  0.51870  Biso   1.000  H
  C44      1.0000 0.63979  0.47385  0.54128  Biso   1.000  C
  H21      1.0000 0.59490  0.47130  0.55440  Biso   1.000  H
  C45      1.0000 0.72286  0.45830  0.54309  Biso   1.000  C
  C46      1.0000 0.78990  0.46206  0.52353  Biso   1.000  C
  H22      1.0000 0.84550  0.45170  0.52470  Biso   1.000  H
  C47      1.0000 0.77386  0.48139  0.50216  Biso   1.000  C
  H23      1.0000 0.81870  0.48390  0.48910  Biso   1.000  H
  C48      1.0000 0.73900  0.43716  0.56608  Biso   1.000  C
  N3       1.0000 0.74360  0.53197  0.46745  Biso   1.000  N
  H24      1.0000 0.79840  0.52820  0.47520  Biso   1.000  H
  O15      1.0000 0.98500  0.60119  0.43052  Biso   1.000  O
  O16      1.0000 0.92850  0.62707  0.39966  Biso   1.000  O
  O17      1.0000 0.63250  0.58595  0.36751  Biso   1.000  O
  O18      1.0000 0.51400  0.58463  0.39463  Biso   1.000  O
  O19      1.0000 0.59270  0.52094  0.46991  Biso   1.000  O
  O20      1.0000 0.70660  0.44253  0.58804  Biso   1.000  O
  O21      1.0000 0.78660  0.41636  0.55758  Biso   1.000  O
  C49      1.0000 0.91670  0.10655  0.91544  Biso   1.000  C
  C50      1.0000 0.83005  0.08954  0.92059  Biso   1.000  C
  C51      1.0000 0.75505  0.09416  0.90379  Biso   1.000  C
  H25      1.0000 0.75930  0.10790  0.88980  Biso   1.000  H
  C52      1.0000 0.67364  0.07821  0.90787  Biso   1.000  C
  C53      1.0000 0.66724  0.05765  0.92875  Biso   1.000  C
  H26      1.0000 0.61280  0.04700  0.93150  Biso   1.000  H
  C54      1.0000 0.74224  0.05303  0.94555  Biso   1.000  C
  C55      1.0000 0.82365  0.06897  0.94147  Biso   1.000  C
  H27      1.0000 0.87380  0.06590  0.95270  Biso   1.000  H
  C56      1.0000 0.59680  0.08330  0.88934  Biso   1.000  C
  C57      1.0000 0.67130  0.01793  0.97692  Biso   1.000  C
  C58      1.0000 0.69079  0.99695  0.00035  Biso   1.000  C
  C59      1.0000 0.62375  0.99318  0.01991  Biso   1.000  C
  H28      1.0000 0.56820  0.00360  0.01870  Biso   1.000  H
  C60      1.0000 0.63979  0.97385  0.04128  Biso   1.000  C
  H29      1.0000 0.59490  0.97130  0.05440  Biso   1.000  H
  C61      1.0000 0.72286  0.95830  0.04309  Biso   1.000  C
  C62      1.0000 0.78990  0.96206  0.02353  Biso   1.000  C
  H30      1.0000 0.84550  0.95170  0.02470  Biso   1.000  H
  C63      1.0000 0.77386  0.98139  0.00216  Biso   1.000  C
  H31      1.0000 0.81870  0.98390  0.98910  Biso   1.000  H
  C64      1.0000 0.73900  0.93716  0.06608  Biso   1.000  C
  N4       1.0000 0.74360  0.03197  0.96745  Biso   1.000  N
  H32      1.0000 0.79840  0.02820  0.97520  Biso   1.000  H
  O22      1.0000 0.98500  0.10119  0.93052  Biso   1.000  O
  O23      1.0000 0.92850  0.12707  0.89966  Biso   1.000  O
  O24      1.0000 0.63250  0.08595  0.86751  Biso   1.000  O
  O25      1.0000 0.51400  0.08463  0.89463  Biso   1.000  O
  O26      1.0000 0.59270  0.02094  0.96991  Biso   1.000  O
  O27      1.0000 0.70660  0.94253  0.08804  Biso   1.000  O
  O28      1.0000 0.78660  0.91636  0.05758  Biso   1.000  O
  C65      1.0000 0.33330  0.14345  0.91544  Biso   1.000  C
  C66      1.0000 0.41995  0.16046  0.92059  Biso   1.000  C
  C67      1.0000 0.49495  0.15584  0.90379  Biso   1.000  C
  H33      1.0000 0.49070  0.14210  0.88980  Biso   1.000  H
  C68      1.0000 0.57636  0.17179  0.90787  Biso   1.000  C
  C69      1.0000 0.58276  0.19235  0.92875  Biso   1.000  C
  H34      1.0000 0.63720  0.20300  0.93150  Biso   1.000  H
  C70      1.0000 0.50776  0.19697  0.94555  Biso   1.000  C
  C71      1.0000 0.42635  0.18103  0.94147  Biso   1.000  C
  H35      1.0000 0.37620  0.18410  0.95270  Biso   1.000  H
  C72      1.0000 0.65320  0.16670  0.88934  Biso   1.000  C
  C73      1.0000 0.57870  0.23207  0.97692  Biso   1.000  C
  C74      1.0000 0.55921  0.25305  0.00035  Biso   1.000  C
  C75      1.0000 0.62625  0.25682  0.01991  Biso   1.000  C
  H36      1.0000 0.68180  0.24640  0.01870  Biso   1.000  H
  C76      1.0000 0.61021  0.27615  0.04128  Biso   1.000  C
  H37      1.0000 0.65510  0.27870  0.05440  Biso   1.000  H
  C77      1.0000 0.52714  0.29170  0.04309  Biso   1.000  C
  C78      1.0000 0.46010  0.28794  0.02353  Biso   1.000  C
  H38      1.0000 0.40450  0.29830  0.02470  Biso   1.000  H
  C79      1.0000 0.47614  0.26861  0.00216  Biso   1.000  C
  H39      1.0000 0.43130  0.26610  0.98910  Biso   1.000  H
  C80      1.0000 0.51100  0.31284  0.06608  Biso   1.000  C
  N5       1.0000 0.50640  0.21803  0.96745  Biso   1.000  N
  H40      1.0000 0.45160  0.22180  0.97520  Biso   1.000  H
  O29      1.0000 0.26500  0.14881  0.93052  Biso   1.000  O
  O30      1.0000 0.32150  0.12293  0.89966  Biso   1.000  O
  O31      1.0000 0.61750  0.16405  0.86751  Biso   1.000  O
  O32      1.0000 0.73600  0.16537  0.89463  Biso   1.000  O
  O33      1.0000 0.65730  0.22906  0.96991  Biso   1.000  O
  O34      1.0000 0.54340  0.30747  0.08804  Biso   1.000  O
  O35      1.0000 0.46340  0.33364  0.05758  Biso   1.000  O
  C81      1.0000 0.33330  0.64345  0.41544  Biso   1.000  C
  C82      1.0000 0.41995  0.66046  0.42059  Biso   1.000  C
  C83      1.0000 0.49495  0.65584  0.40379  Biso   1.000  C
  H41      1.0000 0.49070  0.64210  0.38980  Biso   1.000  H
  C84      1.0000 0.57636  0.67179  0.40787  Biso   1.000  C
  C85      1.0000 0.58276  0.69235  0.42875  Biso   1.000  C
  H42      1.0000 0.63720  0.70300  0.43150  Biso   1.000  H
  C86      1.0000 0.50776  0.69697  0.44555  Biso   1.000  C
  C87      1.0000 0.42635  0.68103  0.44147  Biso   1.000  C
  H43      1.0000 0.37620  0.68410  0.45270  Biso   1.000  H
  C88      1.0000 0.65320  0.66670  0.38934  Biso   1.000  C
  C89      1.0000 0.57870  0.73207  0.47692  Biso   1.000  C
  C90      1.0000 0.55921  0.75305  0.50035  Biso   1.000  C
  C91      1.0000 0.62625  0.75682  0.51991  Biso   1.000  C
  H44      1.0000 0.68180  0.74640  0.51870  Biso   1.000  H
  C92      1.0000 0.61021  0.77615  0.54128  Biso   1.000  C
  H45      1.0000 0.65510  0.77870  0.55440  Biso   1.000  H
  C93      1.0000 0.52714  0.79170  0.54309  Biso   1.000  C
  C94      1.0000 0.46010  0.78794  0.52353  Biso   1.000  C
  H46      1.0000 0.40450  0.79830  0.52470  Biso   1.000  H
  C95      1.0000 0.47614  0.76861  0.50216  Biso   1.000  C
  H47      1.0000 0.43130  0.76610  0.48910  Biso   1.000  H
  C96      1.0000 0.51100  0.81284  0.56608  Biso   1.000  C
  N6       1.0000 0.50640  0.71803  0.46745  Biso   1.000  N
  H48      1.0000 0.45160  0.72180  0.47520  Biso   1.000  H
  O36      1.0000 0.26500  0.64881  0.43052  Biso   1.000  O
  O37      1.0000 0.32150  0.62293  0.39966  Biso   1.000  O
  O38      1.0000 0.61750  0.66405  0.36751  Biso   1.000  O
  O39      1.0000 0.73600  0.66537  0.39463  Biso   1.000  O
  O40      1.0000 0.65730  0.72906  0.46991  Biso   1.000  O
  O41      1.0000 0.54340  0.80747  0.58804  Biso   1.000  O
  O42      1.0000 0.46340  0.83364  0.55758  Biso   1.000  O
  C97      1.0000 0.83330  0.14345  0.41544  Biso   1.000  C
  C98      1.0000 0.91995  0.16046  0.42059  Biso   1.000  C
  C99      1.0000 0.99495  0.15584  0.40379  Biso   1.000  C
  H49      1.0000 0.99070  0.14210  0.38980  Biso   1.000  H
  C100     1.0000 0.07636  0.17179  0.40787  Biso   1.000  C
  C101     1.0000 0.08276  0.19235  0.42875  Biso   1.000  C
  H50      1.0000 0.13720  0.20300  0.43150  Biso   1.000  H
  C102     1.0000 0.00776  0.19697  0.44555  Biso   1.000  C
  C103     1.0000 0.92635  0.18103  0.44147  Biso   1.000  C
  H51      1.0000 0.87620  0.18410  0.45270  Biso   1.000  H
  C104     1.0000 0.15320  0.16670  0.38934  Biso   1.000  C
  C105     1.0000 0.07870  0.23207  0.47692  Biso   1.000  C
  C106     1.0000 0.05921  0.25305  0.50035  Biso   1.000  C
  C107     1.0000 0.12625  0.25682  0.51991  Biso   1.000  C
  H52      1.0000 0.18180  0.24640  0.51870  Biso   1.000  H
  C108     1.0000 0.11021  0.27615  0.54128  Biso   1.000  C
  H53      1.0000 0.15510  0.27870  0.55440  Biso   1.000  H
  C109     1.0000 0.02714  0.29170  0.54309  Biso   1.000  C
  C110     1.0000 0.96010  0.28794  0.52353  Biso   1.000  C
  H54      1.0000 0.90450  0.29830  0.52470  Biso   1.000  H
  C111     1.0000 0.97614  0.26861  0.50216  Biso   1.000  C
  H55      1.0000 0.93130  0.26610  0.48910  Biso   1.000  H
  C112     1.0000 0.01100  0.31284  0.56608  Biso   1.000  C
  N7       1.0000 0.00640  0.21803  0.46745  Biso   1.000  N
  H56      1.0000 0.95160  0.22180  0.47520  Biso   1.000  H
  O43      1.0000 0.76500  0.14881  0.43052  Biso   1.000  O
  O44      1.0000 0.82150  0.12293  0.39966  Biso   1.000  O
  O45      1.0000 0.11750  0.16405  0.36751  Biso   1.000  O
  O46      1.0000 0.23600  0.16537  0.39463  Biso   1.000  O
  O47      1.0000 0.15730  0.22906  0.46991  Biso   1.000  O
  O48      1.0000 0.04340  0.30747  0.58804  Biso   1.000  O
  O49      1.0000 0.96340  0.33364  0.55758  Biso   1.000  O
  C113     1.0000 0.83330  0.64345  0.91544  Biso   1.000  C
  C114     1.0000 0.91995  0.66046  0.92059  Biso   1.000  C
  C115     1.0000 0.99495  0.65584  0.90379  Biso   1.000  C
  H57      1.0000 0.99070  0.64210  0.88980  Biso   1.000  H
  C116     1.0000 0.07636  0.67179  0.90787  Biso   1.000  C
  C117     1.0000 0.08276  0.69235  0.92875  Biso   1.000  C
  H58      1.0000 0.13720  0.70300  0.93150  Biso   1.000  H
  C118     1.0000 0.00776  0.69697  0.94555  Biso   1.000  C
  C119     1.0000 0.92635  0.68103  0.94147  Biso   1.000  C
  H59      1.0000 0.87620  0.68410  0.95270  Biso   1.000  H
  C120     1.0000 0.15320  0.66670  0.88934  Biso   1.000  C
  C121     1.0000 0.07870  0.73207  0.97692  Biso   1.000  C
  C122     1.0000 0.05921  0.75305  0.00035  Biso   1.000  C
  C123     1.0000 0.12625  0.75682  0.01991  Biso   1.000  C
  H60      1.0000 0.18180  0.74640  0.01870  Biso   1.000  H
  C124     1.0000 0.11021  0.77615  0.04128  Biso   1.000  C
  H61      1.0000 0.15510  0.77870  0.05440  Biso   1.000  H
  C125     1.0000 0.02714  0.79170  0.04309  Biso   1.000  C
  C126     1.0000 0.96010  0.78794  0.02353  Biso   1.000  C
  H62      1.0000 0.90450  0.79830  0.02470  Biso   1.000  H
  C127     1.0000 0.97614  0.76861  0.00216  Biso   1.000  C
  H63      1.0000 0.93130  0.76610  0.98910  Biso   1.000  H
  C128     1.0000 0.01100  0.81284  0.06608  Biso   1.000  C
  N8       1.0000 0.00640  0.71803  0.96745  Biso   1.000  N
  H64      1.0000 0.95160  0.72180  0.97520  Biso   1.000  H
  O50      1.0000 0.76500  0.64881  0.93052  Biso   1.000  O
  O51      1.0000 0.82150  0.62293  0.89966  Biso   1.000  O
  O52      1.0000 0.11750  0.66405  0.86751  Biso   1.000  O
  O53      1.0000 0.23600  0.66537  0.89463  Biso   1.000  O
  O54      1.0000 0.15730  0.72906  0.96991  Biso   1.000  O
  O55      1.0000 0.04340  0.80747  0.08804  Biso   1.000  O
  O56      1.0000 0.96340  0.83364  0.05758  Biso   1.000  O
  C129     1.0000 0.33330  0.60655  0.83456  Biso   1.000  C
  C130     1.0000 0.41995  0.58954  0.82941  Biso   1.000  C
  C131     1.0000 0.49495  0.59416  0.84621  Biso   1.000  C
  H65      1.0000 0.49070  0.60790  0.86020  Biso   1.000  H
  C132     1.0000 0.57636  0.57821  0.84213  Biso   1.000  C
  C133     1.0000 0.58276  0.55765  0.82125  Biso   1.000  C
  H66      1.0000 0.63720  0.54700  0.81850  Biso   1.000  H
  C134     1.0000 0.50776  0.55303  0.80445  Biso   1.000  C
  C135     1.0000 0.42635  0.56897  0.80853  Biso   1.000  C
  H67      1.0000 0.37620  0.56590  0.79730  Biso   1.000  H
  C136     1.0000 0.65320  0.58330  0.86066  Biso   1.000  C
  C137     1.0000 0.57870  0.51793  0.77308  Biso   1.000  C
  C138     1.0000 0.55921  0.49695  0.74965  Biso   1.000  C
  C139     1.0000 0.62625  0.49318  0.73009  Biso   1.000  C
  H68      1.0000 0.68180  0.50360  0.73130  Biso   1.000  H
  C140     1.0000 0.61021  0.47385  0.70872  Biso   1.000  C
  H69      1.0000 0.65510  0.47130  0.69560  Biso   1.000  H
  C141     1.0000 0.52714  0.45830  0.70691  Biso   1.000  C
  C142     1.0000 0.46010  0.46206  0.72647  Biso   1.000  C
  H70      1.0000 0.40450  0.45170  0.72530  Biso   1.000  H
  C143     1.0000 0.47614  0.48139  0.74784  Biso   1.000  C
  H71      1.0000 0.43130  0.48390  0.76090  Biso   1.000  H
  C144     1.0000 0.51100  0.43716  0.68392  Biso   1.000  C
  N9       1.0000 0.50640  0.53197  0.78255  Biso   1.000  N
  H72      1.0000 0.45160  0.52820  0.77480  Biso   1.000  H
  O57      1.0000 0.26500  0.60119  0.81948  Biso   1.000  O
  O58      1.0000 0.32150  0.62707  0.85034  Biso   1.000  O
  O59      1.0000 0.61750  0.58595  0.88249  Biso   1.000  O
  O60      1.0000 0.73600  0.58463  0.85537  Biso   1.000  O
  O61      1.0000 0.65730  0.52094  0.78009  Biso   1.000  O
  O62      1.0000 0.54340  0.44253  0.66196  Biso   1.000  O
  O63      1.0000 0.46340  0.41636  0.69242  Biso   1.000  O
  C145     1.0000 0.33330  0.10655  0.33456  Biso   1.000  C
  C146     1.0000 0.41995  0.08954  0.32941  Biso   1.000  C
  C147     1.0000 0.49495  0.09416  0.34621  Biso   1.000  C
  H73      1.0000 0.49070  0.10790  0.36020  Biso   1.000  H
  C148     1.0000 0.57636  0.07821  0.34213  Biso   1.000  C
  C149     1.0000 0.58276  0.05765  0.32125  Biso   1.000  C
  H74      1.0000 0.63720  0.04700  0.31850  Biso   1.000  H
  C150     1.0000 0.50776  0.05303  0.30445  Biso   1.000  C
  C151     1.0000 0.42635  0.06897  0.30853  Biso   1.000  C
  H75      1.0000 0.37620  0.06590  0.29730  Biso   1.000  H
  C152     1.0000 0.65320  0.08330  0.36066  Biso   1.000  C
  C153     1.0000 0.57870  0.01793  0.27308  Biso   1.000  C
  C154     1.0000 0.55921  0.99695  0.24965  Biso   1.000  C
  C155     1.0000 0.62625  0.99318  0.23009  Biso   1.000  C
  H76      1.0000 0.68180  0.00360  0.23130  Biso   1.000  H
  C156     1.0000 0.61021  0.97385  0.20872  Biso   1.000  C
  H77      1.0000 0.65510  0.97130  0.19560  Biso   1.000  H
  C157     1.0000 0.52714  0.95830  0.20691  Biso   1.000  C
  C158     1.0000 0.46010  0.96206  0.22647  Biso   1.000  C
  H78      1.0000 0.40450  0.95170  0.22530  Biso   1.000  H
  C159     1.0000 0.47614  0.98139  0.24784  Biso   1.000  C
  H79      1.0000 0.43130  0.98390  0.26090  Biso   1.000  H
  C160     1.0000 0.51100  0.93716  0.18392  Biso   1.000  C
  N10      1.0000 0.50640  0.03197  0.28255  Biso   1.000  N
  H80      1.0000 0.45160  0.02820  0.27480  Biso   1.000  H
  O64      1.0000 0.26500  0.10119  0.31948  Biso   1.000  O
  O65      1.0000 0.32150  0.12707  0.35034  Biso   1.000  O
  O66      1.0000 0.61750  0.08595  0.38249  Biso   1.000  O
  O67      1.0000 0.73600  0.08463  0.35537  Biso   1.000  O
  O68      1.0000 0.65730  0.02094  0.28009  Biso   1.000  O
  O69      1.0000 0.54340  0.94253  0.16196  Biso   1.000  O
  O70      1.0000 0.46340  0.91636  0.19242  Biso   1.000  O
  C161     1.0000 0.83330  0.60655  0.33456  Biso   1.000  C
  C162     1.0000 0.91995  0.58954  0.32941  Biso   1.000  C
  C163     1.0000 0.99495  0.59416  0.34621  Biso   1.000  C
  H81      1.0000 0.99070  0.60790  0.36020  Biso   1.000  H
  C164     1.0000 0.07636  0.57821  0.34213  Biso   1.000  C
  C165     1.0000 0.08276  0.55765  0.32125  Biso   1.000  C
  H82      1.0000 0.13720  0.54700  0.31850  Biso   1.000  H
  C166     1.0000 0.00776  0.55303  0.30445  Biso   1.000  C
  C167     1.0000 0.92635  0.56897  0.30853  Biso   1.000  C
  H83      1.0000 0.87620  0.56590  0.29730  Biso   1.000  H
  C168     1.0000 0.15320  0.58330  0.36066  Biso   1.000  C
  C169     1.0000 0.07870  0.51793  0.27308  Biso   1.000  C
  C170     1.0000 0.05921  0.49695  0.24965  Biso   1.000  C
  C171     1.0000 0.12625  0.49318  0.23009  Biso   1.000  C
  H84      1.0000 0.18180  0.50360  0.23130  Biso   1.000  H
  C172     1.0000 0.11021  0.47385  0.20872  Biso   1.000  C
  H85      1.0000 0.15510  0.47130  0.19560  Biso   1.000  H
  C173     1.0000 0.02714  0.45830  0.20691  Biso   1.000  C
  C174     1.0000 0.96010  0.46206  0.22647  Biso   1.000  C
  H86      1.0000 0.90450  0.45170  0.22530  Biso   1.000  H
  C175     1.0000 0.97614  0.48139  0.24784  Biso   1.000  C
  H87      1.0000 0.93130  0.48390  0.26090  Biso   1.000  H
  C176     1.0000 0.01100  0.43716  0.18392  Biso   1.000  C
  N11      1.0000 0.00640  0.53197  0.28255  Biso   1.000  N
  H88      1.0000 0.95160  0.52820  0.27480  Biso   1.000  H
  O71      1.0000 0.76500  0.60119  0.31948  Biso   1.000  O
  O72      1.0000 0.82150  0.62707  0.35034  Biso   1.000  O
  O73      1.0000 0.11750  0.58595  0.38249  Biso   1.000  O
  O74      1.0000 0.23600  0.58463  0.35537  Biso   1.000  O
  O75      1.0000 0.15730  0.52094  0.28009  Biso   1.000  O
  O76      1.0000 0.04340  0.44253  0.16196  Biso   1.000  O
  O77      1.0000 0.96340  0.41636  0.19242  Biso   1.000  O
  C177     1.0000 0.83330  0.10655  0.83456  Biso   1.000  C
  C178     1.0000 0.91995  0.08954  0.82941  Biso   1.000  C
  C179     1.0000 0.99495  0.09416  0.84621  Biso   1.000  C
  H89      1.0000 0.99070  0.10790  0.86020  Biso   1.000  H
  C180     1.0000 0.07636  0.07821  0.84213  Biso   1.000  C
  C181     1.0000 0.08276  0.05765  0.82125  Biso   1.000  C
  H90      1.0000 0.13720  0.04700  0.81850  Biso   1.000  H
  C182     1.0000 0.00776  0.05303  0.80445  Biso   1.000  C
  C183     1.0000 0.92635  0.06897  0.80853  Biso   1.000  C
  H91      1.0000 0.87620  0.06590  0.79730  Biso   1.000  H
  C184     1.0000 0.15320  0.08330  0.86066  Biso   1.000  C
  C185     1.0000 0.07870  0.01793  0.77308  Biso   1.000  C
  C186     1.0000 0.05921  0.99695  0.74965  Biso   1.000  C
  C187     1.0000 0.12625  0.99318  0.73009  Biso   1.000  C
  H92      1.0000 0.18180  0.00360  0.73130  Biso   1.000  H
  C188     1.0000 0.11021  0.97385  0.70872  Biso   1.000  C
  H93      1.0000 0.15510  0.97130  0.69560  Biso   1.000  H
  C189     1.0000 0.02714  0.95830  0.70691  Biso   1.000  C
  C190     1.0000 0.96010  0.96206  0.72647  Biso   1.000  C
  H94      1.0000 0.90450  0.95170  0.72530  Biso   1.000  H
  C191     1.0000 0.97614  0.98139  0.74784  Biso   1.000  C
  H95      1.0000 0.93130  0.98390  0.76090  Biso   1.000  H
  C192     1.0000 0.01100  0.93716  0.68392  Biso   1.000  C
  N12      1.0000 0.00640  0.03197  0.78255  Biso   1.000  N
  H96      1.0000 0.95160  0.02820  0.77480  Biso   1.000  H
  O78      1.0000 0.76500  0.10119  0.81948  Biso   1.000  O
  O79      1.0000 0.82150  0.12707  0.85034  Biso   1.000  O
  O80      1.0000 0.11750  0.08595  0.88249  Biso   1.000  O
  O81      1.0000 0.23600  0.08463  0.85537  Biso   1.000  O
  O82      1.0000 0.15730  0.02094  0.78009  Biso   1.000  O
  O83      1.0000 0.04340  0.94253  0.66196  Biso   1.000  O
  O84      1.0000 0.96340  0.91636  0.69242  Biso   1.000  O
  C193     1.0000 0.41670  0.14345  0.83456  Biso   1.000  C
  C194     1.0000 0.33005  0.16046  0.82941  Biso   1.000  C
  C195     1.0000 0.25505  0.15584  0.84621  Biso   1.000  C
  H97      1.0000 0.25930  0.14210  0.86020  Biso   1.000  H
  C196     1.0000 0.17364  0.17179  0.84213  Biso   1.000  C
  C197     1.0000 0.16724  0.19235  0.82125  Biso   1.000  C
  H98      1.0000 0.11280  0.20300  0.81850  Biso   1.000  H
  C198     1.0000 0.24224  0.19697  0.80445  Biso   1.000  C
  C199     1.0000 0.32365  0.18103  0.80853  Biso   1.000  C
  H99      1.0000 0.37380  0.18410  0.79730  Biso   1.000  H
  C200     1.0000 0.09680  0.16670  0.86066  Biso   1.000  C
  C201     1.0000 0.17130  0.23207  0.77308  Biso   1.000  C
  C202     1.0000 0.19079  0.25305  0.74965  Biso   1.000  C
  C203     1.0000 0.12375  0.25682  0.73009  Biso   1.000  C
  H100     1.0000 0.06820  0.24640  0.73130  Biso   1.000  H
  C204     1.0000 0.13979  0.27615  0.70872  Biso   1.000  C
  H101     1.0000 0.09490  0.27870  0.69560  Biso   1.000  H
  C205     1.0000 0.22286  0.29170  0.70691  Biso   1.000  C
  C206     1.0000 0.28990  0.28794  0.72647  Biso   1.000  C
  H102     1.0000 0.34550  0.29830  0.72530  Biso   1.000  H
  C207     1.0000 0.27386  0.26861  0.74784  Biso   1.000  C
  H103     1.0000 0.31870  0.26610  0.76090  Biso   1.000  H
  C208     1.0000 0.23900  0.31284  0.68392  Biso   1.000  C
  N13      1.0000 0.24360  0.21803  0.78255  Biso   1.000  N
  H104     1.0000 0.29840  0.22180  0.77480  Biso   1.000  H
  O85      1.0000 0.48500  0.14881  0.81948  Biso   1.000  O
  O86      1.0000 0.42850  0.12293  0.85034  Biso   1.000  O
  O87      1.0000 0.13250  0.16405  0.88249  Biso   1.000  O
  O88      1.0000 0.01400  0.16537  0.85537  Biso   1.000  O
  O89      1.0000 0.09270  0.22906  0.78009  Biso   1.000  O
  O90      1.0000 0.20660  0.30747  0.66196  Biso   1.000  O
  O91      1.0000 0.28660  0.33364  0.69242  Biso   1.000  O
  C209     1.0000 0.41670  0.64345  0.33456  Biso   1.000  C
  C210     1.0000 0.33005  0.66046  0.32941  Biso   1.000  C
  C211     1.0000 0.25505  0.65584  0.34621  Biso   1.000  C
  H105     1.0000 0.25930  0.64210  0.36020  Biso   1.000  H
  C212     1.0000 0.17364  0.67179  0.34213  Biso   1.000  C
  C213     1.0000 0.16724  0.69235  0.32125  Biso   1.000  C
  H106     1.0000 0.11280  0.70300  0.31850  Biso   1.000  H
  C214     1.0000 0.24224  0.69697  0.30445  Biso   1.000  C
  C215     1.0000 0.32365  0.68103  0.30853  Biso   1.000  C
  H107     1.0000 0.37380  0.68410  0.29730  Biso   1.000  H
  C216     1.0000 0.09680  0.66670  0.36066  Biso   1.000  C
  C217     1.0000 0.17130  0.73207  0.27308  Biso   1.000  C
  C218     1.0000 0.19079  0.75305  0.24965  Biso   1.000  C
  C219     1.0000 0.12375  0.75682  0.23009  Biso   1.000  C
  H108     1.0000 0.06820  0.74640  0.23130  Biso   1.000  H
  C220     1.0000 0.13979  0.77615  0.20872  Biso   1.000  C
  H109     1.0000 0.09490  0.77870  0.19560  Biso   1.000  H
  C221     1.0000 0.22286  0.79170  0.20691  Biso   1.000  C
  C222     1.0000 0.28990  0.78794  0.22647  Biso   1.000  C
  H110     1.0000 0.34550  0.79830  0.22530  Biso   1.000  H
  C223     1.0000 0.27386  0.76861  0.24784  Biso   1.000  C
  H111     1.0000 0.31870  0.76610  0.26090  Biso   1.000  H
  C224     1.0000 0.23900  0.81284  0.18392  Biso   1.000  C
  N14      1.0000 0.24360  0.71803  0.28255  Biso   1.000  N
  H112     1.0000 0.29840  0.72180  0.27480  Biso   1.000  H
  O92      1.0000 0.48500  0.64881  0.31948  Biso   1.000  O
  O93      1.0000 0.42850  0.62293  0.35034  Biso   1.000  O
  O94      1.0000 0.13250  0.66405  0.38249  Biso   1.000  O
  O95      1.0000 0.01400  0.66537  0.35537  Biso   1.000  O
  O96      1.0000 0.09270  0.72906  0.28009  Biso   1.000  O
  O97      1.0000 0.20660  0.80747  0.16196  Biso   1.000  O
  O98      1.0000 0.28660  0.83364  0.19242  Biso   1.000  O
  C225     1.0000 0.91670  0.14345  0.33456  Biso   1.000  C
  C226     1.0000 0.83005  0.16046  0.32941  Biso   1.000  C
  C227     1.0000 0.75505  0.15584  0.34621  Biso   1.000  C
  H113     1.0000 0.75930  0.14210  0.36020  Biso   1.000  H
  C228     1.0000 0.67364  0.17179  0.34213  Biso   1.000  C
  C229     1.0000 0.66724  0.19235  0.32125  Biso   1.000  C
  H114     1.0000 0.61280  0.20300  0.31850  Biso   1.000  H
  C230     1.0000 0.74224  0.19697  0.30445  Biso   1.000  C
  C231     1.0000 0.82365  0.18103  0.30853  Biso   1.000  C
  H115     1.0000 0.87380  0.18410  0.29730  Biso   1.000  H
  C232     1.0000 0.59680  0.16670  0.36066  Biso   1.000  C
  C233     1.0000 0.67130  0.23207  0.27308  Biso   1.000  C
  C234     1.0000 0.69079  0.25305  0.24965  Biso   1.000  C
  C235     1.0000 0.62375  0.25682  0.23009  Biso   1.000  C
  H116     1.0000 0.56820  0.24640  0.23130  Biso   1.000  H
  C236     1.0000 0.63979  0.27615  0.20872  Biso   1.000  C
  H117     1.0000 0.59490  0.27870  0.19560  Biso   1.000  H
  C237     1.0000 0.72286  0.29170  0.20691  Biso   1.000  C
  C238     1.0000 0.78990  0.28794  0.22647  Biso   1.000  C
  H118     1.0000 0.84550  0.29830  0.22530  Biso   1.000  H
  C239     1.0000 0.77386  0.26861  0.24784  Biso   1.000  C
  H119     1.0000 0.81870  0.26610  0.26090  Biso   1.000  H
  C240     1.0000 0.73900  0.31284  0.18392  Biso   1.000  C
  N15      1.0000 0.74360  0.21803  0.28255  Biso   1.000  N
  H120     1.0000 0.79840  0.22180  0.27480  Biso   1.000  H
  O99      1.0000 0.98500  0.14881  0.31948  Biso   1.000  O
  O100     1.0000 0.92850  0.12293  0.35034  Biso   1.000  O
  O101     1.0000 0.63250  0.16405  0.38249  Biso   1.000  O
  O102     1.0000 0.51400  0.16537  0.35537  Biso   1.000  O
  O103     1.0000 0.59270  0.22906  0.28009  Biso   1.000  O
  O104     1.0000 0.70660  0.30747  0.16196  Biso   1.000  O
  O105     1.0000 0.78660  0.33364  0.19242  Biso   1.000  O
  C241     1.0000 0.91670  0.64345  0.83456  Biso   1.000  C
  C242     1.0000 0.83005  0.66046  0.82941  Biso   1.000  C
  C243     1.0000 0.75505  0.65584  0.84621  Biso   1.000  C
  H121     1.0000 0.75930  0.64210  0.86020  Biso   1.000  H
  C244     1.0000 0.67364  0.67179  0.84213  Biso   1.000  C
  C245     1.0000 0.66724  0.69235  0.82125  Biso   1.000  C
  H122     1.0000 0.61280  0.70300  0.81850  Biso   1.000  H
  C246     1.0000 0.74224  0.69697  0.80445  Biso   1.000  C
  C247     1.0000 0.82365  0.68103  0.80853  Biso   1.000  C
  H123     1.0000 0.87380  0.68410  0.79730  Biso   1.000  H
  C248     1.0000 0.59680  0.66670  0.86066  Biso   1.000  C
  C249     1.0000 0.67130  0.73207  0.77308  Biso   1.000  C
  C250     1.0000 0.69079  0.75305  0.74965  Biso   1.000  C
  C251     1.0000 0.62375  0.75682  0.73009  Biso   1.000  C
  H124     1.0000 0.56820  0.74640  0.73130  Biso   1.000  H
  C252     1.0000 0.63979  0.77615  0.70872  Biso   1.000  C
  H125     1.0000 0.59490  0.77870  0.69560  Biso   1.000  H
  C253     1.0000 0.72286  0.79170  0.70691  Biso   1.000  C
  C254     1.0000 0.78990  0.78794  0.72647  Biso   1.000  C
  H126     1.0000 0.84550  0.79830  0.72530  Biso   1.000  H
  C255     1.0000 0.77386  0.76861  0.74784  Biso   1.000  C
  H127     1.0000 0.81870  0.76610  0.76090  Biso   1.000  H
  C256     1.0000 0.73900  0.81284  0.68392  Biso   1.000  C
  N16      1.0000 0.74360  0.71803  0.78255  Biso   1.000  N
  H128     1.0000 0.79840  0.72180  0.77480  Biso   1.000  H
  O106     1.0000 0.98500  0.64881  0.81948  Biso   1.000  O
  O107     1.0000 0.92850  0.62293  0.85034  Biso   1.000  O
  O108     1.0000 0.63250  0.66405  0.88249  Biso   1.000  O
  O109     1.0000 0.51400  0.66537  0.85537  Biso   1.000  O
  O110     1.0000 0.59270  0.72906  0.78009  Biso   1.000  O
  O111     1.0000 0.70660  0.80747  0.66196  Biso   1.000  O
  O112     1.0000 0.78660  0.83364  0.69242  Biso   1.000  O
  C257     1.0000 0.58330  0.39345  0.08456  Biso   1.000  C
  C258     1.0000 0.66995  0.41046  0.07941  Biso   1.000  C
  C259     1.0000 0.74495  0.40584  0.09621  Biso   1.000  C
  H129     1.0000 0.74070  0.39210  0.11020  Biso   1.000  H
  C260     1.0000 0.82636  0.42179  0.09213  Biso   1.000  C
  C261     1.0000 0.83276  0.44235  0.07125  Biso   1.000  C
  H130     1.0000 0.88720  0.45300  0.06850  Biso   1.000  H
  C262     1.0000 0.75776  0.44697  0.05445  Biso   1.000  C
  C263     1.0000 0.67635  0.43103  0.05853  Biso   1.000  C
  H131     1.0000 0.62620  0.43410  0.04730  Biso   1.000  H
  C264     1.0000 0.90320  0.41670  0.11066  Biso   1.000  C
  C265     1.0000 0.82870  0.48207  0.02308  Biso   1.000  C
  C266     1.0000 0.80921  0.50305  0.99965  Biso   1.000  C
  C267     1.0000 0.87625  0.50682  0.98009  Biso   1.000  C
  H132     1.0000 0.93180  0.49640  0.98130  Biso   1.000  H
  C268     1.0000 0.86021  0.52615  0.95872  Biso   1.000  C
  H133     1.0000 0.90510  0.52870  0.94560  Biso   1.000  H
  C269     1.0000 0.77714  0.54170  0.95691  Biso   1.000  C
  C270     1.0000 0.71010  0.53794  0.97647  Biso   1.000  C
  H134     1.0000 0.65450  0.54830  0.97530  Biso   1.000  H
  C271     1.0000 0.72614  0.51861  0.99784  Biso   1.000  C
  H135     1.0000 0.68130  0.51610  0.01090  Biso   1.000  H
  C272     1.0000 0.76100  0.56284  0.93392  Biso   1.000  C
  N17      1.0000 0.75640  0.46803  0.03255  Biso   1.000  N
  H136     1.0000 0.70160  0.47180  0.02480  Biso   1.000  H
  O113     1.0000 0.51500  0.39881  0.06948  Biso   1.000  O
  O114     1.0000 0.57150  0.37293  0.10034  Biso   1.000  O
  O115     1.0000 0.86750  0.41405  0.13249  Biso   1.000  O
  O116     1.0000 0.98600  0.41537  0.10537  Biso   1.000  O
  O117     1.0000 0.90730  0.47906  0.03009  Biso   1.000  O
  O118     1.0000 0.79340  0.55747  0.91196  Biso   1.000  O
  O119     1.0000 0.71340  0.58364  0.94242  Biso   1.000  O
  C273     1.0000 0.58330  0.89345  0.58456  Biso   1.000  C
  C274     1.0000 0.66995  0.91046  0.57941  Biso   1.000  C
  C275     1.0000 0.74495  0.90584  0.59621  Biso   1.000  C
  H137     1.0000 0.74070  0.89210  0.61020  Biso   1.000  H
  C276     1.0000 0.82636  0.92179  0.59213  Biso   1.000  C
  C277     1.0000 0.83276  0.94235  0.57125  Biso   1.000  C
  H138     1.0000 0.88720  0.95300  0.56850  Biso   1.000  H
  C278     1.0000 0.75776  0.94697  0.55445  Biso   1.000  C
  C279     1.0000 0.67635  0.93103  0.55853  Biso   1.000  C
  H139     1.0000 0.62620  0.93410  0.54730  Biso   1.000  H
  C280     1.0000 0.90320  0.91670  0.61066  Biso   1.000  C
  C281     1.0000 0.82870  0.98207  0.52308  Biso   1.000  C
  C282     1.0000 0.80921  0.00305  0.49965  Biso   1.000  C
  C283     1.0000 0.87625  0.00682  0.48009  Biso   1.000  C
  H140     1.0000 0.93180  0.99640  0.48130  Biso   1.000  H
  C284     1.0000 0.86021  0.02615  0.45872  Biso   1.000  C
  H141     1.0000 0.90510  0.02870  0.44560  Biso   1.000  H
  C285     1.0000 0.77714  0.04170  0.45691  Biso   1.000  C
  C286     1.0000 0.71010  0.03794  0.47647  Biso   1.000  C
  H142     1.0000 0.65450  0.04830  0.47530  Biso   1.000  H
  C287     1.0000 0.72614  0.01861  0.49784  Biso   1.000  C
  H143     1.0000 0.68130  0.01610  0.51090  Biso   1.000  H
  C288     1.0000 0.76100  0.06284  0.43392  Biso   1.000  C
  N18      1.0000 0.75640  0.96803  0.53255  Biso   1.000  N
  H144     1.0000 0.70160  0.97180  0.52480  Biso   1.000  H
  O120     1.0000 0.51500  0.89881  0.56948  Biso   1.000  O
  O121     1.0000 0.57150  0.87293  0.60034  Biso   1.000  O
  O122     1.0000 0.86750  0.91405  0.63249  Biso   1.000  O
  O123     1.0000 0.98600  0.91537  0.60537  Biso   1.000  O
  O124     1.0000 0.90730  0.97906  0.53009  Biso   1.000  O
  O125     1.0000 0.79340  0.05747  0.41196  Biso   1.000  O
  O126     1.0000 0.71340  0.08364  0.44242  Biso   1.000  O
  C289     1.0000 0.08330  0.39345  0.58456  Biso   1.000  C
  C290     1.0000 0.16995  0.41046  0.57941  Biso   1.000  C
  C291     1.0000 0.24495  0.40584  0.59621  Biso   1.000  C
  H145     1.0000 0.24070  0.39210  0.61020  Biso   1.000  H
  C292     1.0000 0.32636  0.42179  0.59213  Biso   1.000  C
  C293     1.0000 0.33276  0.44235  0.57125  Biso   1.000  C
  H146     1.0000 0.38720  0.45300  0.56850  Biso   1.000  H
  C294     1.0000 0.25776  0.44697  0.55445  Biso   1.000  C
  C295     1.0000 0.17635  0.43103  0.55853  Biso   1.000  C
  H147     1.0000 0.12620  0.43410  0.54730  Biso   1.000  H
  C296     1.0000 0.40320  0.41670  0.61066  Biso   1.000  C
  C297     1.0000 0.32870  0.48207  0.52308  Biso   1.000  C
  C298     1.0000 0.30921  0.50305  0.49965  Biso   1.000  C
  C299     1.0000 0.37625  0.50682  0.48009  Biso   1.000  C
  H148     1.0000 0.43180  0.49640  0.48130  Biso   1.000  H
  C300     1.0000 0.36021  0.52615  0.45872  Biso   1.000  C
  H149     1.0000 0.40510  0.52870  0.44560  Biso   1.000  H
  C301     1.0000 0.27714  0.54170  0.45691  Biso   1.000  C
  C302     1.0000 0.21010  0.53794  0.47647  Biso   1.000  C
  H150     1.0000 0.15450  0.54830  0.47530  Biso   1.000  H
  C303     1.0000 0.22614  0.51861  0.49784  Biso   1.000  C
  H151     1.0000 0.18130  0.51610  0.51090  Biso   1.000  H
  C304     1.0000 0.26100  0.56284  0.43392  Biso   1.000  C
  N19      1.0000 0.25640  0.46803  0.53255  Biso   1.000  N
  H152     1.0000 0.20160  0.47180  0.52480  Biso   1.000  H
  O127     1.0000 0.01500  0.39881  0.56948  Biso   1.000  O
  O128     1.0000 0.07150  0.37293  0.60034  Biso   1.000  O
  O129     1.0000 0.36750  0.41405  0.63249  Biso   1.000  O
  O130     1.0000 0.48600  0.41537  0.60537  Biso   1.000  O
  O131     1.0000 0.40730  0.47906  0.53009  Biso   1.000  O
  O132     1.0000 0.29340  0.55747  0.41196  Biso   1.000  O
  O133     1.0000 0.21340  0.58364  0.44242  Biso   1.000  O
  C305     1.0000 0.08330  0.89345  0.08456  Biso   1.000  C
  C306     1.0000 0.16995  0.91046  0.07941  Biso   1.000  C
  C307     1.0000 0.24495  0.90584  0.09621  Biso   1.000  C
  H153     1.0000 0.24070  0.89210  0.11020  Biso   1.000  H
  C308     1.0000 0.32636  0.92179  0.09213  Biso   1.000  C
  C309     1.0000 0.33276  0.94235  0.07125  Biso   1.000  C
  H154     1.0000 0.38720  0.95300  0.06850  Biso   1.000  H
  C310     1.0000 0.25776  0.94697  0.05445  Biso   1.000  C
  C311     1.0000 0.17635  0.93103  0.05853  Biso   1.000  C
  H155     1.0000 0.12620  0.93410  0.04730  Biso   1.000  H
  C312     1.0000 0.40320  0.91670  0.11066  Biso   1.000  C
  C313     1.0000 0.32870  0.98207  0.02308  Biso   1.000  C
  C314     1.0000 0.30921  0.00305  0.99965  Biso   1.000  C
  C315     1.0000 0.37625  0.00682  0.98009  Biso   1.000  C
  H156     1.0000 0.43180  0.99640  0.98130  Biso   1.000  H
  C316     1.0000 0.36021  0.02615  0.95872  Biso   1.000  C
  H157     1.0000 0.40510  0.02870  0.94560  Biso   1.000  H
  C317     1.0000 0.27714  0.04170  0.95691  Biso   1.000  C
  C318     1.0000 0.21010  0.03794  0.97647  Biso   1.000  C
  H158     1.0000 0.15450  0.04830  0.97530  Biso   1.000  H
  C319     1.0000 0.22614  0.01861  0.99784  Biso   1.000  C
  H159     1.0000 0.18130  0.01610  0.01090  Biso   1.000  H
  C320     1.0000 0.26100  0.06284  0.93392  Biso   1.000  C
  N20      1.0000 0.25640  0.96803  0.03255  Biso   1.000  N
  H160     1.0000 0.20160  0.97180  0.02480  Biso   1.000  H
  O134     1.0000 0.01500  0.89881  0.06948  Biso   1.000  O
  O135     1.0000 0.07150  0.87293  0.10034  Biso   1.000  O
  O136     1.0000 0.36750  0.91405  0.13249  Biso   1.000  O
  O137     1.0000 0.48600  0.91537  0.10537  Biso   1.000  O
  O138     1.0000 0.40730  0.97906  0.03009  Biso   1.000  O
  O139     1.0000 0.29340  0.05747  0.91196  Biso   1.000  O
  O140     1.0000 0.21340  0.08364  0.94242  Biso   1.000  O
  C321     1.0000 0.66670  0.85655  0.08456  Biso   1.000  C
  C322     1.0000 0.58005  0.83954  0.07941  Biso   1.000  C
  C323     1.0000 0.50505  0.84416  0.09621  Biso   1.000  C
  H161     1.0000 0.50930  0.85790  0.11020  Biso   1.000  H
  C324     1.0000 0.42364  0.82821  0.09213  Biso   1.000  C
  C325     1.0000 0.41724  0.80765  0.07125  Biso   1.000  C
  H162     1.0000 0.36280  0.79700  0.06850  Biso   1.000  H
  C326     1.0000 0.49224  0.80303  0.05445  Biso   1.000  C
  C327     1.0000 0.57365  0.81897  0.05853  Biso   1.000  C
  H163     1.0000 0.62380  0.81590  0.04730  Biso   1.000  H
  C328     1.0000 0.34680  0.83330  0.11066  Biso   1.000  C
  C329     1.0000 0.42130  0.76793  0.02308  Biso   1.000  C
  C330     1.0000 0.44079  0.74695  0.99965  Biso   1.000  C
  C331     1.0000 0.37375  0.74318  0.98009  Biso   1.000  C
  H164     1.0000 0.31820  0.75360  0.98130  Biso   1.000  H
  C332     1.0000 0.38979  0.72385  0.95872  Biso   1.000  C
  H165     1.0000 0.34490  0.72130  0.94560  Biso   1.000  H
  C333     1.0000 0.47286  0.70830  0.95691  Biso   1.000  C
  C334     1.0000 0.53990  0.71206  0.97647  Biso   1.000  C
  H166     1.0000 0.59550  0.70170  0.97530  Biso   1.000  H
  C335     1.0000 0.52386  0.73139  0.99784  Biso   1.000  C
  H167     1.0000 0.56870  0.73390  0.01090  Biso   1.000  H
  C336     1.0000 0.48900  0.68716  0.93392  Biso   1.000  C
  N21      1.0000 0.49360  0.78197  0.03255  Biso   1.000  N
  H168     1.0000 0.54840  0.77820  0.02480  Biso   1.000  H
  O141     1.0000 0.73500  0.85119  0.06948  Biso   1.000  O
  O142     1.0000 0.67850  0.87707  0.10034  Biso   1.000  O
  O143     1.0000 0.38250  0.83595  0.13249  Biso   1.000  O
  O144     1.0000 0.26400  0.83463  0.10537  Biso   1.000  O
  O145     1.0000 0.34270  0.77094  0.03009  Biso   1.000  O
  O146     1.0000 0.45660  0.69253  0.91196  Biso   1.000  O
  O147     1.0000 0.53660  0.66636  0.94242  Biso   1.000  O
  C337     1.0000 0.66670  0.35655  0.58456  Biso   1.000  C
  C338     1.0000 0.58005  0.33954  0.57941  Biso   1.000  C
  C339     1.0000 0.50505  0.34416  0.59621  Biso   1.000  C
  H169     1.0000 0.50930  0.35790  0.61020  Biso   1.000  H
  C340     1.0000 0.42364  0.32821  0.59213  Biso   1.000  C
  C341     1.0000 0.41724  0.30765  0.57125  Biso   1.000  C
  H170     1.0000 0.36280  0.29700  0.56850  Biso   1.000  H
  C342     1.0000 0.49224  0.30303  0.55445  Biso   1.000  C
  C343     1.0000 0.57365  0.31897  0.55853  Biso   1.000  C
  H171     1.0000 0.62380  0.31590  0.54730  Biso   1.000  H
  C344     1.0000 0.34680  0.33330  0.61066  Biso   1.000  C
  C345     1.0000 0.42130  0.26793  0.52308  Biso   1.000  C
  C346     1.0000 0.44079  0.24695  0.49965  Biso   1.000  C
  C347     1.0000 0.37375  0.24318  0.48009  Biso   1.000  C
  H172     1.0000 0.31820  0.25360  0.48130  Biso   1.000  H
  C348     1.0000 0.38979  0.22385  0.45872  Biso   1.000  C
  H173     1.0000 0.34490  0.22130  0.44560  Biso   1.000  H
  C349     1.0000 0.47286  0.20830  0.45691  Biso   1.000  C
  C350     1.0000 0.53990  0.21206  0.47647  Biso   1.000  C
  H174     1.0000 0.59550  0.20170  0.47530  Biso   1.000  H
  C351     1.0000 0.52386  0.23139  0.49784  Biso   1.000  C
  H175     1.0000 0.56870  0.23390  0.51090  Biso   1.000  H
  C352     1.0000 0.48900  0.18716  0.43392  Biso   1.000  C
  N22      1.0000 0.49360  0.28197  0.53255  Biso   1.000  N
  H176     1.0000 0.54840  0.27820  0.52480  Biso   1.000  H
  O148     1.0000 0.73500  0.35119  0.56948  Biso   1.000  O
  O149     1.0000 0.67850  0.37707  0.60034  Biso   1.000  O
  O150     1.0000 0.38250  0.33595  0.63249  Biso   1.000  O
  O151     1.0000 0.26400  0.33463  0.60537  Biso   1.000  O
  O152     1.0000 0.34270  0.27094  0.53009  Biso   1.000  O
  O153     1.0000 0.45660  0.19253  0.41196  Biso   1.000  O
  O154     1.0000 0.53660  0.16636  0.44242  Biso   1.000  O
  C353     1.0000 0.16670  0.85655  0.58456  Biso   1.000  C
  C354     1.0000 0.08005  0.83954  0.57941  Biso   1.000  C
  C355     1.0000 0.00505  0.84416  0.59621  Biso   1.000  C
  H177     1.0000 0.00930  0.85790  0.61020  Biso   1.000  H
  C356     1.0000 0.92364  0.82821  0.59213  Biso   1.000  C
  C357     1.0000 0.91724  0.80765  0.57125  Biso   1.000  C
  H178     1.0000 0.86280  0.79700  0.56850  Biso   1.000  H
  C358     1.0000 0.99224  0.80303  0.55445  Biso   1.000  C
  C359     1.0000 0.07365  0.81897  0.55853  Biso   1.000  C
  H179     1.0000 0.12380  0.81590  0.54730  Biso   1.000  H
  C360     1.0000 0.84680  0.83330  0.61066  Biso   1.000  C
  C361     1.0000 0.92130  0.76793  0.52308  Biso   1.000  C
  C362     1.0000 0.94079  0.74695  0.49965  Biso   1.000  C
  C363     1.0000 0.87375  0.74318  0.48009  Biso   1.000  C
  H180     1.0000 0.81820  0.75360  0.48130  Biso   1.000  H
  C364     1.0000 0.88979  0.72385  0.45872  Biso   1.000  C
  H181     1.0000 0.84490  0.72130  0.44560  Biso   1.000  H
  C365     1.0000 0.97286  0.70830  0.45691  Biso   1.000  C
  C366     1.0000 0.03990  0.71206  0.47647  Biso   1.000  C
  H182     1.0000 0.09550  0.70170  0.47530  Biso   1.000  H
  C367     1.0000 0.02386  0.73139  0.49784  Biso   1.000  C
  H183     1.0000 0.06870  0.73390  0.51090  Biso   1.000  H
  C368     1.0000 0.98900  0.68716  0.43392  Biso   1.000  C
  N23      1.0000 0.99360  0.78197  0.53255  Biso   1.000  N
  H184     1.0000 0.04840  0.77820  0.52480  Biso   1.000  H
  O155     1.0000 0.23500  0.85119  0.56948  Biso   1.000  O
  O156     1.0000 0.17850  0.87707  0.60034  Biso   1.000  O
  O157     1.0000 0.88250  0.83595  0.63249  Biso   1.000  O
  O158     1.0000 0.76400  0.83463  0.60537  Biso   1.000  O
  O159     1.0000 0.84270  0.77094  0.53009  Biso   1.000  O
  O160     1.0000 0.95660  0.69253  0.41196  Biso   1.000  O
  O161     1.0000 0.03660  0.66636  0.44242  Biso   1.000  O
  C369     1.0000 0.16670  0.35655  0.08456  Biso   1.000  C
  C370     1.0000 0.08005  0.33954  0.07941  Biso   1.000  C
  C371     1.0000 0.00505  0.34416  0.09621  Biso   1.000  C
  H185     1.0000 0.00930  0.35790  0.11020  Biso   1.000  H
  C372     1.0000 0.92364  0.32821  0.09213  Biso   1.000  C
  C373     1.0000 0.91724  0.30765  0.07125  Biso   1.000  C
  H186     1.0000 0.86280  0.29700  0.06850  Biso   1.000  H
  C374     1.0000 0.99224  0.30303  0.05445  Biso   1.000  C
  C375     1.0000 0.07365  0.31897  0.05853  Biso   1.000  C
  H187     1.0000 0.12380  0.31590  0.04730  Biso   1.000  H
  C376     1.0000 0.84680  0.33330  0.11066  Biso   1.000  C
  C377     1.0000 0.92130  0.26793  0.02308  Biso   1.000  C
  C378     1.0000 0.94079  0.24695  0.99965  Biso   1.000  C
  C379     1.0000 0.87375  0.24318  0.98009  Biso   1.000  C
  H188     1.0000 0.81820  0.25360  0.98130  Biso   1.000  H
  C380     1.0000 0.88979  0.22385  0.95872  Biso   1.000  C
  H189     1.0000 0.84490  0.22130  0.94560  Biso   1.000  H
  C381     1.0000 0.97286  0.20830  0.95691  Biso   1.000  C
  C382     1.0000 0.03990  0.21206  0.97647  Biso   1.000  C
  H190     1.0000 0.09550  0.20170  0.97530  Biso   1.000  H
  C383     1.0000 0.02386  0.23139  0.99784  Biso   1.000  C
  H191     1.0000 0.06870  0.23390  0.01090  Biso   1.000  H
  C384     1.0000 0.98900  0.18716  0.93392  Biso   1.000  C
  N24      1.0000 0.99360  0.28197  0.03255  Biso   1.000  N
  H192     1.0000 0.04840  0.27820  0.02480  Biso   1.000  H
  O162     1.0000 0.23500  0.35119  0.06948  Biso   1.000  O
  O163     1.0000 0.17850  0.37707  0.10034  Biso   1.000  O
  O164     1.0000 0.88250  0.33595  0.13249  Biso   1.000  O
  O165     1.0000 0.76400  0.33463  0.10537  Biso   1.000  O
  O166     1.0000 0.84270  0.27094  0.03009  Biso   1.000  O
  O167     1.0000 0.95660  0.19253  0.91196  Biso   1.000  O
  O168     1.0000 0.03660  0.16636  0.94242  Biso   1.000  O
  C385     1.0000 0.66670  0.39345  0.16544  Biso   1.000  C
  C386     1.0000 0.58005  0.41046  0.17059  Biso   1.000  C
  C387     1.0000 0.50505  0.40584  0.15379  Biso   1.000  C
  H193     1.0000 0.50930  0.39210  0.13980  Biso   1.000  H
  C388     1.0000 0.42364  0.42179  0.15787  Biso   1.000  C
  C389     1.0000 0.41724  0.44235  0.17875  Biso   1.000  C
  H194     1.0000 0.36280  0.45300  0.18150  Biso   1.000  H
  C390     1.0000 0.49224  0.44697  0.19555  Biso   1.000  C
  C391     1.0000 0.57365  0.43103  0.19147  Biso   1.000  C
  H195     1.0000 0.62380  0.43410  0.20270  Biso   1.000  H
  C392     1.0000 0.34680  0.41670  0.13934  Biso   1.000  C
  C393     1.0000 0.42130  0.48207  0.22692  Biso   1.000  C
  C394     1.0000 0.44079  0.50305  0.25035  Biso   1.000  C
  C395     1.0000 0.37375  0.50682  0.26991  Biso   1.000  C
  H196     1.0000 0.31820  0.49640  0.26870  Biso   1.000  H
  C396     1.0000 0.38979  0.52615  0.29128  Biso   1.000  C
  H197     1.0000 0.34490  0.52870  0.30440  Biso   1.000  H
  C397     1.0000 0.47286  0.54170  0.29309  Biso   1.000  C
  C398     1.0000 0.53990  0.53794  0.27353  Biso   1.000  C
  H198     1.0000 0.59550  0.54830  0.27470  Biso   1.000  H
  C399     1.0000 0.52386  0.51861  0.25216  Biso   1.000  C
  H199     1.0000 0.56870  0.51610  0.23910  Biso   1.000  H
  C400     1.0000 0.48900  0.56284  0.31608  Biso   1.000  C
  N25      1.0000 0.49360  0.46803  0.21745  Biso   1.000  N
  H200     1.0000 0.54840  0.47180  0.22520  Biso   1.000  H
  O169     1.0000 0.73500  0.39881  0.18052  Biso   1.000  O
  O170     1.0000 0.67850  0.37293  0.14966  Biso   1.000  O
  O171     1.0000 0.38250  0.41405  0.11751  Biso   1.000  O
  O172     1.0000 0.26400  0.41537  0.14463  Biso   1.000  O
  O173     1.0000 0.34270  0.47906  0.21991  Biso   1.000  O
  O174     1.0000 0.45660  0.55747  0.33804  Biso   1.000  O
  O175     1.0000 0.53660  0.58364  0.30758  Biso   1.000  O
  C401     1.0000 0.66670  0.89345  0.66544  Biso   1.000  C
  C402     1.0000 0.58005  0.91046  0.67059  Biso   1.000  C
  C403     1.0000 0.50505  0.90584  0.65379  Biso   1.000  C
  H201     1.0000 0.50930  0.89210  0.63980  Biso   1.000  H
  C404     1.0000 0.42364  0.92179  0.65787  Biso   1.000  C
  C405     1.0000 0.41724  0.94235  0.67875  Biso   1.000  C
  H202     1.0000 0.36280  0.95300  0.68150  Biso   1.000  H
  C406     1.0000 0.49224  0.94697  0.69555  Biso   1.000  C
  C407     1.0000 0.57365  0.93103  0.69147  Biso   1.000  C
  H203     1.0000 0.62380  0.93410  0.70270  Biso   1.000  H
  C408     1.0000 0.34680  0.91670  0.63934  Biso   1.000  C
  C409     1.0000 0.42130  0.98207  0.72692  Biso   1.000  C
  C410     1.0000 0.44079  0.00305  0.75035  Biso   1.000  C
  C411     1.0000 0.37375  0.00682  0.76991  Biso   1.000  C
  H204     1.0000 0.31820  0.99640  0.76870  Biso   1.000  H
  C412     1.0000 0.38979  0.02615  0.79128  Biso   1.000  C
  H205     1.0000 0.34490  0.02870  0.80440  Biso   1.000  H
  C413     1.0000 0.47286  0.04170  0.79309  Biso   1.000  C
  C414     1.0000 0.53990  0.03794  0.77353  Biso   1.000  C
  H206     1.0000 0.59550  0.04830  0.77470  Biso   1.000  H
  C415     1.0000 0.52386  0.01861  0.75216  Biso   1.000  C
  H207     1.0000 0.56870  0.01610  0.73910  Biso   1.000  H
  C416     1.0000 0.48900  0.06284  0.81608  Biso   1.000  C
  N26      1.0000 0.49360  0.96803  0.71745  Biso   1.000  N
  H208     1.0000 0.54840  0.97180  0.72520  Biso   1.000  H
  O176     1.0000 0.73500  0.89881  0.68052  Biso   1.000  O
  O177     1.0000 0.67850  0.87293  0.64966  Biso   1.000  O
  O178     1.0000 0.38250  0.91405  0.61751  Biso   1.000  O
  O179     1.0000 0.26400  0.91537  0.64463  Biso   1.000  O
  O180     1.0000 0.34270  0.97906  0.71991  Biso   1.000  O
  O181     1.0000 0.45660  0.05747  0.83804  Biso   1.000  O
  O182     1.0000 0.53660  0.08364  0.80758  Biso   1.000  O
  C417     1.0000 0.16670  0.39345  0.66544  Biso   1.000  C
  C418     1.0000 0.08005  0.41046  0.67059  Biso   1.000  C
  C419     1.0000 0.00505  0.40584  0.65379  Biso   1.000  C
  H209     1.0000 0.00930  0.39210  0.63980  Biso   1.000  H
  C420     1.0000 0.92364  0.42179  0.65787  Biso   1.000  C
  C421     1.0000 0.91724  0.44235  0.67875  Biso   1.000  C
  H210     1.0000 0.86280  0.45300  0.68150  Biso   1.000  H
  C422     1.0000 0.99224  0.44697  0.69555  Biso   1.000  C
  C423     1.0000 0.07365  0.43103  0.69147  Biso   1.000  C
  H211     1.0000 0.12380  0.43410  0.70270  Biso   1.000  H
  C424     1.0000 0.84680  0.41670  0.63934  Biso   1.000  C
  C425     1.0000 0.92130  0.48207  0.72692  Biso   1.000  C
  C426     1.0000 0.94079  0.50305  0.75035  Biso   1.000  C
  C427     1.0000 0.87375  0.50682  0.76991  Biso   1.000  C
  H212     1.0000 0.81820  0.49640  0.76870  Biso   1.000  H
  C428     1.0000 0.88979  0.52615  0.79128  Biso   1.000  C
  H213     1.0000 0.84490  0.52870  0.80440  Biso   1.000  H
  C429     1.0000 0.97286  0.54170  0.79309  Biso   1.000  C
  C430     1.0000 0.03990  0.53794  0.77353  Biso   1.000  C
  H214     1.0000 0.09550  0.54830  0.77470  Biso   1.000  H
  C431     1.0000 0.02386  0.51861  0.75216  Biso   1.000  C
  H215     1.0000 0.06870  0.51610  0.73910  Biso   1.000  H
  C432     1.0000 0.98900  0.56284  0.81608  Biso   1.000  C
  N27      1.0000 0.99360  0.46803  0.71745  Biso   1.000  N
  H216     1.0000 0.04840  0.47180  0.72520  Biso   1.000  H
  O183     1.0000 0.23500  0.39881  0.68052  Biso   1.000  O
  O184     1.0000 0.17850  0.37293  0.64966  Biso   1.000  O
  O185     1.0000 0.88250  0.41405  0.61751  Biso   1.000  O
  O186     1.0000 0.76400  0.41537  0.64463  Biso   1.000  O
  O187     1.0000 0.84270  0.47906  0.71991  Biso   1.000  O
  O188     1.0000 0.95660  0.55747  0.83804  Biso   1.000  O
  O189     1.0000 0.03660  0.58364  0.80758  Biso   1.000  O
  C433     1.0000 0.16670  0.89345  0.16544  Biso   1.000  C
  C434     1.0000 0.08005  0.91046  0.17059  Biso   1.000  C
  C435     1.0000 0.00505  0.90584  0.15379  Biso   1.000  C
  H217     1.0000 0.00930  0.89210  0.13980  Biso   1.000  H
  C436     1.0000 0.92364  0.92179  0.15787  Biso   1.000  C
  C437     1.0000 0.91724  0.94235  0.17875  Biso   1.000  C
  H218     1.0000 0.86280  0.95300  0.18150  Biso   1.000  H
  C438     1.0000 0.99224  0.94697  0.19555  Biso   1.000  C
  C439     1.0000 0.07365  0.93103  0.19147  Biso   1.000  C
  H219     1.0000 0.12380  0.93410  0.20270  Biso   1.000  H
  C440     1.0000 0.84680  0.91670  0.13934  Biso   1.000  C
  C441     1.0000 0.92130  0.98207  0.22692  Biso   1.000  C
  C442     1.0000 0.94079  0.00305  0.25035  Biso   1.000  C
  C443     1.0000 0.87375  0.00682  0.26991  Biso   1.000  C
  H220     1.0000 0.81820  0.99640  0.26870  Biso   1.000  H
  C444     1.0000 0.88979  0.02615  0.29128  Biso   1.000  C
  H221     1.0000 0.84490  0.02870  0.30440  Biso   1.000  H
  C445     1.0000 0.97286  0.04170  0.29309  Biso   1.000  C
  C446     1.0000 0.03990  0.03794  0.27353  Biso   1.000  C
  H222     1.0000 0.09550  0.04830  0.27470  Biso   1.000  H
  C447     1.0000 0.02386  0.01861  0.25216  Biso   1.000  C
  H223     1.0000 0.06870  0.01610  0.23910  Biso   1.000  H
  C448     1.0000 0.98900  0.06284  0.31608  Biso   1.000  C
  N28      1.0000 0.99360  0.96803  0.21745  Biso   1.000  N
  H224     1.0000 0.04840  0.97180  0.22520  Biso   1.000  H
  O190     1.0000 0.23500  0.89881  0.18052  Biso   1.000  O
  O191     1.0000 0.17850  0.87293  0.14966  Biso   1.000  O
  O192     1.0000 0.88250  0.91405  0.11751  Biso   1.000  O
  O193     1.0000 0.76400  0.91537  0.14463  Biso   1.000  O
  O194     1.0000 0.84270  0.97906  0.21991  Biso   1.000  O
  O195     1.0000 0.95660  0.05747  0.33804  Biso   1.000  O
  O196     1.0000 0.03660  0.08364  0.30758  Biso   1.000  O
  C449     1.0000 0.58330  0.85655  0.16544  Biso   1.000  C
  C450     1.0000 0.66995  0.83954  0.17059  Biso   1.000  C
  C451     1.0000 0.74495  0.84416  0.15379  Biso   1.000  C
  H225     1.0000 0.74070  0.85790  0.13980  Biso   1.000  H
  C452     1.0000 0.82636  0.82821  0.15787  Biso   1.000  C
  C453     1.0000 0.83276  0.80765  0.17875  Biso   1.000  C
  H226     1.0000 0.88720  0.79700  0.18150  Biso   1.000  H
  C454     1.0000 0.75776  0.80303  0.19555  Biso   1.000  C
  C455     1.0000 0.67635  0.81897  0.19147  Biso   1.000  C
  H227     1.0000 0.62620  0.81590  0.20270  Biso   1.000  H
  C456     1.0000 0.90320  0.83330  0.13934  Biso   1.000  C
  C457     1.0000 0.82870  0.76793  0.22692  Biso   1.000  C
  C458     1.0000 0.80921  0.74695  0.25035  Biso   1.000  C
  C459     1.0000 0.87625  0.74318  0.26991  Biso   1.000  C
  H228     1.0000 0.93180  0.75360  0.26870  Biso   1.000  H
  C460     1.0000 0.86021  0.72385  0.29128  Biso   1.000  C
  H229     1.0000 0.90510  0.72130  0.30440  Biso   1.000  H
  C461     1.0000 0.77714  0.70830  0.29309  Biso   1.000  C
  C462     1.0000 0.71010  0.71206  0.27353  Biso   1.000  C
  H230     1.0000 0.65450  0.70170  0.27470  Biso   1.000  H
  C463     1.0000 0.72614  0.73139  0.25216  Biso   1.000  C
  H231     1.0000 0.68130  0.73390  0.23910  Biso   1.000  H
  C464     1.0000 0.76100  0.68716  0.31608  Biso   1.000  C
  N29      1.0000 0.75640  0.78197  0.21745  Biso   1.000  N
  H232     1.0000 0.70160  0.77820  0.22520  Biso   1.000  H
  O197     1.0000 0.51500  0.85119  0.18052  Biso   1.000  O
  O198     1.0000 0.57150  0.87707  0.14966  Biso   1.000  O
  O199     1.0000 0.86750  0.83595  0.11751  Biso   1.000  O
  O200     1.0000 0.98600  0.83463  0.14463  Biso   1.000  O
  O201     1.0000 0.90730  0.77094  0.21991  Biso   1.000  O
  O202     1.0000 0.79340  0.69253  0.33804  Biso   1.000  O
  O203     1.0000 0.71340  0.66636  0.30758  Biso   1.000  O
  C465     1.0000 0.58330  0.35655  0.66544  Biso   1.000  C
  C466     1.0000 0.66995  0.33954  0.67059  Biso   1.000  C
  C467     1.0000 0.74495  0.34416  0.65379  Biso   1.000  C
  H233     1.0000 0.74070  0.35790  0.63980  Biso   1.000  H
  C468     1.0000 0.82636  0.32821  0.65787  Biso   1.000  C
  C469     1.0000 0.83276  0.30765  0.67875  Biso   1.000  C
  H234     1.0000 0.88720  0.29700  0.68150  Biso   1.000  H
  C470     1.0000 0.75776  0.30303  0.69555  Biso   1.000  C
  C471     1.0000 0.67635  0.31897  0.69147  Biso   1.000  C
  H235     1.0000 0.62620  0.31590  0.70270  Biso   1.000  H
  C472     1.0000 0.90320  0.33330  0.63934  Biso   1.000  C
  C473     1.0000 0.82870  0.26793  0.72692  Biso   1.000  C
  C474     1.0000 0.80921  0.24695  0.75035  Biso   1.000  C
  C475     1.0000 0.87625  0.24318  0.76991  Biso   1.000  C
  H236     1.0000 0.93180  0.25360  0.76870  Biso   1.000  H
  C476     1.0000 0.86021  0.22385  0.79128  Biso   1.000  C
  H237     1.0000 0.90510  0.22130  0.80440  Biso   1.000  H
  C477     1.0000 0.77714  0.20830  0.79309  Biso   1.000  C
  C478     1.0000 0.71010  0.21206  0.77353  Biso   1.000  C
  H238     1.0000 0.65450  0.20170  0.77470  Biso   1.000  H
  C479     1.0000 0.72614  0.23139  0.75216  Biso   1.000  C
  H239     1.0000 0.68130  0.23390  0.73910  Biso   1.000  H
  C480     1.0000 0.76100  0.18716  0.81608  Biso   1.000  C
  N30      1.0000 0.75640  0.28197  0.71745  Biso   1.000  N
  H240     1.0000 0.70160  0.27820  0.72520  Biso   1.000  H
  O204     1.0000 0.51500  0.35119  0.68052  Biso   1.000  O
  O205     1.0000 0.57150  0.37707  0.64966  Biso   1.000  O
  O206     1.0000 0.86750  0.33595  0.61751  Biso   1.000  O
  O207     1.0000 0.98600  0.33463  0.64463  Biso   1.000  O
  O208     1.0000 0.90730  0.27094  0.71991  Biso   1.000  O
  O209     1.0000 0.79340  0.19253  0.83804  Biso   1.000  O
  O210     1.0000 0.71340  0.16636  0.80758  Biso   1.000  O
  C481     1.0000 0.08330  0.85655  0.66544  Biso   1.000  C
  C482     1.0000 0.16995  0.83954  0.67059  Biso   1.000  C
  C483     1.0000 0.24495  0.84416  0.65379  Biso   1.000  C
  H241     1.0000 0.24070  0.85790  0.63980  Biso   1.000  H
  C484     1.0000 0.32636  0.82821  0.65787  Biso   1.000  C
  C485     1.0000 0.33276  0.80765  0.67875  Biso   1.000  C
  H242     1.0000 0.38720  0.79700  0.68150  Biso   1.000  H
  C486     1.0000 0.25776  0.80303  0.69555  Biso   1.000  C
  C487     1.0000 0.17635  0.81897  0.69147  Biso   1.000  C
  H243     1.0000 0.12620  0.81590  0.70270  Biso   1.000  H
  C488     1.0000 0.40320  0.83330  0.63934  Biso   1.000  C
  C489     1.0000 0.32870  0.76793  0.72692  Biso   1.000  C
  C490     1.0000 0.30921  0.74695  0.75035  Biso   1.000  C
  C491     1.0000 0.37625  0.74318  0.76991  Biso   1.000  C
  H244     1.0000 0.43180  0.75360  0.76870  Biso   1.000  H
  C492     1.0000 0.36021  0.72385  0.79128  Biso   1.000  C
  H245     1.0000 0.40510  0.72130  0.80440  Biso   1.000  H
  C493     1.0000 0.27714  0.70830  0.79309  Biso   1.000  C
  C494     1.0000 0.21010  0.71206  0.77353  Biso   1.000  C
  H246     1.0000 0.15450  0.70170  0.77470  Biso   1.000  H
  C495     1.0000 0.22614  0.73139  0.75216  Biso   1.000  C
  H247     1.0000 0.18130  0.73390  0.73910  Biso   1.000  H
  C496     1.0000 0.26100  0.68716  0.81608  Biso   1.000  C
  N31      1.0000 0.25640  0.78197  0.71745  Biso   1.000  N
  H248     1.0000 0.20160  0.77820  0.72520  Biso   1.000  H
  O211     1.0000 0.01500  0.85119  0.68052  Biso   1.000  O
  O212     1.0000 0.07150  0.87707  0.64966  Biso   1.000  O
  O213     1.0000 0.36750  0.83595  0.61751  Biso   1.000  O
  O214     1.0000 0.48600  0.83463  0.64463  Biso   1.000  O
  O215     1.0000 0.40730  0.77094  0.71991  Biso   1.000  O
  O216     1.0000 0.29340  0.69253  0.83804  Biso   1.000  O
  O217     1.0000 0.21340  0.66636  0.80758  Biso   1.000  O
  C497     1.0000 0.08330  0.35655  0.16544  Biso   1.000  C
  C498     1.0000 0.16995  0.33954  0.17059  Biso   1.000  C
  C499     1.0000 0.24495  0.34416  0.15379  Biso   1.000  C
  H249     1.0000 0.24070  0.35790  0.13980  Biso   1.000  H
  C500     1.0000 0.32636  0.32821  0.15787  Biso   1.000  C
  C501     1.0000 0.33276  0.30765  0.17875  Biso   1.000  C
  H250     1.0000 0.38720  0.29700  0.18150  Biso   1.000  H
  C502     1.0000 0.25776  0.30303  0.19555  Biso   1.000  C
  C503     1.0000 0.17635  0.31897  0.19147  Biso   1.000  C
  H251     1.0000 0.12620  0.31590  0.20270  Biso   1.000  H
  C504     1.0000 0.40320  0.33330  0.13934  Biso   1.000  C
  C505     1.0000 0.32870  0.26793  0.22692  Biso   1.000  C
  C506     1.0000 0.30921  0.24695  0.25035  Biso   1.000  C
  C507     1.0000 0.37625  0.24318  0.26991  Biso   1.000  C
  H252     1.0000 0.43180  0.25360  0.26870  Biso   1.000  H
  C508     1.0000 0.36021  0.22385  0.29128  Biso   1.000  C
  H253     1.0000 0.40510  0.22130  0.30440  Biso   1.000  H
  C509     1.0000 0.27714  0.20830  0.29309  Biso   1.000  C
  C510     1.0000 0.21010  0.21206  0.27353  Biso   1.000  C
  H254     1.0000 0.15450  0.20170  0.27470  Biso   1.000  H
  C511     1.0000 0.22614  0.23139  0.25216  Biso   1.000  C
  H255     1.0000 0.18130  0.23390  0.23910  Biso   1.000  H
  C512     1.0000 0.26100  0.18716  0.31608  Biso   1.000  C
  N32      1.0000 0.25640  0.28197  0.21745  Biso   1.000  N
  H256     1.0000 0.20160  0.27820  0.22520  Biso   1.000  H
  O218     1.0000 0.01500  0.35119  0.18052  Biso   1.000  O
  O219     1.0000 0.07150  0.37707  0.14966  Biso   1.000  O
  O220     1.0000 0.36750  0.33595  0.11751  Biso   1.000  O
  O221     1.0000 0.48600  0.33463  0.14463  Biso   1.000  O
  O222     1.0000 0.40730  0.27094  0.21991  Biso   1.000  O
  O223     1.0000 0.29340  0.19253  0.33804  Biso   1.000  O
  O224     1.0000 0.21340  0.16636  0.30758  Biso   1.000  O
  Tb1      1.0000 0.62500  0.62500  0.91981  Biso   1.000  Tb
  Tb2      1.0000 0.62500  0.12500  0.41981  Biso   1.000  Tb
  Tb3      1.0000 0.12500  0.12500  0.91981  Biso   1.000  Tb
  Tb4      1.0000 0.12500  0.62500  0.41981  Biso   1.000  Tb
  Tb5      1.0000 0.12500  0.62500  0.83019  Biso   1.000  Tb
  Tb6      1.0000 0.12500  0.12500  0.33019  Biso   1.000  Tb
  Tb7      1.0000 0.62500  0.62500  0.33019  Biso   1.000  Tb
  Tb8      1.0000 0.62500  0.12500  0.83019  Biso   1.000  Tb
  Tb9      1.0000 0.37500  0.37500  0.08019  Biso   1.000  Tb
  Tb10     1.0000 0.37500  0.87500  0.58019  Biso   1.000  Tb
  Tb11     1.0000 0.87500  0.87500  0.08019  Biso   1.000  Tb
  Tb12     1.0000 0.87500  0.37500  0.58019  Biso   1.000  Tb
  Tb13     1.0000 0.87500  0.37500  0.16981  Biso   1.000  Tb
  Tb14     1.0000 0.87500  0.87500  0.66981  Biso   1.000  Tb
  Tb15     1.0000 0.37500  0.87500  0.16981  Biso   1.000  Tb
  Tb16     1.0000 0.37500  0.37500  0.66981  Biso   1.000  Tb
  Tb17     1.0000 0.37500  0.67129  0.87500  Biso   1.000  Tb
  Tb18     1.0000 0.37500  0.17129  0.37500  Biso   1.000  Tb
  Tb19     1.0000 0.87500  0.67129  0.37500  Biso   1.000  Tb
  Tb20     1.0000 0.87500  0.17129  0.87500  Biso   1.000  Tb
  Tb21     1.0000 0.37500  0.07871  0.87500  Biso   1.000  Tb
  Tb22     1.0000 0.37500  0.57871  0.37500  Biso   1.000  Tb
  Tb23     1.0000 0.87500  0.07871  0.37500  Biso   1.000  Tb
  Tb24     1.0000 0.87500  0.57871  0.87500  Biso   1.000  Tb
  Tb25     1.0000 0.62500  0.32871  0.12500  Biso   1.000  Tb
  Tb26     1.0000 0.62500  0.82871  0.62500  Biso   1.000  Tb
  Tb27     1.0000 0.12500  0.32871  0.62500  Biso   1.000  Tb
  Tb28     1.0000 0.12500  0.82871  0.12500  Biso   1.000  Tb
  Tb29     1.0000 0.62500  0.92129  0.12500  Biso   1.000  Tb
  Tb30     1.0000 0.62500  0.42129  0.62500  Biso   1.000  Tb
  Tb31     1.0000 0.12500  0.92129  0.62500  Biso   1.000  Tb
  Tb32     1.0000 0.12500  0.42129  0.12500  Biso   1.000  Tb
