data_image0
_cell_length_a       14.5012
_cell_length_b       44.132
_cell_length_c       50.412
_cell_angle_alpha    90
_cell_angle_beta     90
_cell_angle_gamma    90

_symmetry_space_group_name_H-M    "P 1"
_symmetry_int_tables_number       1

loop_
  _symmetry_equiv_pos_as_xyz
  'x, y, z'

loop_
  _atom_site_label
  _atom_site_occupancy
  _atom_site_fract_x
  _atom_site_fract_y
  _atom_site_fract_z
  _atom_site_thermal_displace_type
  _atom_site_B_iso_or_equiv
  _atom_site_type_symbol
  C1       1.0000 0.41730  0.60635  0.91542  Biso   1.000  C
  C2       1.0000 0.32990  0.58950  0.92054  Biso   1.000  C
  C3       1.0000 0.25480  0.59419  0.90403  Biso   1.000  C
  H1       1.0000 0.25880  0.60820  0.89030  Biso   1.000  H
  C4       1.0000 0.17420  0.57823  0.90784  Biso   1.000  C
  C5       1.0000 0.16800  0.55774  0.92869  Biso   1.000  C
  H2       1.0000 0.11340  0.54720  0.93140  Biso   1.000  H
  C6       1.0000 0.24240  0.55290  0.94545  Biso   1.000  C
  C7       1.0000 0.32350  0.56884  0.94158  Biso   1.000  C
  H3       1.0000 0.37340  0.56590  0.95290  Biso   1.000  H
  C8       1.0000 0.09680  0.58332  0.88936  Biso   1.000  C
  C9       1.0000 0.17190  0.51776  0.97709  Biso   1.000  C
  C10      1.0000 0.19030  0.49699  0.00045  Biso   1.000  C
  C11      1.0000 0.12390  0.49336  0.01994  Biso   1.000  C
  H4       1.0000 0.06830  0.50380  0.01870  Biso   1.000  H
  C12      1.0000 0.13960  0.47412  0.04150  Biso   1.000  C
  H5       1.0000 0.09490  0.47170  0.05460  Biso   1.000  H
  C13      1.0000 0.22270  0.45864  0.04319  Biso   1.000  C
  C14      1.0000 0.28960  0.46196  0.02338  Biso   1.000  C
  H6       1.0000 0.34460  0.45120  0.02440  Biso   1.000  H
  C15      1.0000 0.27390  0.48128  0.00233  Biso   1.000  C
  H7       1.0000 0.31890  0.48390  0.98940  Biso   1.000  H
  C16      1.0000 0.23840  0.43711  0.06606  Biso   1.000  C
  N1       1.0000 0.24380  0.53202  0.96748  Biso   1.000  N
  H8       1.0000 0.29620  0.52870  0.97490  Biso   1.000  H
  O1       1.0000 0.48570  0.60093  0.93045  Biso   1.000  O
  O2       1.0000 0.42780  0.62728  0.89966  Biso   1.000  O
  O3       1.0000 0.13140  0.58651  0.86746  Biso   1.000  O
  O4       1.0000 0.01420  0.58425  0.89495  Biso   1.000  O
  O5       1.0000 0.09240  0.52105  0.96989  Biso   1.000  O
  O6       1.0000 0.20470  0.44228  0.08798  Biso   1.000  O
  O7       1.0000 0.28770  0.41634  0.05803  Biso   1.000  O
  C17      1.0000 0.41730  0.10635  0.41542  Biso   1.000  C
  C18      1.0000 0.32990  0.08950  0.42054  Biso   1.000  C
  C19      1.0000 0.25480  0.09419  0.40403  Biso   1.000  C
  H9       1.0000 0.25880  0.10820  0.39030  Biso   1.000  H
  C20      1.0000 0.17420  0.07823  0.40784  Biso   1.000  C
  C21      1.0000 0.16800  0.05774  0.42869  Biso   1.000  C
  H10      1.0000 0.11340  0.04720  0.43140  Biso   1.000  H
  C22      1.0000 0.24240  0.05290  0.44545  Biso   1.000  C
  C23      1.0000 0.32350  0.06884  0.44158  Biso   1.000  C
  H11      1.0000 0.37340  0.06590  0.45290  Biso   1.000  H
  C24      1.0000 0.09680  0.08332  0.38936  Biso   1.000  C
  C25      1.0000 0.17190  0.01776  0.47709  Biso   1.000  C
  C26      1.0000 0.19030  0.99699  0.50045  Biso   1.000  C
  C27      1.0000 0.12390  0.99336  0.51994  Biso   1.000  C
  H12      1.0000 0.06830  0.00380  0.51870  Biso   1.000  H
  C28      1.0000 0.13960  0.97412  0.54150  Biso   1.000  C
  H13      1.0000 0.09490  0.97170  0.55460  Biso   1.000  H
  C29      1.0000 0.22270  0.95864  0.54319  Biso   1.000  C
  C30      1.0000 0.28960  0.96196  0.52338  Biso   1.000  C
  H14      1.0000 0.34460  0.95120  0.52440  Biso   1.000  H
  C31      1.0000 0.27390  0.98128  0.50233  Biso   1.000  C
  H15      1.0000 0.31890  0.98390  0.48940  Biso   1.000  H
  C32      1.0000 0.23840  0.93711  0.56606  Biso   1.000  C
  N2       1.0000 0.24380  0.03202  0.46748  Biso   1.000  N
  H16      1.0000 0.29620  0.02870  0.47490  Biso   1.000  H
  O8       1.0000 0.48570  0.10093  0.43045  Biso   1.000  O
  O9       1.0000 0.42780  0.12728  0.39966  Biso   1.000  O
  O10      1.0000 0.13140  0.08651  0.36746  Biso   1.000  O
  O11      1.0000 0.01420  0.08425  0.39495  Biso   1.000  O
  O12      1.0000 0.09240  0.02105  0.46989  Biso   1.000  O
  O13      1.0000 0.20470  0.94228  0.58798  Biso   1.000  O
  O14      1.0000 0.28770  0.91634  0.55803  Biso   1.000  O
  C33      1.0000 0.91730  0.60635  0.41542  Biso   1.000  C
  C34      1.0000 0.82990  0.58950  0.42054  Biso   1.000  C
  C35      1.0000 0.75480  0.59419  0.40403  Biso   1.000  C
  H17      1.0000 0.75880  0.60820  0.39030  Biso   1.000  H
  C36      1.0000 0.67420  0.57823  0.40784  Biso   1.000  C
  C37      1.0000 0.66800  0.55774  0.42869  Biso   1.000  C
  H18      1.0000 0.61340  0.54720  0.43140  Biso   1.000  H
  C38      1.0000 0.74240  0.55290  0.44545  Biso   1.000  C
  C39      1.0000 0.82350  0.56884  0.44158  Biso   1.000  C
  H19      1.0000 0.87340  0.56590  0.45290  Biso   1.000  H
  C40      1.0000 0.59680  0.58332  0.38936  Biso   1.000  C
  C41      1.0000 0.67190  0.51776  0.47709  Biso   1.000  C
  C42      1.0000 0.69030  0.49699  0.50045  Biso   1.000  C
  C43      1.0000 0.62390  0.49336  0.51994  Biso   1.000  C
  H20      1.0000 0.56830  0.50380  0.51870  Biso   1.000  H
  C44      1.0000 0.63960  0.47412  0.54150  Biso   1.000  C
  H21      1.0000 0.59490  0.47170  0.55460  Biso   1.000  H
  C45      1.0000 0.72270  0.45864  0.54319  Biso   1.000  C
  C46      1.0000 0.78960  0.46196  0.52338  Biso   1.000  C
  H22      1.0000 0.84460  0.45120  0.52440  Biso   1.000  H
  C47      1.0000 0.77390  0.48128  0.50233  Biso   1.000  C
  H23      1.0000 0.81890  0.48390  0.48940  Biso   1.000  H
  C48      1.0000 0.73840  0.43711  0.56606  Biso   1.000  C
  N3       1.0000 0.74380  0.53202  0.46748  Biso   1.000  N
  H24      1.0000 0.79620  0.52870  0.47490  Biso   1.000  H
  O15      1.0000 0.98570  0.60093  0.43045  Biso   1.000  O
  O16      1.0000 0.92780  0.62728  0.39966  Biso   1.000  O
  O17      1.0000 0.63140  0.58651  0.36746  Biso   1.000  O
  O18      1.0000 0.51420  0.58425  0.39495  Biso   1.000  O
  O19      1.0000 0.59240  0.52105  0.46989  Biso   1.000  O
  O20      1.0000 0.70470  0.44228  0.58798  Biso   1.000  O
  O21      1.0000 0.78770  0.41634  0.55803  Biso   1.000  O
  C49      1.0000 0.91730  0.10635  0.91542  Biso   1.000  C
  C50      1.0000 0.82990  0.08950  0.92054  Biso   1.000  C
  C51      1.0000 0.75480  0.09419  0.90403  Biso   1.000  C
  H25      1.0000 0.75880  0.10820  0.89030  Biso   1.000  H
  C52      1.0000 0.67420  0.07823  0.90784  Biso   1.000  C
  C53      1.0000 0.66800  0.05774  0.92869  Biso   1.000  C
  H26      1.0000 0.61340  0.04720  0.93140  Biso   1.000  H
  C54      1.0000 0.74240  0.05290  0.94545  Biso   1.000  C
  C55      1.0000 0.82350  0.06884  0.94158  Biso   1.000  C
  H27      1.0000 0.87340  0.06590  0.95290  Biso   1.000  H
  C56      1.0000 0.59680  0.08332  0.88936  Biso   1.000  C
  C57      1.0000 0.67190  0.01776  0.97709  Biso   1.000  C
  C58      1.0000 0.69030  0.99699  0.00045  Biso   1.000  C
  C59      1.0000 0.62390  0.99336  0.01994  Biso   1.000  C
  H28      1.0000 0.56830  0.00380  0.01870  Biso   1.000  H
  C60      1.0000 0.63960  0.97412  0.04150  Biso   1.000  C
  H29      1.0000 0.59490  0.97170  0.05460  Biso   1.000  H
  C61      1.0000 0.72270  0.95864  0.04319  Biso   1.000  C
  C62      1.0000 0.78960  0.96196  0.02338  Biso   1.000  C
  H30      1.0000 0.84460  0.95120  0.02440  Biso   1.000  H
  C63      1.0000 0.77390  0.98128  0.00233  Biso   1.000  C
  H31      1.0000 0.81890  0.98390  0.98940  Biso   1.000  H
  C64      1.0000 0.73840  0.93711  0.06606  Biso   1.000  C
  N4       1.0000 0.74380  0.03202  0.96748  Biso   1.000  N
  H32      1.0000 0.79620  0.02870  0.97490  Biso   1.000  H
  O22      1.0000 0.98570  0.10093  0.93045  Biso   1.000  O
  O23      1.0000 0.92780  0.12728  0.89966  Biso   1.000  O
  O24      1.0000 0.63140  0.08651  0.86746  Biso   1.000  O
  O25      1.0000 0.51420  0.08425  0.89495  Biso   1.000  O
  O26      1.0000 0.59240  0.02105  0.96989  Biso   1.000  O
  O27      1.0000 0.70470  0.94228  0.08798  Biso   1.000  O
  O28      1.0000 0.78770  0.91634  0.05803  Biso   1.000  O
  C65      1.0000 0.33270  0.14365  0.91542  Biso   1.000  C
  C66      1.0000 0.42010  0.16050  0.92054  Biso   1.000  C
  C67      1.0000 0.49520  0.15581  0.90403  Biso   1.000  C
  H33      1.0000 0.49120  0.14180  0.89030  Biso   1.000  H
  C68      1.0000 0.57580  0.17177  0.90784  Biso   1.000  C
  C69      1.0000 0.58200  0.19226  0.92869  Biso   1.000  C
  H34      1.0000 0.63660  0.20280  0.93140  Biso   1.000  H
  C70      1.0000 0.50760  0.19710  0.94545  Biso   1.000  C
  C71      1.0000 0.42650  0.18116  0.94158  Biso   1.000  C
  H35      1.0000 0.37660  0.18410  0.95290  Biso   1.000  H
  C72      1.0000 0.65320  0.16668  0.88936  Biso   1.000  C
  C73      1.0000 0.57810  0.23224  0.97709  Biso   1.000  C
  C74      1.0000 0.55970  0.25301  0.00045  Biso   1.000  C
  C75      1.0000 0.62610  0.25664  0.01994  Biso   1.000  C
  H36      1.0000 0.68170  0.24620  0.01870  Biso   1.000  H
  C76      1.0000 0.61040  0.27588  0.04150  Biso   1.000  C
  H37      1.0000 0.65510  0.27830  0.05460  Biso   1.000  H
  C77      1.0000 0.52730  0.29136  0.04319  Biso   1.000  C
  C78      1.0000 0.46040  0.28804  0.02338  Biso   1.000  C
  H38      1.0000 0.40540  0.29880  0.02440  Biso   1.000  H
  C79      1.0000 0.47610  0.26872  0.00233  Biso   1.000  C
  H39      1.0000 0.43110  0.26610  0.98940  Biso   1.000  H
  C80      1.0000 0.51160  0.31289  0.06606  Biso   1.000  C
  N5       1.0000 0.50620  0.21798  0.96748  Biso   1.000  N
  H40      1.0000 0.45380  0.22130  0.97490  Biso   1.000  H
  O29      1.0000 0.26430  0.14907  0.93045  Biso   1.000  O
  O30      1.0000 0.32220  0.12272  0.89966  Biso   1.000  O
  O31      1.0000 0.61860  0.16349  0.86746  Biso   1.000  O
  O32      1.0000 0.73580  0.16575  0.89495  Biso   1.000  O
  O33      1.0000 0.65760  0.22895  0.96989  Biso   1.000  O
  O34      1.0000 0.54530  0.30772  0.08798  Biso   1.000  O
  O35      1.0000 0.46230  0.33366  0.05803  Biso   1.000  O
  C81      1.0000 0.33270  0.64365  0.41542  Biso   1.000  C
  C82      1.0000 0.42010  0.66050  0.42054  Biso   1.000  C
  C83      1.0000 0.49520  0.65581  0.40403  Biso   1.000  C
  H41      1.0000 0.49120  0.64180  0.39030  Biso   1.000  H
  C84      1.0000 0.57580  0.67177  0.40784  Biso   1.000  C
  C85      1.0000 0.58200  0.69226  0.42869  Biso   1.000  C
  H42      1.0000 0.63660  0.70280  0.43140  Biso   1.000  H
  C86      1.0000 0.50760  0.69710  0.44545  Biso   1.000  C
  C87      1.0000 0.42650  0.68116  0.44158  Biso   1.000  C
  H43      1.0000 0.37660  0.68410  0.45290  Biso   1.000  H
  C88      1.0000 0.65320  0.66668  0.38936  Biso   1.000  C
  C89      1.0000 0.57810  0.73224  0.47709  Biso   1.000  C
  C90      1.0000 0.55970  0.75301  0.50045  Biso   1.000  C
  C91      1.0000 0.62610  0.75664  0.51994  Biso   1.000  C
  H44      1.0000 0.68170  0.74620  0.51870  Biso   1.000  H
  C92      1.0000 0.61040  0.77588  0.54150  Biso   1.000  C
  H45      1.0000 0.65510  0.77830  0.55460  Biso   1.000  H
  C93      1.0000 0.52730  0.79136  0.54319  Biso   1.000  C
  C94      1.0000 0.46040  0.78804  0.52338  Biso   1.000  C
  H46      1.0000 0.40540  0.79880  0.52440  Biso   1.000  H
  C95      1.0000 0.47610  0.76872  0.50233  Biso   1.000  C
  H47      1.0000 0.43110  0.76610  0.48940  Biso   1.000  H
  C96      1.0000 0.51160  0.81289  0.56606  Biso   1.000  C
  N6       1.0000 0.50620  0.71798  0.46748  Biso   1.000  N
  H48      1.0000 0.45380  0.72130  0.47490  Biso   1.000  H
  O36      1.0000 0.26430  0.64907  0.43045  Biso   1.000  O
  O37      1.0000 0.32220  0.62272  0.39966  Biso   1.000  O
  O38      1.0000 0.61860  0.66349  0.36746  Biso   1.000  O
  O39      1.0000 0.73580  0.66575  0.39495  Biso   1.000  O
  O40      1.0000 0.65760  0.72895  0.46989  Biso   1.000  O
  O41      1.0000 0.54530  0.80772  0.58798  Biso   1.000  O
  O42      1.0000 0.46230  0.83366  0.55803  Biso   1.000  O
  C97      1.0000 0.83270  0.14365  0.41542  Biso   1.000  C
  C98      1.0000 0.92010  0.16050  0.42054  Biso   1.000  C
  C99      1.0000 0.99520  0.15581  0.40403  Biso   1.000  C
  H49      1.0000 0.99120  0.14180  0.39030  Biso   1.000  H
  C100     1.0000 0.07580  0.17177  0.40784  Biso   1.000  C
  C101     1.0000 0.08200  0.19226  0.42869  Biso   1.000  C
  H50      1.0000 0.13660  0.20280  0.43140  Biso   1.000  H
  C102     1.0000 0.00760  0.19710  0.44545  Biso   1.000  C
  C103     1.0000 0.92650  0.18116  0.44158  Biso   1.000  C
  H51      1.0000 0.87660  0.18410  0.45290  Biso   1.000  H
  C104     1.0000 0.15320  0.16668  0.38936  Biso   1.000  C
  C105     1.0000 0.07810  0.23224  0.47709  Biso   1.000  C
  C106     1.0000 0.05970  0.25301  0.50045  Biso   1.000  C
  C107     1.0000 0.12610  0.25664  0.51994  Biso   1.000  C
  H52      1.0000 0.18170  0.24620  0.51870  Biso   1.000  H
  C108     1.0000 0.11040  0.27588  0.54150  Biso   1.000  C
  H53      1.0000 0.15510  0.27830  0.55460  Biso   1.000  H
  C109     1.0000 0.02730  0.29136  0.54319  Biso   1.000  C
  C110     1.0000 0.96040  0.28804  0.52338  Biso   1.000  C
  H54      1.0000 0.90540  0.29880  0.52440  Biso   1.000  H
  C111     1.0000 0.97610  0.26872  0.50233  Biso   1.000  C
  H55      1.0000 0.93110  0.26610  0.48940  Biso   1.000  H
  C112     1.0000 0.01160  0.31289  0.56606  Biso   1.000  C
  N7       1.0000 0.00620  0.21798  0.46748  Biso   1.000  N
  H56      1.0000 0.95380  0.22130  0.47490  Biso   1.000  H
  O43      1.0000 0.76430  0.14907  0.43045  Biso   1.000  O
  O44      1.0000 0.82220  0.12272  0.39966  Biso   1.000  O
  O45      1.0000 0.11860  0.16349  0.36746  Biso   1.000  O
  O46      1.0000 0.23580  0.16575  0.39495  Biso   1.000  O
  O47      1.0000 0.15760  0.22895  0.46989  Biso   1.000  O
  O48      1.0000 0.04530  0.30772  0.58798  Biso   1.000  O
  O49      1.0000 0.96230  0.33366  0.55803  Biso   1.000  O
  C113     1.0000 0.83270  0.64365  0.91542  Biso   1.000  C
  C114     1.0000 0.92010  0.66050  0.92054  Biso   1.000  C
  C115     1.0000 0.99520  0.65581  0.90403  Biso   1.000  C
  H57      1.0000 0.99120  0.64180  0.89030  Biso   1.000  H
  C116     1.0000 0.07580  0.67177  0.90784  Biso   1.000  C
  C117     1.0000 0.08200  0.69226  0.92869  Biso   1.000  C
  H58      1.0000 0.13660  0.70280  0.93140  Biso   1.000  H
  C118     1.0000 0.00760  0.69710  0.94545  Biso   1.000  C
  C119     1.0000 0.92650  0.68116  0.94158  Biso   1.000  C
  H59      1.0000 0.87660  0.68410  0.95290  Biso   1.000  H
  C120     1.0000 0.15320  0.66668  0.88936  Biso   1.000  C
  C121     1.0000 0.07810  0.73224  0.97709  Biso   1.000  C
  C122     1.0000 0.05970  0.75301  0.00045  Biso   1.000  C
  C123     1.0000 0.12610  0.75664  0.01994  Biso   1.000  C
  H60      1.0000 0.18170  0.74620  0.01870  Biso   1.000  H
  C124     1.0000 0.11040  0.77588  0.04150  Biso   1.000  C
  H61      1.0000 0.15510  0.77830  0.05460  Biso   1.000  H
  C125     1.0000 0.02730  0.79136  0.04319  Biso   1.000  C
  C126     1.0000 0.96040  0.78804  0.02338  Biso   1.000  C
  H62      1.0000 0.90540  0.79880  0.02440  Biso   1.000  H
  C127     1.0000 0.97610  0.76872  0.00233  Biso   1.000  C
  H63      1.0000 0.93110  0.76610  0.98940  Biso   1.000  H
  C128     1.0000 0.01160  0.81289  0.06606  Biso   1.000  C
  N8       1.0000 0.00620  0.71798  0.96748  Biso   1.000  N
  H64      1.0000 0.95380  0.72130  0.97490  Biso   1.000  H
  O50      1.0000 0.76430  0.64907  0.93045  Biso   1.000  O
  O51      1.0000 0.82220  0.62272  0.89966  Biso   1.000  O
  O52      1.0000 0.11860  0.66349  0.86746  Biso   1.000  O
  O53      1.0000 0.23580  0.66575  0.89495  Biso   1.000  O
  O54      1.0000 0.15760  0.72895  0.96989  Biso   1.000  O
  O55      1.0000 0.04530  0.80772  0.08798  Biso   1.000  O
  O56      1.0000 0.96230  0.83366  0.05803  Biso   1.000  O
  C129     1.0000 0.33270  0.60635  0.83458  Biso   1.000  C
  C130     1.0000 0.42010  0.58950  0.82946  Biso   1.000  C
  C131     1.0000 0.49520  0.59419  0.84597  Biso   1.000  C
  H65      1.0000 0.49120  0.60820  0.85970  Biso   1.000  H
  C132     1.0000 0.57580  0.57823  0.84216  Biso   1.000  C
  C133     1.0000 0.58200  0.55774  0.82131  Biso   1.000  C
  H66      1.0000 0.63660  0.54720  0.81860  Biso   1.000  H
  C134     1.0000 0.50760  0.55290  0.80455  Biso   1.000  C
  C135     1.0000 0.42650  0.56884  0.80842  Biso   1.000  C
  H67      1.0000 0.37660  0.56590  0.79710  Biso   1.000  H
  C136     1.0000 0.65320  0.58332  0.86064  Biso   1.000  C
  C137     1.0000 0.57810  0.51776  0.77291  Biso   1.000  C
  C138     1.0000 0.55970  0.49699  0.74955  Biso   1.000  C
  C139     1.0000 0.62610  0.49336  0.73006  Biso   1.000  C
  H68      1.0000 0.68170  0.50380  0.73130  Biso   1.000  H
  C140     1.0000 0.61040  0.47412  0.70850  Biso   1.000  C
  H69      1.0000 0.65510  0.47170  0.69540  Biso   1.000  H
  C141     1.0000 0.52730  0.45864  0.70681  Biso   1.000  C
  C142     1.0000 0.46040  0.46196  0.72662  Biso   1.000  C
  H70      1.0000 0.40540  0.45120  0.72560  Biso   1.000  H
  C143     1.0000 0.47610  0.48128  0.74767  Biso   1.000  C
  H71      1.0000 0.43110  0.48390  0.76060  Biso   1.000  H
  C144     1.0000 0.51160  0.43711  0.68394  Biso   1.000  C
  N9       1.0000 0.50620  0.53202  0.78252  Biso   1.000  N
  H72      1.0000 0.45380  0.52870  0.77510  Biso   1.000  H
  O57      1.0000 0.26430  0.60093  0.81955  Biso   1.000  O
  O58      1.0000 0.32220  0.62728  0.85034  Biso   1.000  O
  O59      1.0000 0.61860  0.58651  0.88254  Biso   1.000  O
  O60      1.0000 0.73580  0.58425  0.85505  Biso   1.000  O
  O61      1.0000 0.65760  0.52105  0.78011  Biso   1.000  O
  O62      1.0000 0.54530  0.44228  0.66202  Biso   1.000  O
  O63      1.0000 0.46230  0.41634  0.69197  Biso   1.000  O
  C145     1.0000 0.33270  0.10635  0.33458  Biso   1.000  C
  C146     1.0000 0.42010  0.08950  0.32946  Biso   1.000  C
  C147     1.0000 0.49520  0.09419  0.34597  Biso   1.000  C
  H73      1.0000 0.49120  0.10820  0.35970  Biso   1.000  H
  C148     1.0000 0.57580  0.07823  0.34216  Biso   1.000  C
  C149     1.0000 0.58200  0.05774  0.32131  Biso   1.000  C
  H74      1.0000 0.63660  0.04720  0.31860  Biso   1.000  H
  C150     1.0000 0.50760  0.05290  0.30455  Biso   1.000  C
  C151     1.0000 0.42650  0.06884  0.30842  Biso   1.000  C
  H75      1.0000 0.37660  0.06590  0.29710  Biso   1.000  H
  C152     1.0000 0.65320  0.08332  0.36064  Biso   1.000  C
  C153     1.0000 0.57810  0.01776  0.27291  Biso   1.000  C
  C154     1.0000 0.55970  0.99699  0.24955  Biso   1.000  C
  C155     1.0000 0.62610  0.99336  0.23006  Biso   1.000  C
  H76      1.0000 0.68170  0.00380  0.23130  Biso   1.000  H
  C156     1.0000 0.61040  0.97412  0.20850  Biso   1.000  C
  H77      1.0000 0.65510  0.97170  0.19540  Biso   1.000  H
  C157     1.0000 0.52730  0.95864  0.20681  Biso   1.000  C
  C158     1.0000 0.46040  0.96196  0.22662  Biso   1.000  C
  H78      1.0000 0.40540  0.95120  0.22560  Biso   1.000  H
  C159     1.0000 0.47610  0.98128  0.24767  Biso   1.000  C
  H79      1.0000 0.43110  0.98390  0.26060  Biso   1.000  H
  C160     1.0000 0.51160  0.93711  0.18394  Biso   1.000  C
  N10      1.0000 0.50620  0.03202  0.28252  Biso   1.000  N
  H80      1.0000 0.45380  0.02870  0.27510  Biso   1.000  H
  O64      1.0000 0.26430  0.10093  0.31955  Biso   1.000  O
  O65      1.0000 0.32220  0.12728  0.35034  Biso   1.000  O
  O66      1.0000 0.61860  0.08651  0.38254  Biso   1.000  O
  O67      1.0000 0.73580  0.08425  0.35505  Biso   1.000  O
  O68      1.0000 0.65760  0.02105  0.28011  Biso   1.000  O
  O69      1.0000 0.54530  0.94228  0.16202  Biso   1.000  O
  O70      1.0000 0.46230  0.91634  0.19197  Biso   1.000  O
  C161     1.0000 0.83270  0.60635  0.33458  Biso   1.000  C
  C162     1.0000 0.92010  0.58950  0.32946  Biso   1.000  C
  C163     1.0000 0.99520  0.59419  0.34597  Biso   1.000  C
  H81      1.0000 0.99120  0.60820  0.35970  Biso   1.000  H
  C164     1.0000 0.07580  0.57823  0.34216  Biso   1.000  C
  C165     1.0000 0.08200  0.55774  0.32131  Biso   1.000  C
  H82      1.0000 0.13660  0.54720  0.31860  Biso   1.000  H
  C166     1.0000 0.00760  0.55290  0.30455  Biso   1.000  C
  C167     1.0000 0.92650  0.56884  0.30842  Biso   1.000  C
  H83      1.0000 0.87660  0.56590  0.29710  Biso   1.000  H
  C168     1.0000 0.15320  0.58332  0.36064  Biso   1.000  C
  C169     1.0000 0.07810  0.51776  0.27291  Biso   1.000  C
  C170     1.0000 0.05970  0.49699  0.24955  Biso   1.000  C
  C171     1.0000 0.12610  0.49336  0.23006  Biso   1.000  C
  H84      1.0000 0.18170  0.50380  0.23130  Biso   1.000  H
  C172     1.0000 0.11040  0.47412  0.20850  Biso   1.000  C
  H85      1.0000 0.15510  0.47170  0.19540  Biso   1.000  H
  C173     1.0000 0.02730  0.45864  0.20681  Biso   1.000  C
  C174     1.0000 0.96040  0.46196  0.22662  Biso   1.000  C
  H86      1.0000 0.90540  0.45120  0.22560  Biso   1.000  H
  C175     1.0000 0.97610  0.48128  0.24767  Biso   1.000  C
  H87      1.0000 0.93110  0.48390  0.26060  Biso   1.000  H
  C176     1.0000 0.01160  0.43711  0.18394  Biso   1.000  C
  N11      1.0000 0.00620  0.53202  0.28252  Biso   1.000  N
  H88      1.0000 0.95380  0.52870  0.27510  Biso   1.000  H
  O71      1.0000 0.76430  0.60093  0.31955  Biso   1.000  O
  O72      1.0000 0.82220  0.62728  0.35034  Biso   1.000  O
  O73      1.0000 0.11860  0.58651  0.38254  Biso   1.000  O
  O74      1.0000 0.23580  0.58425  0.35505  Biso   1.000  O
  O75      1.0000 0.15760  0.52105  0.28011  Biso   1.000  O
  O76      1.0000 0.04530  0.44228  0.16202  Biso   1.000  O
  O77      1.0000 0.96230  0.41634  0.19197  Biso   1.000  O
  C177     1.0000 0.83270  0.10635  0.83458  Biso   1.000  C
  C178     1.0000 0.92010  0.08950  0.82946  Biso   1.000  C
  C179     1.0000 0.99520  0.09419  0.84597  Biso   1.000  C
  H89      1.0000 0.99120  0.10820  0.85970  Biso   1.000  H
  C180     1.0000 0.07580  0.07823  0.84216  Biso   1.000  C
  C181     1.0000 0.08200  0.05774  0.82131  Biso   1.000  C
  H90      1.0000 0.13660  0.04720  0.81860  Biso   1.000  H
  C182     1.0000 0.00760  0.05290  0.80455  Biso   1.000  C
  C183     1.0000 0.92650  0.06884  0.80842  Biso   1.000  C
  H91      1.0000 0.87660  0.06590  0.79710  Biso   1.000  H
  C184     1.0000 0.15320  0.08332  0.86064  Biso   1.000  C
  C185     1.0000 0.07810  0.01776  0.77291  Biso   1.000  C
  C186     1.0000 0.05970  0.99699  0.74955  Biso   1.000  C
  C187     1.0000 0.12610  0.99336  0.73006  Biso   1.000  C
  H92      1.0000 0.18170  0.00380  0.73130  Biso   1.000  H
  C188     1.0000 0.11040  0.97412  0.70850  Biso   1.000  C
  H93      1.0000 0.15510  0.97170  0.69540  Biso   1.000  H
  C189     1.0000 0.02730  0.95864  0.70681  Biso   1.000  C
  C190     1.0000 0.96040  0.96196  0.72662  Biso   1.000  C
  H94      1.0000 0.90540  0.95120  0.72560  Biso   1.000  H
  C191     1.0000 0.97610  0.98128  0.74767  Biso   1.000  C
  H95      1.0000 0.93110  0.98390  0.76060  Biso   1.000  H
  C192     1.0000 0.01160  0.93711  0.68394  Biso   1.000  C
  N12      1.0000 0.00620  0.03202  0.78252  Biso   1.000  N
  H96      1.0000 0.95380  0.02870  0.77510  Biso   1.000  H
  O78      1.0000 0.76430  0.10093  0.81955  Biso   1.000  O
  O79      1.0000 0.82220  0.12728  0.85034  Biso   1.000  O
  O80      1.0000 0.11860  0.08651  0.88254  Biso   1.000  O
  O81      1.0000 0.23580  0.08425  0.85505  Biso   1.000  O
  O82      1.0000 0.15760  0.02105  0.78011  Biso   1.000  O
  O83      1.0000 0.04530  0.94228  0.66202  Biso   1.000  O
  O84      1.0000 0.96230  0.91634  0.69197  Biso   1.000  O
  C193     1.0000 0.41730  0.14365  0.83458  Biso   1.000  C
  C194     1.0000 0.32990  0.16050  0.82946  Biso   1.000  C
  C195     1.0000 0.25480  0.15581  0.84597  Biso   1.000  C
  H97      1.0000 0.25880  0.14180  0.85970  Biso   1.000  H
  C196     1.0000 0.17420  0.17177  0.84216  Biso   1.000  C
  C197     1.0000 0.16800  0.19226  0.82131  Biso   1.000  C
  H98      1.0000 0.11340  0.20280  0.81860  Biso   1.000  H
  C198     1.0000 0.24240  0.19710  0.80455  Biso   1.000  C
  C199     1.0000 0.32350  0.18116  0.80842  Biso   1.000  C
  H99      1.0000 0.37340  0.18410  0.79710  Biso   1.000  H
  C200     1.0000 0.09680  0.16668  0.86064  Biso   1.000  C
  C201     1.0000 0.17190  0.23224  0.77291  Biso   1.000  C
  C202     1.0000 0.19030  0.25301  0.74955  Biso   1.000  C
  C203     1.0000 0.12390  0.25664  0.73006  Biso   1.000  C
  H100     1.0000 0.06830  0.24620  0.73130  Biso   1.000  H
  C204     1.0000 0.13960  0.27588  0.70850  Biso   1.000  C
  H101     1.0000 0.09490  0.27830  0.69540  Biso   1.000  H
  C205     1.0000 0.22270  0.29136  0.70681  Biso   1.000  C
  C206     1.0000 0.28960  0.28804  0.72662  Biso   1.000  C
  H102     1.0000 0.34460  0.29880  0.72560  Biso   1.000  H
  C207     1.0000 0.27390  0.26872  0.74767  Biso   1.000  C
  H103     1.0000 0.31890  0.26610  0.76060  Biso   1.000  H
  C208     1.0000 0.23840  0.31289  0.68394  Biso   1.000  C
  N13      1.0000 0.24380  0.21798  0.78252  Biso   1.000  N
  H104     1.0000 0.29620  0.22130  0.77510  Biso   1.000  H
  O85      1.0000 0.48570  0.14907  0.81955  Biso   1.000  O
  O86      1.0000 0.42780  0.12272  0.85034  Biso   1.000  O
  O87      1.0000 0.13140  0.16349  0.88254  Biso   1.000  O
  O88      1.0000 0.01420  0.16575  0.85505  Biso   1.000  O
  O89      1.0000 0.09240  0.22895  0.78011  Biso   1.000  O
  O90      1.0000 0.20470  0.30772  0.66202  Biso   1.000  O
  O91      1.0000 0.28770  0.33366  0.69197  Biso   1.000  O
  C209     1.0000 0.41730  0.64365  0.33458  Biso   1.000  C
  C210     1.0000 0.32990  0.66050  0.32946  Biso   1.000  C
  C211     1.0000 0.25480  0.65581  0.34597  Biso   1.000  C
  H105     1.0000 0.25880  0.64180  0.35970  Biso   1.000  H
  C212     1.0000 0.17420  0.67177  0.34216  Biso   1.000  C
  C213     1.0000 0.16800  0.69226  0.32131  Biso   1.000  C
  H106     1.0000 0.11340  0.70280  0.31860  Biso   1.000  H
  C214     1.0000 0.24240  0.69710  0.30455  Biso   1.000  C
  C215     1.0000 0.32350  0.68116  0.30842  Biso   1.000  C
  H107     1.0000 0.37340  0.68410  0.29710  Biso   1.000  H
  C216     1.0000 0.09680  0.66668  0.36064  Biso   1.000  C
  C217     1.0000 0.17190  0.73224  0.27291  Biso   1.000  C
  C218     1.0000 0.19030  0.75301  0.24955  Biso   1.000  C
  C219     1.0000 0.12390  0.75664  0.23006  Biso   1.000  C
  H108     1.0000 0.06830  0.74620  0.23130  Biso   1.000  H
  C220     1.0000 0.13960  0.77588  0.20850  Biso   1.000  C
  H109     1.0000 0.09490  0.77830  0.19540  Biso   1.000  H
  C221     1.0000 0.22270  0.79136  0.20681  Biso   1.000  C
  C222     1.0000 0.28960  0.78804  0.22662  Biso   1.000  C
  H110     1.0000 0.34460  0.79880  0.22560  Biso   1.000  H
  C223     1.0000 0.27390  0.76872  0.24767  Biso   1.000  C
  H111     1.0000 0.31890  0.76610  0.26060  Biso   1.000  H
  C224     1.0000 0.23840  0.81289  0.18394  Biso   1.000  C
  N14      1.0000 0.24380  0.71798  0.28252  Biso   1.000  N
  H112     1.0000 0.29620  0.72130  0.27510  Biso   1.000  H
  O92      1.0000 0.48570  0.64907  0.31955  Biso   1.000  O
  O93      1.0000 0.42780  0.62272  0.35034  Biso   1.000  O
  O94      1.0000 0.13140  0.66349  0.38254  Biso   1.000  O
  O95      1.0000 0.01420  0.66575  0.35505  Biso   1.000  O
  O96      1.0000 0.09240  0.72895  0.28011  Biso   1.000  O
  O97      1.0000 0.20470  0.80772  0.16202  Biso   1.000  O
  O98      1.0000 0.28770  0.83366  0.19197  Biso   1.000  O
  C225     1.0000 0.91730  0.14365  0.33458  Biso   1.000  C
  C226     1.0000 0.82990  0.16050  0.32946  Biso   1.000  C
  C227     1.0000 0.75480  0.15581  0.34597  Biso   1.000  C
  H113     1.0000 0.75880  0.14180  0.35970  Biso   1.000  H
  C228     1.0000 0.67420  0.17177  0.34216  Biso   1.000  C
  C229     1.0000 0.66800  0.19226  0.32131  Biso   1.000  C
  H114     1.0000 0.61340  0.20280  0.31860  Biso   1.000  H
  C230     1.0000 0.74240  0.19710  0.30455  Biso   1.000  C
  C231     1.0000 0.82350  0.18116  0.30842  Biso   1.000  C
  H115     1.0000 0.87340  0.18410  0.29710  Biso   1.000  H
  C232     1.0000 0.59680  0.16668  0.36064  Biso   1.000  C
  C233     1.0000 0.67190  0.23224  0.27291  Biso   1.000  C
  C234     1.0000 0.69030  0.25301  0.24955  Biso   1.000  C
  C235     1.0000 0.62390  0.25664  0.23006  Biso   1.000  C
  H116     1.0000 0.56830  0.24620  0.23130  Biso   1.000  H
  C236     1.0000 0.63960  0.27588  0.20850  Biso   1.000  C
  H117     1.0000 0.59490  0.27830  0.19540  Biso   1.000  H
  C237     1.0000 0.72270  0.29136  0.20681  Biso   1.000  C
  C238     1.0000 0.78960  0.28804  0.22662  Biso   1.000  C
  H118     1.0000 0.84460  0.29880  0.22560  Biso   1.000  H
  C239     1.0000 0.77390  0.26872  0.24767  Biso   1.000  C
  H119     1.0000 0.81890  0.26610  0.26060  Biso   1.000  H
  C240     1.0000 0.73840  0.31289  0.18394  Biso   1.000  C
  N15      1.0000 0.74380  0.21798  0.28252  Biso   1.000  N
  H120     1.0000 0.79620  0.22130  0.27510  Biso   1.000  H
  O99      1.0000 0.98570  0.14907  0.31955  Biso   1.000  O
  O100     1.0000 0.92780  0.12272  0.35034  Biso   1.000  O
  O101     1.0000 0.63140  0.16349  0.38254  Biso   1.000  O
  O102     1.0000 0.51420  0.16575  0.35505  Biso   1.000  O
  O103     1.0000 0.59240  0.22895  0.28011  Biso   1.000  O
  O104     1.0000 0.70470  0.30772  0.16202  Biso   1.000  O
  O105     1.0000 0.78770  0.33366  0.19197  Biso   1.000  O
  C241     1.0000 0.91730  0.64365  0.83458  Biso   1.000  C
  C242     1.0000 0.82990  0.66050  0.82946  Biso   1.000  C
  C243     1.0000 0.75480  0.65581  0.84597  Biso   1.000  C
  H121     1.0000 0.75880  0.64180  0.85970  Biso   1.000  H
  C244     1.0000 0.67420  0.67177  0.84216  Biso   1.000  C
  C245     1.0000 0.66800  0.69226  0.82131  Biso   1.000  C
  H122     1.0000 0.61340  0.70280  0.81860  Biso   1.000  H
  C246     1.0000 0.74240  0.69710  0.80455  Biso   1.000  C
  C247     1.0000 0.82350  0.68116  0.80842  Biso   1.000  C
  H123     1.0000 0.87340  0.68410  0.79710  Biso   1.000  H
  C248     1.0000 0.59680  0.66668  0.86064  Biso   1.000  C
  C249     1.0000 0.67190  0.73224  0.77291  Biso   1.000  C
  C250     1.0000 0.69030  0.75301  0.74955  Biso   1.000  C
  C251     1.0000 0.62390  0.75664  0.73006  Biso   1.000  C
  H124     1.0000 0.56830  0.74620  0.73130  Biso   1.000  H
  C252     1.0000 0.63960  0.77588  0.70850  Biso   1.000  C
  H125     1.0000 0.59490  0.77830  0.69540  Biso   1.000  H
  C253     1.0000 0.72270  0.79136  0.70681  Biso   1.000  C
  C254     1.0000 0.78960  0.78804  0.72662  Biso   1.000  C
  H126     1.0000 0.84460  0.79880  0.72560  Biso   1.000  H
  C255     1.0000 0.77390  0.76872  0.74767  Biso   1.000  C
  H127     1.0000 0.81890  0.76610  0.76060  Biso   1.000  H
  C256     1.0000 0.73840  0.81289  0.68394  Biso   1.000  C
  N16      1.0000 0.74380  0.71798  0.78252  Biso   1.000  N
  H128     1.0000 0.79620  0.72130  0.77510  Biso   1.000  H
  O106     1.0000 0.98570  0.64907  0.81955  Biso   1.000  O
  O107     1.0000 0.92780  0.62272  0.85034  Biso   1.000  O
  O108     1.0000 0.63140  0.66349  0.88254  Biso   1.000  O
  O109     1.0000 0.51420  0.66575  0.85505  Biso   1.000  O
  O110     1.0000 0.59240  0.72895  0.78011  Biso   1.000  O
  O111     1.0000 0.70470  0.80772  0.66202  Biso   1.000  O
  O112     1.0000 0.78770  0.83366  0.69197  Biso   1.000  O
  C257     1.0000 0.58270  0.39365  0.08458  Biso   1.000  C
  C258     1.0000 0.67010  0.41050  0.07946  Biso   1.000  C
  C259     1.0000 0.74520  0.40581  0.09597  Biso   1.000  C
  H129     1.0000 0.74120  0.39180  0.10970  Biso   1.000  H
  C260     1.0000 0.82580  0.42177  0.09216  Biso   1.000  C
  C261     1.0000 0.83200  0.44226  0.07131  Biso   1.000  C
  H130     1.0000 0.88660  0.45280  0.06860  Biso   1.000  H
  C262     1.0000 0.75760  0.44710  0.05455  Biso   1.000  C
  C263     1.0000 0.67650  0.43116  0.05842  Biso   1.000  C
  H131     1.0000 0.62660  0.43410  0.04710  Biso   1.000  H
  C264     1.0000 0.90320  0.41668  0.11064  Biso   1.000  C
  C265     1.0000 0.82810  0.48224  0.02291  Biso   1.000  C
  C266     1.0000 0.80970  0.50301  0.99955  Biso   1.000  C
  C267     1.0000 0.87610  0.50664  0.98006  Biso   1.000  C
  H132     1.0000 0.93170  0.49620  0.98130  Biso   1.000  H
  C268     1.0000 0.86040  0.52588  0.95850  Biso   1.000  C
  H133     1.0000 0.90510  0.52830  0.94540  Biso   1.000  H
  C269     1.0000 0.77730  0.54136  0.95681  Biso   1.000  C
  C270     1.0000 0.71040  0.53804  0.97662  Biso   1.000  C
  H134     1.0000 0.65540  0.54880  0.97560  Biso   1.000  H
  C271     1.0000 0.72610  0.51872  0.99767  Biso   1.000  C
  H135     1.0000 0.68110  0.51610  0.01060  Biso   1.000  H
  C272     1.0000 0.76160  0.56289  0.93394  Biso   1.000  C
  N17      1.0000 0.75620  0.46798  0.03252  Biso   1.000  N
  H136     1.0000 0.70380  0.47130  0.02510  Biso   1.000  H
  O113     1.0000 0.51430  0.39907  0.06955  Biso   1.000  O
  O114     1.0000 0.57220  0.37272  0.10034  Biso   1.000  O
  O115     1.0000 0.86860  0.41349  0.13254  Biso   1.000  O
  O116     1.0000 0.98580  0.41575  0.10505  Biso   1.000  O
  O117     1.0000 0.90760  0.47895  0.03011  Biso   1.000  O
  O118     1.0000 0.79530  0.55772  0.91202  Biso   1.000  O
  O119     1.0000 0.71230  0.58366  0.94197  Biso   1.000  O
  C273     1.0000 0.58270  0.89365  0.58458  Biso   1.000  C
  C274     1.0000 0.67010  0.91050  0.57946  Biso   1.000  C
  C275     1.0000 0.74520  0.90581  0.59597  Biso   1.000  C
  H137     1.0000 0.74120  0.89180  0.60970  Biso   1.000  H
  C276     1.0000 0.82580  0.92177  0.59216  Biso   1.000  C
  C277     1.0000 0.83200  0.94226  0.57131  Biso   1.000  C
  H138     1.0000 0.88660  0.95280  0.56860  Biso   1.000  H
  C278     1.0000 0.75760  0.94710  0.55455  Biso   1.000  C
  C279     1.0000 0.67650  0.93116  0.55842  Biso   1.000  C
  H139     1.0000 0.62660  0.93410  0.54710  Biso   1.000  H
  C280     1.0000 0.90320  0.91668  0.61064  Biso   1.000  C
  C281     1.0000 0.82810  0.98224  0.52291  Biso   1.000  C
  C282     1.0000 0.80970  0.00301  0.49955  Biso   1.000  C
  C283     1.0000 0.87610  0.00664  0.48006  Biso   1.000  C
  H140     1.0000 0.93170  0.99620  0.48130  Biso   1.000  H
  C284     1.0000 0.86040  0.02588  0.45850  Biso   1.000  C
  H141     1.0000 0.90510  0.02830  0.44540  Biso   1.000  H
  C285     1.0000 0.77730  0.04136  0.45681  Biso   1.000  C
  C286     1.0000 0.71040  0.03804  0.47662  Biso   1.000  C
  H142     1.0000 0.65540  0.04880  0.47560  Biso   1.000  H
  C287     1.0000 0.72610  0.01872  0.49767  Biso   1.000  C
  H143     1.0000 0.68110  0.01610  0.51060  Biso   1.000  H
  C288     1.0000 0.76160  0.06289  0.43394  Biso   1.000  C
  N18      1.0000 0.75620  0.96798  0.53252  Biso   1.000  N
  H144     1.0000 0.70380  0.97130  0.52510  Biso   1.000  H
  O120     1.0000 0.51430  0.89907  0.56955  Biso   1.000  O
  O121     1.0000 0.57220  0.87272  0.60034  Biso   1.000  O
  O122     1.0000 0.86860  0.91349  0.63254  Biso   1.000  O
  O123     1.0000 0.98580  0.91575  0.60505  Biso   1.000  O
  O124     1.0000 0.90760  0.97895  0.53011  Biso   1.000  O
  O125     1.0000 0.79530  0.05772  0.41202  Biso   1.000  O
  O126     1.0000 0.71230  0.08366  0.44197  Biso   1.000  O
  C289     1.0000 0.08270  0.39365  0.58458  Biso   1.000  C
  C290     1.0000 0.17010  0.41050  0.57946  Biso   1.000  C
  C291     1.0000 0.24520  0.40581  0.59597  Biso   1.000  C
  H145     1.0000 0.24120  0.39180  0.60970  Biso   1.000  H
  C292     1.0000 0.32580  0.42177  0.59216  Biso   1.000  C
  C293     1.0000 0.33200  0.44226  0.57131  Biso   1.000  C
  H146     1.0000 0.38660  0.45280  0.56860  Biso   1.000  H
  C294     1.0000 0.25760  0.44710  0.55455  Biso   1.000  C
  C295     1.0000 0.17650  0.43116  0.55842  Biso   1.000  C
  H147     1.0000 0.12660  0.43410  0.54710  Biso   1.000  H
  C296     1.0000 0.40320  0.41668  0.61064  Biso   1.000  C
  C297     1.0000 0.32810  0.48224  0.52291  Biso   1.000  C
  C298     1.0000 0.30970  0.50301  0.49955  Biso   1.000  C
  C299     1.0000 0.37610  0.50664  0.48006  Biso   1.000  C
  H148     1.0000 0.43170  0.49620  0.48130  Biso   1.000  H
  C300     1.0000 0.36040  0.52588  0.45850  Biso   1.000  C
  H149     1.0000 0.40510  0.52830  0.44540  Biso   1.000  H
  C301     1.0000 0.27730  0.54136  0.45681  Biso   1.000  C
  C302     1.0000 0.21040  0.53804  0.47662  Biso   1.000  C
  H150     1.0000 0.15540  0.54880  0.47560  Biso   1.000  H
  C303     1.0000 0.22610  0.51872  0.49767  Biso   1.000  C
  H151     1.0000 0.18110  0.51610  0.51060  Biso   1.000  H
  C304     1.0000 0.26160  0.56289  0.43394  Biso   1.000  C
  N19      1.0000 0.25620  0.46798  0.53252  Biso   1.000  N
  H152     1.0000 0.20380  0.47130  0.52510  Biso   1.000  H
  O127     1.0000 0.01430  0.39907  0.56955  Biso   1.000  O
  O128     1.0000 0.07220  0.37272  0.60034  Biso   1.000  O
  O129     1.0000 0.36860  0.41349  0.63254  Biso   1.000  O
  O130     1.0000 0.48580  0.41575  0.60505  Biso   1.000  O
  O131     1.0000 0.40760  0.47895  0.53011  Biso   1.000  O
  O132     1.0000 0.29530  0.55772  0.41202  Biso   1.000  O
  O133     1.0000 0.21230  0.58366  0.44197  Biso   1.000  O
  C305     1.0000 0.08270  0.89365  0.08458  Biso   1.000  C
  C306     1.0000 0.17010  0.91050  0.07946  Biso   1.000  C
  C307     1.0000 0.24520  0.90581  0.09597  Biso   1.000  C
  H153     1.0000 0.24120  0.89180  0.10970  Biso   1.000  H
  C308     1.0000 0.32580  0.92177  0.09216  Biso   1.000  C
  C309     1.0000 0.33200  0.94226  0.07131  Biso   1.000  C
  H154     1.0000 0.38660  0.95280  0.06860  Biso   1.000  H
  C310     1.0000 0.25760  0.94710  0.05455  Biso   1.000  C
  C311     1.0000 0.17650  0.93116  0.05842  Biso   1.000  C
  H155     1.0000 0.12660  0.93410  0.04710  Biso   1.000  H
  C312     1.0000 0.40320  0.91668  0.11064  Biso   1.000  C
  C313     1.0000 0.32810  0.98224  0.02291  Biso   1.000  C
  C314     1.0000 0.30970  0.00301  0.99955  Biso   1.000  C
  C315     1.0000 0.37610  0.00664  0.98006  Biso   1.000  C
  H156     1.0000 0.43170  0.99620  0.98130  Biso   1.000  H
  C316     1.0000 0.36040  0.02588  0.95850  Biso   1.000  C
  H157     1.0000 0.40510  0.02830  0.94540  Biso   1.000  H
  C317     1.0000 0.27730  0.04136  0.95681  Biso   1.000  C
  C318     1.0000 0.21040  0.03804  0.97662  Biso   1.000  C
  H158     1.0000 0.15540  0.04880  0.97560  Biso   1.000  H
  C319     1.0000 0.22610  0.01872  0.99767  Biso   1.000  C
  H159     1.0000 0.18110  0.01610  0.01060  Biso   1.000  H
  C320     1.0000 0.26160  0.06289  0.93394  Biso   1.000  C
  N20      1.0000 0.25620  0.96798  0.03252  Biso   1.000  N
  H160     1.0000 0.20380  0.97130  0.02510  Biso   1.000  H
  O134     1.0000 0.01430  0.89907  0.06955  Biso   1.000  O
  O135     1.0000 0.07220  0.87272  0.10034  Biso   1.000  O
  O136     1.0000 0.36860  0.91349  0.13254  Biso   1.000  O
  O137     1.0000 0.48580  0.91575  0.10505  Biso   1.000  O
  O138     1.0000 0.40760  0.97895  0.03011  Biso   1.000  O
  O139     1.0000 0.29530  0.05772  0.91202  Biso   1.000  O
  O140     1.0000 0.21230  0.08366  0.94197  Biso   1.000  O
  C321     1.0000 0.66730  0.85635  0.08458  Biso   1.000  C
  C322     1.0000 0.57990  0.83950  0.07946  Biso   1.000  C
  C323     1.0000 0.50480  0.84419  0.09597  Biso   1.000  C
  H161     1.0000 0.50880  0.85820  0.10970  Biso   1.000  H
  C324     1.0000 0.42420  0.82823  0.09216  Biso   1.000  C
  C325     1.0000 0.41800  0.80774  0.07131  Biso   1.000  C
  H162     1.0000 0.36340  0.79720  0.06860  Biso   1.000  H
  C326     1.0000 0.49240  0.80290  0.05455  Biso   1.000  C
  C327     1.0000 0.57350  0.81884  0.05842  Biso   1.000  C
  H163     1.0000 0.62340  0.81590  0.04710  Biso   1.000  H
  C328     1.0000 0.34680  0.83332  0.11064  Biso   1.000  C
  C329     1.0000 0.42190  0.76776  0.02291  Biso   1.000  C
  C330     1.0000 0.44030  0.74699  0.99955  Biso   1.000  C
  C331     1.0000 0.37390  0.74336  0.98006  Biso   1.000  C
  H164     1.0000 0.31830  0.75380  0.98130  Biso   1.000  H
  C332     1.0000 0.38960  0.72412  0.95850  Biso   1.000  C
  H165     1.0000 0.34490  0.72170  0.94540  Biso   1.000  H
  C333     1.0000 0.47270  0.70864  0.95681  Biso   1.000  C
  C334     1.0000 0.53960  0.71196  0.97662  Biso   1.000  C
  H166     1.0000 0.59460  0.70120  0.97560  Biso   1.000  H
  C335     1.0000 0.52390  0.73128  0.99767  Biso   1.000  C
  H167     1.0000 0.56890  0.73390  0.01060  Biso   1.000  H
  C336     1.0000 0.48840  0.68711  0.93394  Biso   1.000  C
  N21      1.0000 0.49380  0.78202  0.03252  Biso   1.000  N
  H168     1.0000 0.54620  0.77870  0.02510  Biso   1.000  H
  O141     1.0000 0.73570  0.85093  0.06955  Biso   1.000  O
  O142     1.0000 0.67780  0.87728  0.10034  Biso   1.000  O
  O143     1.0000 0.38140  0.83651  0.13254  Biso   1.000  O
  O144     1.0000 0.26420  0.83425  0.10505  Biso   1.000  O
  O145     1.0000 0.34240  0.77105  0.03011  Biso   1.000  O
  O146     1.0000 0.45470  0.69228  0.91202  Biso   1.000  O
  O147     1.0000 0.53770  0.66634  0.94197  Biso   1.000  O
  C337     1.0000 0.66730  0.35635  0.58458  Biso   1.000  C
  C338     1.0000 0.57990  0.33950  0.57946  Biso   1.000  C
  C339     1.0000 0.50480  0.34419  0.59597  Biso   1.000  C
  H169     1.0000 0.50880  0.35820  0.60970  Biso   1.000  H
  C340     1.0000 0.42420  0.32823  0.59216  Biso   1.000  C
  C341     1.0000 0.41800  0.30774  0.57131  Biso   1.000  C
  H170     1.0000 0.36340  0.29720  0.56860  Biso   1.000  H
  C342     1.0000 0.49240  0.30290  0.55455  Biso   1.000  C
  C343     1.0000 0.57350  0.31884  0.55842  Biso   1.000  C
  H171     1.0000 0.62340  0.31590  0.54710  Biso   1.000  H
  C344     1.0000 0.34680  0.33332  0.61064  Biso   1.000  C
  C345     1.0000 0.42190  0.26776  0.52291  Biso   1.000  C
  C346     1.0000 0.44030  0.24699  0.49955  Biso   1.000  C
  C347     1.0000 0.37390  0.24336  0.48006  Biso   1.000  C
  H172     1.0000 0.31830  0.25380  0.48130  Biso   1.000  H
  C348     1.0000 0.38960  0.22412  0.45850  Biso   1.000  C
  H173     1.0000 0.34490  0.22170  0.44540  Biso   1.000  H
  C349     1.0000 0.47270  0.20864  0.45681  Biso   1.000  C
  C350     1.0000 0.53960  0.21196  0.47662  Biso   1.000  C
  H174     1.0000 0.59460  0.20120  0.47560  Biso   1.000  H
  C351     1.0000 0.52390  0.23128  0.49767  Biso   1.000  C
  H175     1.0000 0.56890  0.23390  0.51060  Biso   1.000  H
  C352     1.0000 0.48840  0.18711  0.43394  Biso   1.000  C
  N22      1.0000 0.49380  0.28202  0.53252  Biso   1.000  N
  H176     1.0000 0.54620  0.27870  0.52510  Biso   1.000  H
  O148     1.0000 0.73570  0.35093  0.56955  Biso   1.000  O
  O149     1.0000 0.67780  0.37728  0.60034  Biso   1.000  O
  O150     1.0000 0.38140  0.33651  0.63254  Biso   1.000  O
  O151     1.0000 0.26420  0.33425  0.60505  Biso   1.000  O
  O152     1.0000 0.34240  0.27105  0.53011  Biso   1.000  O
  O153     1.0000 0.45470  0.19228  0.41202  Biso   1.000  O
  O154     1.0000 0.53770  0.16634  0.44197  Biso   1.000  O
  C353     1.0000 0.16730  0.85635  0.58458  Biso   1.000  C
  C354     1.0000 0.07990  0.83950  0.57946  Biso   1.000  C
  C355     1.0000 0.00480  0.84419  0.59597  Biso   1.000  C
  H177     1.0000 0.00880  0.85820  0.60970  Biso   1.000  H
  C356     1.0000 0.92420  0.82823  0.59216  Biso   1.000  C
  C357     1.0000 0.91800  0.80774  0.57131  Biso   1.000  C
  H178     1.0000 0.86340  0.79720  0.56860  Biso   1.000  H
  C358     1.0000 0.99240  0.80290  0.55455  Biso   1.000  C
  C359     1.0000 0.07350  0.81884  0.55842  Biso   1.000  C
  H179     1.0000 0.12340  0.81590  0.54710  Biso   1.000  H
  C360     1.0000 0.84680  0.83332  0.61064  Biso   1.000  C
  C361     1.0000 0.92190  0.76776  0.52291  Biso   1.000  C
  C362     1.0000 0.94030  0.74699  0.49955  Biso   1.000  C
  C363     1.0000 0.87390  0.74336  0.48006  Biso   1.000  C
  H180     1.0000 0.81830  0.75380  0.48130  Biso   1.000  H
  C364     1.0000 0.88960  0.72412  0.45850  Biso   1.000  C
  H181     1.0000 0.84490  0.72170  0.44540  Biso   1.000  H
  C365     1.0000 0.97270  0.70864  0.45681  Biso   1.000  C
  C366     1.0000 0.03960  0.71196  0.47662  Biso   1.000  C
  H182     1.0000 0.09460  0.70120  0.47560  Biso   1.000  H
  C367     1.0000 0.02390  0.73128  0.49767  Biso   1.000  C
  H183     1.0000 0.06890  0.73390  0.51060  Biso   1.000  H
  C368     1.0000 0.98840  0.68711  0.43394  Biso   1.000  C
  N23      1.0000 0.99380  0.78202  0.53252  Biso   1.000  N
  H184     1.0000 0.04620  0.77870  0.52510  Biso   1.000  H
  O155     1.0000 0.23570  0.85093  0.56955  Biso   1.000  O
  O156     1.0000 0.17780  0.87728  0.60034  Biso   1.000  O
  O157     1.0000 0.88140  0.83651  0.63254  Biso   1.000  O
  O158     1.0000 0.76420  0.83425  0.60505  Biso   1.000  O
  O159     1.0000 0.84240  0.77105  0.53011  Biso   1.000  O
  O160     1.0000 0.95470  0.69228  0.41202  Biso   1.000  O
  O161     1.0000 0.03770  0.66634  0.44197  Biso   1.000  O
  C369     1.0000 0.16730  0.35635  0.08458  Biso   1.000  C
  C370     1.0000 0.07990  0.33950  0.07946  Biso   1.000  C
  C371     1.0000 0.00480  0.34419  0.09597  Biso   1.000  C
  H185     1.0000 0.00880  0.35820  0.10970  Biso   1.000  H
  C372     1.0000 0.92420  0.32823  0.09216  Biso   1.000  C
  C373     1.0000 0.91800  0.30774  0.07131  Biso   1.000  C
  H186     1.0000 0.86340  0.29720  0.06860  Biso   1.000  H
  C374     1.0000 0.99240  0.30290  0.05455  Biso   1.000  C
  C375     1.0000 0.07350  0.31884  0.05842  Biso   1.000  C
  H187     1.0000 0.12340  0.31590  0.04710  Biso   1.000  H
  C376     1.0000 0.84680  0.33332  0.11064  Biso   1.000  C
  C377     1.0000 0.92190  0.26776  0.02291  Biso   1.000  C
  C378     1.0000 0.94030  0.24699  0.99955  Biso   1.000  C
  C379     1.0000 0.87390  0.24336  0.98006  Biso   1.000  C
  H188     1.0000 0.81830  0.25380  0.98130  Biso   1.000  H
  C380     1.0000 0.88960  0.22412  0.95850  Biso   1.000  C
  H189     1.0000 0.84490  0.22170  0.94540  Biso   1.000  H
  C381     1.0000 0.97270  0.20864  0.95681  Biso   1.000  C
  C382     1.0000 0.03960  0.21196  0.97662  Biso   1.000  C
  H190     1.0000 0.09460  0.20120  0.97560  Biso   1.000  H
  C383     1.0000 0.02390  0.23128  0.99767  Biso   1.000  C
  H191     1.0000 0.06890  0.23390  0.01060  Biso   1.000  H
  C384     1.0000 0.98840  0.18711  0.93394  Biso   1.000  C
  N24      1.0000 0.99380  0.28202  0.03252  Biso   1.000  N
  H192     1.0000 0.04620  0.27870  0.02510  Biso   1.000  H
  O162     1.0000 0.23570  0.35093  0.06955  Biso   1.000  O
  O163     1.0000 0.17780  0.37728  0.10034  Biso   1.000  O
  O164     1.0000 0.88140  0.33651  0.13254  Biso   1.000  O
  O165     1.0000 0.76420  0.33425  0.10505  Biso   1.000  O
  O166     1.0000 0.84240  0.27105  0.03011  Biso   1.000  O
  O167     1.0000 0.95470  0.19228  0.91202  Biso   1.000  O
  O168     1.0000 0.03770  0.16634  0.94197  Biso   1.000  O
  C385     1.0000 0.66730  0.39365  0.16542  Biso   1.000  C
  C386     1.0000 0.57990  0.41050  0.17054  Biso   1.000  C
  C387     1.0000 0.50480  0.40581  0.15403  Biso   1.000  C
  H193     1.0000 0.50880  0.39180  0.14030  Biso   1.000  H
  C388     1.0000 0.42420  0.42177  0.15784  Biso   1.000  C
  C389     1.0000 0.41800  0.44226  0.17869  Biso   1.000  C
  H194     1.0000 0.36340  0.45280  0.18140  Biso   1.000  H
  C390     1.0000 0.49240  0.44710  0.19545  Biso   1.000  C
  C391     1.0000 0.57350  0.43116  0.19158  Biso   1.000  C
  H195     1.0000 0.62340  0.43410  0.20290  Biso   1.000  H
  C392     1.0000 0.34680  0.41668  0.13936  Biso   1.000  C
  C393     1.0000 0.42190  0.48224  0.22709  Biso   1.000  C
  C394     1.0000 0.44030  0.50301  0.25045  Biso   1.000  C
  C395     1.0000 0.37390  0.50664  0.26994  Biso   1.000  C
  H196     1.0000 0.31830  0.49620  0.26870  Biso   1.000  H
  C396     1.0000 0.38960  0.52588  0.29150  Biso   1.000  C
  H197     1.0000 0.34490  0.52830  0.30460  Biso   1.000  H
  C397     1.0000 0.47270  0.54136  0.29319  Biso   1.000  C
  C398     1.0000 0.53960  0.53804  0.27338  Biso   1.000  C
  H198     1.0000 0.59460  0.54880  0.27440  Biso   1.000  H
  C399     1.0000 0.52390  0.51872  0.25233  Biso   1.000  C
  H199     1.0000 0.56890  0.51610  0.23940  Biso   1.000  H
  C400     1.0000 0.48840  0.56289  0.31606  Biso   1.000  C
  N25      1.0000 0.49380  0.46798  0.21748  Biso   1.000  N
  H200     1.0000 0.54620  0.47130  0.22490  Biso   1.000  H
  O169     1.0000 0.73570  0.39907  0.18045  Biso   1.000  O
  O170     1.0000 0.67780  0.37272  0.14966  Biso   1.000  O
  O171     1.0000 0.38140  0.41349  0.11746  Biso   1.000  O
  O172     1.0000 0.26420  0.41575  0.14495  Biso   1.000  O
  O173     1.0000 0.34240  0.47895  0.21989  Biso   1.000  O
  O174     1.0000 0.45470  0.55772  0.33798  Biso   1.000  O
  O175     1.0000 0.53770  0.58366  0.30803  Biso   1.000  O
  C401     1.0000 0.66730  0.89365  0.66542  Biso   1.000  C
  C402     1.0000 0.57990  0.91050  0.67054  Biso   1.000  C
  C403     1.0000 0.50480  0.90581  0.65403  Biso   1.000  C
  H201     1.0000 0.50880  0.89180  0.64030  Biso   1.000  H
  C404     1.0000 0.42420  0.92177  0.65784  Biso   1.000  C
  C405     1.0000 0.41800  0.94226  0.67869  Biso   1.000  C
  H202     1.0000 0.36340  0.95280  0.68140  Biso   1.000  H
  C406     1.0000 0.49240  0.94710  0.69545  Biso   1.000  C
  C407     1.0000 0.57350  0.93116  0.69158  Biso   1.000  C
  H203     1.0000 0.62340  0.93410  0.70290  Biso   1.000  H
  C408     1.0000 0.34680  0.91668  0.63936  Biso   1.000  C
  C409     1.0000 0.42190  0.98224  0.72709  Biso   1.000  C
  C410     1.0000 0.44030  0.00301  0.75045  Biso   1.000  C
  C411     1.0000 0.37390  0.00664  0.76994  Biso   1.000  C
  H204     1.0000 0.31830  0.99620  0.76870  Biso   1.000  H
  C412     1.0000 0.38960  0.02588  0.79150  Biso   1.000  C
  H205     1.0000 0.34490  0.02830  0.80460  Biso   1.000  H
  C413     1.0000 0.47270  0.04136  0.79319  Biso   1.000  C
  C414     1.0000 0.53960  0.03804  0.77338  Biso   1.000  C
  H206     1.0000 0.59460  0.04880  0.77440  Biso   1.000  H
  C415     1.0000 0.52390  0.01872  0.75233  Biso   1.000  C
  H207     1.0000 0.56890  0.01610  0.73940  Biso   1.000  H
  C416     1.0000 0.48840  0.06289  0.81606  Biso   1.000  C
  N26      1.0000 0.49380  0.96798  0.71748  Biso   1.000  N
  H208     1.0000 0.54620  0.97130  0.72490  Biso   1.000  H
  O176     1.0000 0.73570  0.89907  0.68045  Biso   1.000  O
  O177     1.0000 0.67780  0.87272  0.64966  Biso   1.000  O
  O178     1.0000 0.38140  0.91349  0.61746  Biso   1.000  O
  O179     1.0000 0.26420  0.91575  0.64495  Biso   1.000  O
  O180     1.0000 0.34240  0.97895  0.71989  Biso   1.000  O
  O181     1.0000 0.45470  0.05772  0.83798  Biso   1.000  O
  O182     1.0000 0.53770  0.08366  0.80803  Biso   1.000  O
  C417     1.0000 0.16730  0.39365  0.66542  Biso   1.000  C
  C418     1.0000 0.07990  0.41050  0.67054  Biso   1.000  C
  C419     1.0000 0.00480  0.40581  0.65403  Biso   1.000  C
  H209     1.0000 0.00880  0.39180  0.64030  Biso   1.000  H
  C420     1.0000 0.92420  0.42177  0.65784  Biso   1.000  C
  C421     1.0000 0.91800  0.44226  0.67869  Biso   1.000  C
  H210     1.0000 0.86340  0.45280  0.68140  Biso   1.000  H
  C422     1.0000 0.99240  0.44710  0.69545  Biso   1.000  C
  C423     1.0000 0.07350  0.43116  0.69158  Biso   1.000  C
  H211     1.0000 0.12340  0.43410  0.70290  Biso   1.000  H
  C424     1.0000 0.84680  0.41668  0.63936  Biso   1.000  C
  C425     1.0000 0.92190  0.48224  0.72709  Biso   1.000  C
  C426     1.0000 0.94030  0.50301  0.75045  Biso   1.000  C
  C427     1.0000 0.87390  0.50664  0.76994  Biso   1.000  C
  H212     1.0000 0.81830  0.49620  0.76870  Biso   1.000  H
  C428     1.0000 0.88960  0.52588  0.79150  Biso   1.000  C
  H213     1.0000 0.84490  0.52830  0.80460  Biso   1.000  H
  C429     1.0000 0.97270  0.54136  0.79319  Biso   1.000  C
  C430     1.0000 0.03960  0.53804  0.77338  Biso   1.000  C
  H214     1.0000 0.09460  0.54880  0.77440  Biso   1.000  H
  C431     1.0000 0.02390  0.51872  0.75233  Biso   1.000  C
  H215     1.0000 0.06890  0.51610  0.73940  Biso   1.000  H
  C432     1.0000 0.98840  0.56289  0.81606  Biso   1.000  C
  N27      1.0000 0.99380  0.46798  0.71748  Biso   1.000  N
  H216     1.0000 0.04620  0.47130  0.72490  Biso   1.000  H
  O183     1.0000 0.23570  0.39907  0.68045  Biso   1.000  O
  O184     1.0000 0.17780  0.37272  0.64966  Biso   1.000  O
  O185     1.0000 0.88140  0.41349  0.61746  Biso   1.000  O
  O186     1.0000 0.76420  0.41575  0.64495  Biso   1.000  O
  O187     1.0000 0.84240  0.47895  0.71989  Biso   1.000  O
  O188     1.0000 0.95470  0.55772  0.83798  Biso   1.000  O
  O189     1.0000 0.03770  0.58366  0.80803  Biso   1.000  O
  C433     1.0000 0.16730  0.89365  0.16542  Biso   1.000  C
  C434     1.0000 0.07990  0.91050  0.17054  Biso   1.000  C
  C435     1.0000 0.00480  0.90581  0.15403  Biso   1.000  C
  H217     1.0000 0.00880  0.89180  0.14030  Biso   1.000  H
  C436     1.0000 0.92420  0.92177  0.15784  Biso   1.000  C
  C437     1.0000 0.91800  0.94226  0.17869  Biso   1.000  C
  H218     1.0000 0.86340  0.95280  0.18140  Biso   1.000  H
  C438     1.0000 0.99240  0.94710  0.19545  Biso   1.000  C
  C439     1.0000 0.07350  0.93116  0.19158  Biso   1.000  C
  H219     1.0000 0.12340  0.93410  0.20290  Biso   1.000  H
  C440     1.0000 0.84680  0.91668  0.13936  Biso   1.000  C
  C441     1.0000 0.92190  0.98224  0.22709  Biso   1.000  C
  C442     1.0000 0.94030  0.00301  0.25045  Biso   1.000  C
  C443     1.0000 0.87390  0.00664  0.26994  Biso   1.000  C
  H220     1.0000 0.81830  0.99620  0.26870  Biso   1.000  H
  C444     1.0000 0.88960  0.02588  0.29150  Biso   1.000  C
  H221     1.0000 0.84490  0.02830  0.30460  Biso   1.000  H
  C445     1.0000 0.97270  0.04136  0.29319  Biso   1.000  C
  C446     1.0000 0.03960  0.03804  0.27338  Biso   1.000  C
  H222     1.0000 0.09460  0.04880  0.27440  Biso   1.000  H
  C447     1.0000 0.02390  0.01872  0.25233  Biso   1.000  C
  H223     1.0000 0.06890  0.01610  0.23940  Biso   1.000  H
  C448     1.0000 0.98840  0.06289  0.31606  Biso   1.000  C
  N28      1.0000 0.99380  0.96798  0.21748  Biso   1.000  N
  H224     1.0000 0.04620  0.97130  0.22490  Biso   1.000  H
  O190     1.0000 0.23570  0.89907  0.18045  Biso   1.000  O
  O191     1.0000 0.17780  0.87272  0.14966  Biso   1.000  O
  O192     1.0000 0.88140  0.91349  0.11746  Biso   1.000  O
  O193     1.0000 0.76420  0.91575  0.14495  Biso   1.000  O
  O194     1.0000 0.84240  0.97895  0.21989  Biso   1.000  O
  O195     1.0000 0.95470  0.05772  0.33798  Biso   1.000  O
  O196     1.0000 0.03770  0.08366  0.30803  Biso   1.000  O
  C449     1.0000 0.58270  0.85635  0.16542  Biso   1.000  C
  C450     1.0000 0.67010  0.83950  0.17054  Biso   1.000  C
  C451     1.0000 0.74520  0.84419  0.15403  Biso   1.000  C
  H225     1.0000 0.74120  0.85820  0.14030  Biso   1.000  H
  C452     1.0000 0.82580  0.82823  0.15784  Biso   1.000  C
  C453     1.0000 0.83200  0.80774  0.17869  Biso   1.000  C
  H226     1.0000 0.88660  0.79720  0.18140  Biso   1.000  H
  C454     1.0000 0.75760  0.80290  0.19545  Biso   1.000  C
  C455     1.0000 0.67650  0.81884  0.19158  Biso   1.000  C
  H227     1.0000 0.62660  0.81590  0.20290  Biso   1.000  H
  C456     1.0000 0.90320  0.83332  0.13936  Biso   1.000  C
  C457     1.0000 0.82810  0.76776  0.22709  Biso   1.000  C
  C458     1.0000 0.80970  0.74699  0.25045  Biso   1.000  C
  C459     1.0000 0.87610  0.74336  0.26994  Biso   1.000  C
  H228     1.0000 0.93170  0.75380  0.26870  Biso   1.000  H
  C460     1.0000 0.86040  0.72412  0.29150  Biso   1.000  C
  H229     1.0000 0.90510  0.72170  0.30460  Biso   1.000  H
  C461     1.0000 0.77730  0.70864  0.29319  Biso   1.000  C
  C462     1.0000 0.71040  0.71196  0.27338  Biso   1.000  C
  H230     1.0000 0.65540  0.70120  0.27440  Biso   1.000  H
  C463     1.0000 0.72610  0.73128  0.25233  Biso   1.000  C
  H231     1.0000 0.68110  0.73390  0.23940  Biso   1.000  H
  C464     1.0000 0.76160  0.68711  0.31606  Biso   1.000  C
  N29      1.0000 0.75620  0.78202  0.21748  Biso   1.000  N
  H232     1.0000 0.70380  0.77870  0.22490  Biso   1.000  H
  O197     1.0000 0.51430  0.85093  0.18045  Biso   1.000  O
  O198     1.0000 0.57220  0.87728  0.14966  Biso   1.000  O
  O199     1.0000 0.86860  0.83651  0.11746  Biso   1.000  O
  O200     1.0000 0.98580  0.83425  0.14495  Biso   1.000  O
  O201     1.0000 0.90760  0.77105  0.21989  Biso   1.000  O
  O202     1.0000 0.79530  0.69228  0.33798  Biso   1.000  O
  O203     1.0000 0.71230  0.66634  0.30803  Biso   1.000  O
  C465     1.0000 0.58270  0.35635  0.66542  Biso   1.000  C
  C466     1.0000 0.67010  0.33950  0.67054  Biso   1.000  C
  C467     1.0000 0.74520  0.34419  0.65403  Biso   1.000  C
  H233     1.0000 0.74120  0.35820  0.64030  Biso   1.000  H
  C468     1.0000 0.82580  0.32823  0.65784  Biso   1.000  C
  C469     1.0000 0.83200  0.30774  0.67869  Biso   1.000  C
  H234     1.0000 0.88660  0.29720  0.68140  Biso   1.000  H
  C470     1.0000 0.75760  0.30290  0.69545  Biso   1.000  C
  C471     1.0000 0.67650  0.31884  0.69158  Biso   1.000  C
  H235     1.0000 0.62660  0.31590  0.70290  Biso   1.000  H
  C472     1.0000 0.90320  0.33332  0.63936  Biso   1.000  C
  C473     1.0000 0.82810  0.26776  0.72709  Biso   1.000  C
  C474     1.0000 0.80970  0.24699  0.75045  Biso   1.000  C
  C475     1.0000 0.87610  0.24336  0.76994  Biso   1.000  C
  H236     1.0000 0.93170  0.25380  0.76870  Biso   1.000  H
  C476     1.0000 0.86040  0.22412  0.79150  Biso   1.000  C
  H237     1.0000 0.90510  0.22170  0.80460  Biso   1.000  H
  C477     1.0000 0.77730  0.20864  0.79319  Biso   1.000  C
  C478     1.0000 0.71040  0.21196  0.77338  Biso   1.000  C
  H238     1.0000 0.65540  0.20120  0.77440  Biso   1.000  H
  C479     1.0000 0.72610  0.23128  0.75233  Biso   1.000  C
  H239     1.0000 0.68110  0.23390  0.73940  Biso   1.000  H
  C480     1.0000 0.76160  0.18711  0.81606  Biso   1.000  C
  N30      1.0000 0.75620  0.28202  0.71748  Biso   1.000  N
  H240     1.0000 0.70380  0.27870  0.72490  Biso   1.000  H
  O204     1.0000 0.51430  0.35093  0.68045  Biso   1.000  O
  O205     1.0000 0.57220  0.37728  0.64966  Biso   1.000  O
  O206     1.0000 0.86860  0.33651  0.61746  Biso   1.000  O
  O207     1.0000 0.98580  0.33425  0.64495  Biso   1.000  O
  O208     1.0000 0.90760  0.27105  0.71989  Biso   1.000  O
  O209     1.0000 0.79530  0.19228  0.83798  Biso   1.000  O
  O210     1.0000 0.71230  0.16634  0.80803  Biso   1.000  O
  C481     1.0000 0.08270  0.85635  0.66542  Biso   1.000  C
  C482     1.0000 0.17010  0.83950  0.67054  Biso   1.000  C
  C483     1.0000 0.24520  0.84419  0.65403  Biso   1.000  C
  H241     1.0000 0.24120  0.85820  0.64030  Biso   1.000  H
  C484     1.0000 0.32580  0.82823  0.65784  Biso   1.000  C
  C485     1.0000 0.33200  0.80774  0.67869  Biso   1.000  C
  H242     1.0000 0.38660  0.79720  0.68140  Biso   1.000  H
  C486     1.0000 0.25760  0.80290  0.69545  Biso   1.000  C
  C487     1.0000 0.17650  0.81884  0.69158  Biso   1.000  C
  H243     1.0000 0.12660  0.81590  0.70290  Biso   1.000  H
  C488     1.0000 0.40320  0.83332  0.63936  Biso   1.000  C
  C489     1.0000 0.32810  0.76776  0.72709  Biso   1.000  C
  C490     1.0000 0.30970  0.74699  0.75045  Biso   1.000  C
  C491     1.0000 0.37610  0.74336  0.76994  Biso   1.000  C
  H244     1.0000 0.43170  0.75380  0.76870  Biso   1.000  H
  C492     1.0000 0.36040  0.72412  0.79150  Biso   1.000  C
  H245     1.0000 0.40510  0.72170  0.80460  Biso   1.000  H
  C493     1.0000 0.27730  0.70864  0.79319  Biso   1.000  C
  C494     1.0000 0.21040  0.71196  0.77338  Biso   1.000  C
  H246     1.0000 0.15540  0.70120  0.77440  Biso   1.000  H
  C495     1.0000 0.22610  0.73128  0.75233  Biso   1.000  C
  H247     1.0000 0.18110  0.73390  0.73940  Biso   1.000  H
  C496     1.0000 0.26160  0.68711  0.81606  Biso   1.000  C
  N31      1.0000 0.25620  0.78202  0.71748  Biso   1.000  N
  H248     1.0000 0.20380  0.77870  0.72490  Biso   1.000  H
  O211     1.0000 0.01430  0.85093  0.68045  Biso   1.000  O
  O212     1.0000 0.07220  0.87728  0.64966  Biso   1.000  O
  O213     1.0000 0.36860  0.83651  0.61746  Biso   1.000  O
  O214     1.0000 0.48580  0.83425  0.64495  Biso   1.000  O
  O215     1.0000 0.40760  0.77105  0.71989  Biso   1.000  O
  O216     1.0000 0.29530  0.69228  0.83798  Biso   1.000  O
  O217     1.0000 0.21230  0.66634  0.80803  Biso   1.000  O
  C497     1.0000 0.08270  0.35635  0.16542  Biso   1.000  C
  C498     1.0000 0.17010  0.33950  0.17054  Biso   1.000  C
  C499     1.0000 0.24520  0.34419  0.15403  Biso   1.000  C
  H249     1.0000 0.24120  0.35820  0.14030  Biso   1.000  H
  C500     1.0000 0.32580  0.32823  0.15784  Biso   1.000  C
  C501     1.0000 0.33200  0.30774  0.17869  Biso   1.000  C
  H250     1.0000 0.38660  0.29720  0.18140  Biso   1.000  H
  C502     1.0000 0.25760  0.30290  0.19545  Biso   1.000  C
  C503     1.0000 0.17650  0.31884  0.19158  Biso   1.000  C
  H251     1.0000 0.12660  0.31590  0.20290  Biso   1.000  H
  C504     1.0000 0.40320  0.33332  0.13936  Biso   1.000  C
  C505     1.0000 0.32810  0.26776  0.22709  Biso   1.000  C
  C506     1.0000 0.30970  0.24699  0.25045  Biso   1.000  C
  C507     1.0000 0.37610  0.24336  0.26994  Biso   1.000  C
  H252     1.0000 0.43170  0.25380  0.26870  Biso   1.000  H
  C508     1.0000 0.36040  0.22412  0.29150  Biso   1.000  C
  H253     1.0000 0.40510  0.22170  0.30460  Biso   1.000  H
  C509     1.0000 0.27730  0.20864  0.29319  Biso   1.000  C
  C510     1.0000 0.21040  0.21196  0.27338  Biso   1.000  C
  H254     1.0000 0.15540  0.20120  0.27440  Biso   1.000  H
  C511     1.0000 0.22610  0.23128  0.25233  Biso   1.000  C
  H255     1.0000 0.18110  0.23390  0.23940  Biso   1.000  H
  C512     1.0000 0.26160  0.18711  0.31606  Biso   1.000  C
  N32      1.0000 0.25620  0.28202  0.21748  Biso   1.000  N
  H256     1.0000 0.20380  0.27870  0.22490  Biso   1.000  H
  O218     1.0000 0.01430  0.35093  0.18045  Biso   1.000  O
  O219     1.0000 0.07220  0.37728  0.14966  Biso   1.000  O
  O220     1.0000 0.36860  0.33651  0.11746  Biso   1.000  O
  O221     1.0000 0.48580  0.33425  0.14495  Biso   1.000  O
  O222     1.0000 0.40760  0.27105  0.21989  Biso   1.000  O
  O223     1.0000 0.29530  0.19228  0.33798  Biso   1.000  O
  O224     1.0000 0.21230  0.16634  0.30803  Biso   1.000  O
  Eu1      1.0000 0.62500  0.62500  0.91974  Biso   1.000  Eu
  Eu2      1.0000 0.62500  0.12500  0.41974  Biso   1.000  Eu
  Eu3      1.0000 0.12500  0.12500  0.91974  Biso   1.000  Eu
  Eu4      1.0000 0.12500  0.62500  0.41974  Biso   1.000  Eu
  Eu5      1.0000 0.12500  0.62500  0.83026  Biso   1.000  Eu
  Eu6      1.0000 0.12500  0.12500  0.33026  Biso   1.000  Eu
  Eu7      1.0000 0.62500  0.62500  0.33026  Biso   1.000  Eu
  Eu8      1.0000 0.62500  0.12500  0.83026  Biso   1.000  Eu
  Eu9      1.0000 0.37500  0.37500  0.08026  Biso   1.000  Eu
  Eu10     1.0000 0.37500  0.87500  0.58026  Biso   1.000  Eu
  Eu11     1.0000 0.87500  0.87500  0.08026  Biso   1.000  Eu
  Eu12     1.0000 0.87500  0.37500  0.58026  Biso   1.000  Eu
  Eu13     1.0000 0.87500  0.37500  0.16974  Biso   1.000  Eu
  Eu14     1.0000 0.87500  0.87500  0.66974  Biso   1.000  Eu
  Eu15     1.0000 0.37500  0.87500  0.16974  Biso   1.000  Eu
  Eu16     1.0000 0.37500  0.37500  0.66974  Biso   1.000  Eu
  Eu17     1.0000 0.37500  0.67126  0.87500  Biso   1.000  Eu
  Eu18     1.0000 0.37500  0.17126  0.37500  Biso   1.000  Eu
  Eu19     1.0000 0.87500  0.67126  0.37500  Biso   1.000  Eu
  Eu20     1.0000 0.87500  0.17126  0.87500  Biso   1.000  Eu
  Eu21     1.0000 0.37500  0.07874  0.87500  Biso   1.000  Eu
  Eu22     1.0000 0.37500  0.57874  0.37500  Biso   1.000  Eu
  Eu23     1.0000 0.87500  0.07874  0.37500  Biso   1.000  Eu
  Eu24     1.0000 0.87500  0.57874  0.87500  Biso   1.000  Eu
  Eu25     1.0000 0.62500  0.32874  0.12500  Biso   1.000  Eu
  Eu26     1.0000 0.62500  0.82874  0.62500  Biso   1.000  Eu
  Eu27     1.0000 0.12500  0.32874  0.62500  Biso   1.000  Eu
  Eu28     1.0000 0.12500  0.82874  0.12500  Biso   1.000  Eu
  Eu29     1.0000 0.62500  0.92126  0.12500  Biso   1.000  Eu
  Eu30     1.0000 0.62500  0.42126  0.62500  Biso   1.000  Eu
  Eu31     1.0000 0.12500  0.92126  0.62500  Biso   1.000  Eu
  Eu32     1.0000 0.12500  0.42126  0.12500  Biso   1.000  Eu
