data_image0
_cell_length_a       22.694
_cell_length_b       29.694
_cell_length_c       33.408
_cell_angle_alpha    90
_cell_angle_beta     90
_cell_angle_gamma    90

_symmetry_space_group_name_H-M    "P 1"
_symmetry_int_tables_number       1

loop_
  _symmetry_equiv_pos_as_xyz
  'x, y, z'

loop_
  _atom_site_label
  _atom_site_occupancy
  _atom_site_fract_x
  _atom_site_fract_y
  _atom_site_fract_z
  _atom_site_thermal_displace_type
  _atom_site_B_iso_or_equiv
  _atom_site_type_symbol
  O1       1.0000 0.53920  0.04030  0.79940  Biso   1.000  O
  O2       1.0000 0.60720  0.07120  0.75860  Biso   1.000  O
  N1       1.0000 0.69270  0.22170  0.97320  Biso   1.000  N
  N2       1.0000 0.65360  0.25010  0.95540  Biso   1.000  N
  H1       1.0000 0.64610  0.27730  0.96450  Biso   1.000  H
  C1       1.0000 0.58270  0.06690  0.79130  Biso   1.000  C
  C2       1.0000 0.60260  0.09720  0.82610  Biso   1.000  C
  C3       1.0000 0.63650  0.13450  0.81750  Biso   1.000  C
  H2       1.0000 0.64990  0.13930  0.79090  Biso   1.000  H
  C4       1.0000 0.65130  0.16490  0.84690  Biso   1.000  C
  H3       1.0000 0.67240  0.19140  0.83990  Biso   1.000  H
  C5       1.0000 0.63580  0.15760  0.88630  Biso   1.000  C
  C6       1.0000 0.60430  0.11940  0.89480  Biso   1.000  C
  H4       1.0000 0.59440  0.11250  0.92170  Biso   1.000  H
  C7       1.0000 0.58630  0.09030  0.86390  Biso   1.000  C
  H5       1.0000 0.56210  0.06510  0.87010  Biso   1.000  H
  C8       1.0000 0.65010  0.19060  0.91930  Biso   1.000  C
  C9       1.0000 0.69110  0.18470  0.94940  Biso   1.000  C
  C10      1.0000 0.62810  0.23340  0.92340  Biso   1.000  C
  C11      1.0000 0.72820  0.14540  0.95940  Biso   1.000  C
  H6       1.0000 0.74990  0.15150  0.98420  Biso   1.000  H
  H7       1.0000 0.75610  0.13990  0.93760  Biso   1.000  H
  H8       1.0000 0.70310  0.11890  0.96310  Biso   1.000  H
  C12      1.0000 0.58190  0.25930  0.89920  Biso   1.000  C
  H9       1.0000 0.59270  0.29130  0.89830  Biso   1.000  H
  H10      1.0000 0.54330  0.25610  0.91200  Biso   1.000  H
  H11      1.0000 0.58020  0.24730  0.87200  Biso   1.000  H
  O3       1.0000 0.53920  0.54030  0.29940  Biso   1.000  O
  O4       1.0000 0.60720  0.57120  0.25860  Biso   1.000  O
  N3       1.0000 0.69270  0.72170  0.47320  Biso   1.000  N
  N4       1.0000 0.65360  0.75010  0.45540  Biso   1.000  N
  H12      1.0000 0.64610  0.77730  0.46450  Biso   1.000  H
  C13      1.0000 0.58270  0.56690  0.29130  Biso   1.000  C
  C14      1.0000 0.60260  0.59720  0.32610  Biso   1.000  C
  C15      1.0000 0.63650  0.63450  0.31750  Biso   1.000  C
  H13      1.0000 0.64990  0.63930  0.29090  Biso   1.000  H
  C16      1.0000 0.65130  0.66490  0.34690  Biso   1.000  C
  H14      1.0000 0.67240  0.69140  0.33990  Biso   1.000  H
  C17      1.0000 0.63580  0.65760  0.38630  Biso   1.000  C
  C18      1.0000 0.60430  0.61940  0.39480  Biso   1.000  C
  H15      1.0000 0.59440  0.61250  0.42170  Biso   1.000  H
  C19      1.0000 0.58630  0.59030  0.36390  Biso   1.000  C
  H16      1.0000 0.56210  0.56510  0.37010  Biso   1.000  H
  C20      1.0000 0.65010  0.69060  0.41930  Biso   1.000  C
  C21      1.0000 0.69110  0.68470  0.44940  Biso   1.000  C
  C22      1.0000 0.62810  0.73340  0.42340  Biso   1.000  C
  C23      1.0000 0.72820  0.64540  0.45940  Biso   1.000  C
  H17      1.0000 0.74990  0.65150  0.48420  Biso   1.000  H
  H18      1.0000 0.75610  0.63990  0.43760  Biso   1.000  H
  H19      1.0000 0.70310  0.61890  0.46310  Biso   1.000  H
  C24      1.0000 0.58190  0.75930  0.39920  Biso   1.000  C
  H20      1.0000 0.59270  0.79130  0.39830  Biso   1.000  H
  H21      1.0000 0.54330  0.75610  0.41200  Biso   1.000  H
  H22      1.0000 0.58020  0.74730  0.37200  Biso   1.000  H
  O5       1.0000 0.03920  0.04030  0.29940  Biso   1.000  O
  O6       1.0000 0.10720  0.07120  0.25860  Biso   1.000  O
  N5       1.0000 0.19270  0.22170  0.47320  Biso   1.000  N
  N6       1.0000 0.15360  0.25010  0.45540  Biso   1.000  N
  H23      1.0000 0.14610  0.27730  0.46450  Biso   1.000  H
  C25      1.0000 0.08270  0.06690  0.29130  Biso   1.000  C
  C26      1.0000 0.10260  0.09720  0.32610  Biso   1.000  C
  C27      1.0000 0.13650  0.13450  0.31750  Biso   1.000  C
  H24      1.0000 0.14990  0.13930  0.29090  Biso   1.000  H
  C28      1.0000 0.15130  0.16490  0.34690  Biso   1.000  C
  H25      1.0000 0.17240  0.19140  0.33990  Biso   1.000  H
  C29      1.0000 0.13580  0.15760  0.38630  Biso   1.000  C
  C30      1.0000 0.10430  0.11940  0.39480  Biso   1.000  C
  H26      1.0000 0.09440  0.11250  0.42170  Biso   1.000  H
  C31      1.0000 0.08630  0.09030  0.36390  Biso   1.000  C
  H27      1.0000 0.06210  0.06510  0.37010  Biso   1.000  H
  C32      1.0000 0.15010  0.19060  0.41930  Biso   1.000  C
  C33      1.0000 0.19110  0.18470  0.44940  Biso   1.000  C
  C34      1.0000 0.12810  0.23340  0.42340  Biso   1.000  C
  C35      1.0000 0.22820  0.14540  0.45940  Biso   1.000  C
  H28      1.0000 0.24990  0.15150  0.48420  Biso   1.000  H
  H29      1.0000 0.25610  0.13990  0.43760  Biso   1.000  H
  H30      1.0000 0.20310  0.11890  0.46310  Biso   1.000  H
  C36      1.0000 0.08190  0.25930  0.39920  Biso   1.000  C
  H31      1.0000 0.09270  0.29130  0.39830  Biso   1.000  H
  H32      1.0000 0.04330  0.25610  0.41200  Biso   1.000  H
  H33      1.0000 0.08020  0.24730  0.37200  Biso   1.000  H
  O7       1.0000 0.03920  0.54030  0.79940  Biso   1.000  O
  O8       1.0000 0.10720  0.57120  0.75860  Biso   1.000  O
  N7       1.0000 0.19270  0.72170  0.97320  Biso   1.000  N
  N8       1.0000 0.15360  0.75010  0.95540  Biso   1.000  N
  H34      1.0000 0.14610  0.77730  0.96450  Biso   1.000  H
  C37      1.0000 0.08270  0.56690  0.79130  Biso   1.000  C
  C38      1.0000 0.10260  0.59720  0.82610  Biso   1.000  C
  C39      1.0000 0.13650  0.63450  0.81750  Biso   1.000  C
  H35      1.0000 0.14990  0.63930  0.79090  Biso   1.000  H
  C40      1.0000 0.15130  0.66490  0.84690  Biso   1.000  C
  H36      1.0000 0.17240  0.69140  0.83990  Biso   1.000  H
  C41      1.0000 0.13580  0.65760  0.88630  Biso   1.000  C
  C42      1.0000 0.10430  0.61940  0.89480  Biso   1.000  C
  H37      1.0000 0.09440  0.61250  0.92170  Biso   1.000  H
  C43      1.0000 0.08630  0.59030  0.86390  Biso   1.000  C
  H38      1.0000 0.06210  0.56510  0.87010  Biso   1.000  H
  C44      1.0000 0.15010  0.69060  0.91930  Biso   1.000  C
  C45      1.0000 0.19110  0.68470  0.94940  Biso   1.000  C
  C46      1.0000 0.12810  0.73340  0.92340  Biso   1.000  C
  C47      1.0000 0.22820  0.64540  0.95940  Biso   1.000  C
  H39      1.0000 0.24990  0.65150  0.98420  Biso   1.000  H
  H40      1.0000 0.25610  0.63990  0.93760  Biso   1.000  H
  H41      1.0000 0.20310  0.61890  0.96310  Biso   1.000  H
  C48      1.0000 0.08190  0.75930  0.89920  Biso   1.000  C
  H42      1.0000 0.09270  0.79130  0.89830  Biso   1.000  H
  H43      1.0000 0.04330  0.75610  0.91200  Biso   1.000  H
  H44      1.0000 0.08020  0.74730  0.87200  Biso   1.000  H
  O9       1.0000 0.46080  0.95970  0.79940  Biso   1.000  O
  O10      1.0000 0.39280  0.92880  0.75860  Biso   1.000  O
  N9       1.0000 0.30730  0.77830  0.97320  Biso   1.000  N
  N10      1.0000 0.34640  0.74990  0.95540  Biso   1.000  N
  H45      1.0000 0.35390  0.72270  0.96450  Biso   1.000  H
  C49      1.0000 0.41730  0.93310  0.79130  Biso   1.000  C
  C50      1.0000 0.39740  0.90280  0.82610  Biso   1.000  C
  C51      1.0000 0.36350  0.86550  0.81750  Biso   1.000  C
  H46      1.0000 0.35010  0.86070  0.79090  Biso   1.000  H
  C52      1.0000 0.34870  0.83510  0.84690  Biso   1.000  C
  H47      1.0000 0.32760  0.80860  0.83990  Biso   1.000  H
  C53      1.0000 0.36420  0.84240  0.88630  Biso   1.000  C
  C54      1.0000 0.39570  0.88060  0.89480  Biso   1.000  C
  H48      1.0000 0.40560  0.88750  0.92170  Biso   1.000  H
  C55      1.0000 0.41370  0.90970  0.86390  Biso   1.000  C
  H49      1.0000 0.43790  0.93490  0.87010  Biso   1.000  H
  C56      1.0000 0.34990  0.80940  0.91930  Biso   1.000  C
  C57      1.0000 0.30890  0.81530  0.94940  Biso   1.000  C
  C58      1.0000 0.37190  0.76660  0.92340  Biso   1.000  C
  C59      1.0000 0.27180  0.85460  0.95940  Biso   1.000  C
  H50      1.0000 0.25010  0.84850  0.98420  Biso   1.000  H
  H51      1.0000 0.24390  0.86010  0.93760  Biso   1.000  H
  H52      1.0000 0.29690  0.88110  0.96310  Biso   1.000  H
  C60      1.0000 0.41810  0.74070  0.89920  Biso   1.000  C
  H53      1.0000 0.40730  0.70870  0.89830  Biso   1.000  H
  H54      1.0000 0.45670  0.74390  0.91200  Biso   1.000  H
  H55      1.0000 0.41980  0.75270  0.87200  Biso   1.000  H
  O11      1.0000 0.46080  0.45970  0.29940  Biso   1.000  O
  O12      1.0000 0.39280  0.42880  0.25860  Biso   1.000  O
  N11      1.0000 0.30730  0.27830  0.47320  Biso   1.000  N
  N12      1.0000 0.34640  0.24990  0.45540  Biso   1.000  N
  H56      1.0000 0.35390  0.22270  0.46450  Biso   1.000  H
  C61      1.0000 0.41730  0.43310  0.29130  Biso   1.000  C
  C62      1.0000 0.39740  0.40280  0.32610  Biso   1.000  C
  C63      1.0000 0.36350  0.36550  0.31750  Biso   1.000  C
  H57      1.0000 0.35010  0.36070  0.29090  Biso   1.000  H
  C64      1.0000 0.34870  0.33510  0.34690  Biso   1.000  C
  H58      1.0000 0.32760  0.30860  0.33990  Biso   1.000  H
  C65      1.0000 0.36420  0.34240  0.38630  Biso   1.000  C
  C66      1.0000 0.39570  0.38060  0.39480  Biso   1.000  C
  H59      1.0000 0.40560  0.38750  0.42170  Biso   1.000  H
  C67      1.0000 0.41370  0.40970  0.36390  Biso   1.000  C
  H60      1.0000 0.43790  0.43490  0.37010  Biso   1.000  H
  C68      1.0000 0.34990  0.30940  0.41930  Biso   1.000  C
  C69      1.0000 0.30890  0.31530  0.44940  Biso   1.000  C
  C70      1.0000 0.37190  0.26660  0.42340  Biso   1.000  C
  C71      1.0000 0.27180  0.35460  0.45940  Biso   1.000  C
  H61      1.0000 0.25010  0.34850  0.48420  Biso   1.000  H
  H62      1.0000 0.24390  0.36010  0.43760  Biso   1.000  H
  H63      1.0000 0.29690  0.38110  0.46310  Biso   1.000  H
  C72      1.0000 0.41810  0.24070  0.39920  Biso   1.000  C
  H64      1.0000 0.40730  0.20870  0.39830  Biso   1.000  H
  H65      1.0000 0.45670  0.24390  0.41200  Biso   1.000  H
  H66      1.0000 0.41980  0.25270  0.37200  Biso   1.000  H
  O13      1.0000 0.96080  0.95970  0.29940  Biso   1.000  O
  O14      1.0000 0.89280  0.92880  0.25860  Biso   1.000  O
  N13      1.0000 0.80730  0.77830  0.47320  Biso   1.000  N
  N14      1.0000 0.84640  0.74990  0.45540  Biso   1.000  N
  H67      1.0000 0.85390  0.72270  0.46450  Biso   1.000  H
  C73      1.0000 0.91730  0.93310  0.29130  Biso   1.000  C
  C74      1.0000 0.89740  0.90280  0.32610  Biso   1.000  C
  C75      1.0000 0.86350  0.86550  0.31750  Biso   1.000  C
  H68      1.0000 0.85010  0.86070  0.29090  Biso   1.000  H
  C76      1.0000 0.84870  0.83510  0.34690  Biso   1.000  C
  H69      1.0000 0.82760  0.80860  0.33990  Biso   1.000  H
  C77      1.0000 0.86420  0.84240  0.38630  Biso   1.000  C
  C78      1.0000 0.89570  0.88060  0.39480  Biso   1.000  C
  H70      1.0000 0.90560  0.88750  0.42170  Biso   1.000  H
  C79      1.0000 0.91370  0.90970  0.36390  Biso   1.000  C
  H71      1.0000 0.93790  0.93490  0.37010  Biso   1.000  H
  C80      1.0000 0.84990  0.80940  0.41930  Biso   1.000  C
  C81      1.0000 0.80890  0.81530  0.44940  Biso   1.000  C
  C82      1.0000 0.87190  0.76660  0.42340  Biso   1.000  C
  C83      1.0000 0.77180  0.85460  0.45940  Biso   1.000  C
  H72      1.0000 0.75010  0.84850  0.48420  Biso   1.000  H
  H73      1.0000 0.74390  0.86010  0.43760  Biso   1.000  H
  H74      1.0000 0.79690  0.88110  0.46310  Biso   1.000  H
  C84      1.0000 0.91810  0.74070  0.39920  Biso   1.000  C
  H75      1.0000 0.90730  0.70870  0.39830  Biso   1.000  H
  H76      1.0000 0.95670  0.74390  0.41200  Biso   1.000  H
  H77      1.0000 0.91980  0.75270  0.37200  Biso   1.000  H
  O15      1.0000 0.96080  0.45970  0.79940  Biso   1.000  O
  O16      1.0000 0.89280  0.42880  0.75860  Biso   1.000  O
  N15      1.0000 0.80730  0.27830  0.97320  Biso   1.000  N
  N16      1.0000 0.84640  0.24990  0.95540  Biso   1.000  N
  H78      1.0000 0.85390  0.22270  0.96450  Biso   1.000  H
  C85      1.0000 0.91730  0.43310  0.79130  Biso   1.000  C
  C86      1.0000 0.89740  0.40280  0.82610  Biso   1.000  C
  C87      1.0000 0.86350  0.36550  0.81750  Biso   1.000  C
  H79      1.0000 0.85010  0.36070  0.79090  Biso   1.000  H
  C88      1.0000 0.84870  0.33510  0.84690  Biso   1.000  C
  H80      1.0000 0.82760  0.30860  0.83990  Biso   1.000  H
  C89      1.0000 0.86420  0.34240  0.88630  Biso   1.000  C
  C90      1.0000 0.89570  0.38060  0.89480  Biso   1.000  C
  H81      1.0000 0.90560  0.38750  0.92170  Biso   1.000  H
  C91      1.0000 0.91370  0.40970  0.86390  Biso   1.000  C
  H82      1.0000 0.93790  0.43490  0.87010  Biso   1.000  H
  C92      1.0000 0.84990  0.30940  0.91930  Biso   1.000  C
  C93      1.0000 0.80890  0.31530  0.94940  Biso   1.000  C
  C94      1.0000 0.87190  0.26660  0.92340  Biso   1.000  C
  C95      1.0000 0.77180  0.35460  0.95940  Biso   1.000  C
  H83      1.0000 0.75010  0.34850  0.98420  Biso   1.000  H
  H84      1.0000 0.74390  0.36010  0.93760  Biso   1.000  H
  H85      1.0000 0.79690  0.38110  0.96310  Biso   1.000  H
  C96      1.0000 0.91810  0.24070  0.89920  Biso   1.000  C
  H86      1.0000 0.90730  0.20870  0.89830  Biso   1.000  H
  H87      1.0000 0.95670  0.24390  0.91200  Biso   1.000  H
  H88      1.0000 0.91980  0.25270  0.87200  Biso   1.000  H
  O17      1.0000 0.78920  0.20970  0.04940  Biso   1.000  O
  O18      1.0000 0.85720  0.17880  0.00860  Biso   1.000  O
  N17      1.0000 0.94270  0.02830  0.22320  Biso   1.000  N
  N18      1.0000 0.90360  0.99990  0.20540  Biso   1.000  N
  H89      1.0000 0.89610  0.97270  0.21450  Biso   1.000  H
  C97      1.0000 0.83270  0.18310  0.04130  Biso   1.000  C
  C98      1.0000 0.85260  0.15280  0.07610  Biso   1.000  C
  C99      1.0000 0.88650  0.11550  0.06750  Biso   1.000  C
  H90      1.0000 0.89990  0.11070  0.04090  Biso   1.000  H
  C100     1.0000 0.90130  0.08510  0.09690  Biso   1.000  C
  H91      1.0000 0.92240  0.05860  0.08990  Biso   1.000  H
  C101     1.0000 0.88580  0.09240  0.13630  Biso   1.000  C
  C102     1.0000 0.85430  0.13060  0.14480  Biso   1.000  C
  H92      1.0000 0.84440  0.13750  0.17170  Biso   1.000  H
  C103     1.0000 0.83630  0.15970  0.11390  Biso   1.000  C
  H93      1.0000 0.81210  0.18490  0.12010  Biso   1.000  H
  C104     1.0000 0.90010  0.05940  0.16930  Biso   1.000  C
  C105     1.0000 0.94110  0.06530  0.19940  Biso   1.000  C
  C106     1.0000 0.87810  0.01660  0.17340  Biso   1.000  C
  C107     1.0000 0.97820  0.10460  0.20940  Biso   1.000  C
  H94      1.0000 0.99990  0.09850  0.23420  Biso   1.000  H
  H95      1.0000 0.00610  0.11010  0.18760  Biso   1.000  H
  H96      1.0000 0.95310  0.13110  0.21310  Biso   1.000  H
  C108     1.0000 0.83190  0.99070  0.14920  Biso   1.000  C
  H97      1.0000 0.84270  0.95870  0.14830  Biso   1.000  H
  H98      1.0000 0.79330  0.99390  0.16200  Biso   1.000  H
  H99      1.0000 0.83020  0.00270  0.12200  Biso   1.000  H
  O19      1.0000 0.78920  0.70970  0.54940  Biso   1.000  O
  O20      1.0000 0.85720  0.67880  0.50860  Biso   1.000  O
  N19      1.0000 0.94270  0.52830  0.72320  Biso   1.000  N
  N20      1.0000 0.90360  0.49990  0.70540  Biso   1.000  N
  H100     1.0000 0.89610  0.47270  0.71450  Biso   1.000  H
  C109     1.0000 0.83270  0.68310  0.54130  Biso   1.000  C
  C110     1.0000 0.85260  0.65280  0.57610  Biso   1.000  C
  C111     1.0000 0.88650  0.61550  0.56750  Biso   1.000  C
  H101     1.0000 0.89990  0.61070  0.54090  Biso   1.000  H
  C112     1.0000 0.90130  0.58510  0.59690  Biso   1.000  C
  H102     1.0000 0.92240  0.55860  0.58990  Biso   1.000  H
  C113     1.0000 0.88580  0.59240  0.63630  Biso   1.000  C
  C114     1.0000 0.85430  0.63060  0.64480  Biso   1.000  C
  H103     1.0000 0.84440  0.63750  0.67170  Biso   1.000  H
  C115     1.0000 0.83630  0.65970  0.61390  Biso   1.000  C
  H104     1.0000 0.81210  0.68490  0.62010  Biso   1.000  H
  C116     1.0000 0.90010  0.55940  0.66930  Biso   1.000  C
  C117     1.0000 0.94110  0.56530  0.69940  Biso   1.000  C
  C118     1.0000 0.87810  0.51660  0.67340  Biso   1.000  C
  C119     1.0000 0.97820  0.60460  0.70940  Biso   1.000  C
  H105     1.0000 0.99990  0.59850  0.73420  Biso   1.000  H
  H106     1.0000 0.00610  0.61010  0.68760  Biso   1.000  H
  H107     1.0000 0.95310  0.63110  0.71310  Biso   1.000  H
  C120     1.0000 0.83190  0.49070  0.64920  Biso   1.000  C
  H108     1.0000 0.84270  0.45870  0.64830  Biso   1.000  H
  H109     1.0000 0.79330  0.49390  0.66200  Biso   1.000  H
  H110     1.0000 0.83020  0.50270  0.62200  Biso   1.000  H
  O21      1.0000 0.28920  0.20970  0.54940  Biso   1.000  O
  O22      1.0000 0.35720  0.17880  0.50860  Biso   1.000  O
  N21      1.0000 0.44270  0.02830  0.72320  Biso   1.000  N
  N22      1.0000 0.40360  0.99990  0.70540  Biso   1.000  N
  H111     1.0000 0.39610  0.97270  0.71450  Biso   1.000  H
  C121     1.0000 0.33270  0.18310  0.54130  Biso   1.000  C
  C122     1.0000 0.35260  0.15280  0.57610  Biso   1.000  C
  C123     1.0000 0.38650  0.11550  0.56750  Biso   1.000  C
  H112     1.0000 0.39990  0.11070  0.54090  Biso   1.000  H
  C124     1.0000 0.40130  0.08510  0.59690  Biso   1.000  C
  H113     1.0000 0.42240  0.05860  0.58990  Biso   1.000  H
  C125     1.0000 0.38580  0.09240  0.63630  Biso   1.000  C
  C126     1.0000 0.35430  0.13060  0.64480  Biso   1.000  C
  H114     1.0000 0.34440  0.13750  0.67170  Biso   1.000  H
  C127     1.0000 0.33630  0.15970  0.61390  Biso   1.000  C
  H115     1.0000 0.31210  0.18490  0.62010  Biso   1.000  H
  C128     1.0000 0.40010  0.05940  0.66930  Biso   1.000  C
  C129     1.0000 0.44110  0.06530  0.69940  Biso   1.000  C
  C130     1.0000 0.37810  0.01660  0.67340  Biso   1.000  C
  C131     1.0000 0.47820  0.10460  0.70940  Biso   1.000  C
  H116     1.0000 0.49990  0.09850  0.73420  Biso   1.000  H
  H117     1.0000 0.50610  0.11010  0.68760  Biso   1.000  H
  H118     1.0000 0.45310  0.13110  0.71310  Biso   1.000  H
  C132     1.0000 0.33190  0.99070  0.64920  Biso   1.000  C
  H119     1.0000 0.34270  0.95870  0.64830  Biso   1.000  H
  H120     1.0000 0.29330  0.99390  0.66200  Biso   1.000  H
  H121     1.0000 0.33020  0.00270  0.62200  Biso   1.000  H
  O23      1.0000 0.28920  0.70970  0.04940  Biso   1.000  O
  O24      1.0000 0.35720  0.67880  0.00860  Biso   1.000  O
  N23      1.0000 0.44270  0.52830  0.22320  Biso   1.000  N
  N24      1.0000 0.40360  0.49990  0.20540  Biso   1.000  N
  H122     1.0000 0.39610  0.47270  0.21450  Biso   1.000  H
  C133     1.0000 0.33270  0.68310  0.04130  Biso   1.000  C
  C134     1.0000 0.35260  0.65280  0.07610  Biso   1.000  C
  C135     1.0000 0.38650  0.61550  0.06750  Biso   1.000  C
  H123     1.0000 0.39990  0.61070  0.04090  Biso   1.000  H
  C136     1.0000 0.40130  0.58510  0.09690  Biso   1.000  C
  H124     1.0000 0.42240  0.55860  0.08990  Biso   1.000  H
  C137     1.0000 0.38580  0.59240  0.13630  Biso   1.000  C
  C138     1.0000 0.35430  0.63060  0.14480  Biso   1.000  C
  H125     1.0000 0.34440  0.63750  0.17170  Biso   1.000  H
  C139     1.0000 0.33630  0.65970  0.11390  Biso   1.000  C
  H126     1.0000 0.31210  0.68490  0.12010  Biso   1.000  H
  C140     1.0000 0.40010  0.55940  0.16930  Biso   1.000  C
  C141     1.0000 0.44110  0.56530  0.19940  Biso   1.000  C
  C142     1.0000 0.37810  0.51660  0.17340  Biso   1.000  C
  C143     1.0000 0.47820  0.60460  0.20940  Biso   1.000  C
  H127     1.0000 0.49990  0.59850  0.23420  Biso   1.000  H
  H128     1.0000 0.50610  0.61010  0.18760  Biso   1.000  H
  H129     1.0000 0.45310  0.63110  0.21310  Biso   1.000  H
  C144     1.0000 0.33190  0.49070  0.14920  Biso   1.000  C
  H130     1.0000 0.34270  0.45870  0.14830  Biso   1.000  H
  H131     1.0000 0.29330  0.49390  0.16200  Biso   1.000  H
  H132     1.0000 0.33020  0.50270  0.12200  Biso   1.000  H
  O25      1.0000 0.71080  0.29030  0.04940  Biso   1.000  O
  O26      1.0000 0.64280  0.32120  0.00860  Biso   1.000  O
  N25      1.0000 0.55730  0.47170  0.22320  Biso   1.000  N
  N26      1.0000 0.59640  0.50010  0.20540  Biso   1.000  N
  H133     1.0000 0.60390  0.52730  0.21450  Biso   1.000  H
  C145     1.0000 0.66730  0.31690  0.04130  Biso   1.000  C
  C146     1.0000 0.64740  0.34720  0.07610  Biso   1.000  C
  C147     1.0000 0.61350  0.38450  0.06750  Biso   1.000  C
  H134     1.0000 0.60010  0.38930  0.04090  Biso   1.000  H
  C148     1.0000 0.59870  0.41490  0.09690  Biso   1.000  C
  H135     1.0000 0.57760  0.44140  0.08990  Biso   1.000  H
  C149     1.0000 0.61420  0.40760  0.13630  Biso   1.000  C
  C150     1.0000 0.64570  0.36940  0.14480  Biso   1.000  C
  H136     1.0000 0.65560  0.36250  0.17170  Biso   1.000  H
  C151     1.0000 0.66370  0.34030  0.11390  Biso   1.000  C
  H137     1.0000 0.68790  0.31510  0.12010  Biso   1.000  H
  C152     1.0000 0.59990  0.44060  0.16930  Biso   1.000  C
  C153     1.0000 0.55890  0.43470  0.19940  Biso   1.000  C
  C154     1.0000 0.62190  0.48340  0.17340  Biso   1.000  C
  C155     1.0000 0.52180  0.39540  0.20940  Biso   1.000  C
  H138     1.0000 0.50010  0.40150  0.23420  Biso   1.000  H
  H139     1.0000 0.49390  0.38990  0.18760  Biso   1.000  H
  H140     1.0000 0.54690  0.36890  0.21310  Biso   1.000  H
  C156     1.0000 0.66810  0.50930  0.14920  Biso   1.000  C
  H141     1.0000 0.65730  0.54130  0.14830  Biso   1.000  H
  H142     1.0000 0.70670  0.50610  0.16200  Biso   1.000  H
  H143     1.0000 0.66980  0.49730  0.12200  Biso   1.000  H
  O27      1.0000 0.71080  0.79030  0.54940  Biso   1.000  O
  O28      1.0000 0.64280  0.82120  0.50860  Biso   1.000  O
  N27      1.0000 0.55730  0.97170  0.72320  Biso   1.000  N
  N28      1.0000 0.59640  0.00010  0.70540  Biso   1.000  N
  H144     1.0000 0.60390  0.02730  0.71450  Biso   1.000  H
  C157     1.0000 0.66730  0.81690  0.54130  Biso   1.000  C
  C158     1.0000 0.64740  0.84720  0.57610  Biso   1.000  C
  C159     1.0000 0.61350  0.88450  0.56750  Biso   1.000  C
  H145     1.0000 0.60010  0.88930  0.54090  Biso   1.000  H
  C160     1.0000 0.59870  0.91490  0.59690  Biso   1.000  C
  H146     1.0000 0.57760  0.94140  0.58990  Biso   1.000  H
  C161     1.0000 0.61420  0.90760  0.63630  Biso   1.000  C
  C162     1.0000 0.64570  0.86940  0.64480  Biso   1.000  C
  H147     1.0000 0.65560  0.86250  0.67170  Biso   1.000  H
  C163     1.0000 0.66370  0.84030  0.61390  Biso   1.000  C
  H148     1.0000 0.68790  0.81510  0.62010  Biso   1.000  H
  C164     1.0000 0.59990  0.94060  0.66930  Biso   1.000  C
  C165     1.0000 0.55890  0.93470  0.69940  Biso   1.000  C
  C166     1.0000 0.62190  0.98340  0.67340  Biso   1.000  C
  C167     1.0000 0.52180  0.89540  0.70940  Biso   1.000  C
  H149     1.0000 0.50010  0.90150  0.73420  Biso   1.000  H
  H150     1.0000 0.49390  0.88990  0.68760  Biso   1.000  H
  H151     1.0000 0.54690  0.86890  0.71310  Biso   1.000  H
  C168     1.0000 0.66810  0.00930  0.64920  Biso   1.000  C
  H152     1.0000 0.65730  0.04130  0.64830  Biso   1.000  H
  H153     1.0000 0.70670  0.00610  0.66200  Biso   1.000  H
  H154     1.0000 0.66980  0.99730  0.62200  Biso   1.000  H
  O29      1.0000 0.21080  0.29030  0.54940  Biso   1.000  O
  O30      1.0000 0.14280  0.32120  0.50860  Biso   1.000  O
  N29      1.0000 0.05730  0.47170  0.72320  Biso   1.000  N
  N30      1.0000 0.09640  0.50010  0.70540  Biso   1.000  N
  H155     1.0000 0.10390  0.52730  0.71450  Biso   1.000  H
  C169     1.0000 0.16730  0.31690  0.54130  Biso   1.000  C
  C170     1.0000 0.14740  0.34720  0.57610  Biso   1.000  C
  C171     1.0000 0.11350  0.38450  0.56750  Biso   1.000  C
  H156     1.0000 0.10010  0.38930  0.54090  Biso   1.000  H
  C172     1.0000 0.09870  0.41490  0.59690  Biso   1.000  C
  H157     1.0000 0.07760  0.44140  0.58990  Biso   1.000  H
  C173     1.0000 0.11420  0.40760  0.63630  Biso   1.000  C
  C174     1.0000 0.14570  0.36940  0.64480  Biso   1.000  C
  H158     1.0000 0.15560  0.36250  0.67170  Biso   1.000  H
  C175     1.0000 0.16370  0.34030  0.61390  Biso   1.000  C
  H159     1.0000 0.18790  0.31510  0.62010  Biso   1.000  H
  C176     1.0000 0.09990  0.44060  0.66930  Biso   1.000  C
  C177     1.0000 0.05890  0.43470  0.69940  Biso   1.000  C
  C178     1.0000 0.12190  0.48340  0.67340  Biso   1.000  C
  C179     1.0000 0.02180  0.39540  0.70940  Biso   1.000  C
  H160     1.0000 0.00010  0.40150  0.73420  Biso   1.000  H
  H161     1.0000 0.99390  0.38990  0.68760  Biso   1.000  H
  H162     1.0000 0.04690  0.36890  0.71310  Biso   1.000  H
  C180     1.0000 0.16810  0.50930  0.64920  Biso   1.000  C
  H163     1.0000 0.15730  0.54130  0.64830  Biso   1.000  H
  H164     1.0000 0.20670  0.50610  0.66200  Biso   1.000  H
  H165     1.0000 0.16980  0.49730  0.62200  Biso   1.000  H
  O31      1.0000 0.21080  0.79030  0.04940  Biso   1.000  O
  O32      1.0000 0.14280  0.82120  0.00860  Biso   1.000  O
  N31      1.0000 0.05730  0.97170  0.22320  Biso   1.000  N
  N32      1.0000 0.09640  0.00010  0.20540  Biso   1.000  N
  H166     1.0000 0.10390  0.02730  0.21450  Biso   1.000  H
  C181     1.0000 0.16730  0.81690  0.04130  Biso   1.000  C
  C182     1.0000 0.14740  0.84720  0.07610  Biso   1.000  C
  C183     1.0000 0.11350  0.88450  0.06750  Biso   1.000  C
  H167     1.0000 0.10010  0.88930  0.04090  Biso   1.000  H
  C184     1.0000 0.09870  0.91490  0.09690  Biso   1.000  C
  H168     1.0000 0.07760  0.94140  0.08990  Biso   1.000  H
  C185     1.0000 0.11420  0.90760  0.13630  Biso   1.000  C
  C186     1.0000 0.14570  0.86940  0.14480  Biso   1.000  C
  H169     1.0000 0.15560  0.86250  0.17170  Biso   1.000  H
  C187     1.0000 0.16370  0.84030  0.11390  Biso   1.000  C
  H170     1.0000 0.18790  0.81510  0.12010  Biso   1.000  H
  C188     1.0000 0.09990  0.94060  0.16930  Biso   1.000  C
  C189     1.0000 0.05890  0.93470  0.19940  Biso   1.000  C
  C190     1.0000 0.12190  0.98340  0.17340  Biso   1.000  C
  C191     1.0000 0.02180  0.89540  0.20940  Biso   1.000  C
  H171     1.0000 0.00010  0.90150  0.23420  Biso   1.000  H
  H172     1.0000 0.99390  0.88990  0.18760  Biso   1.000  H
  H173     1.0000 0.04690  0.86890  0.21310  Biso   1.000  H
  C192     1.0000 0.16810  0.00930  0.14920  Biso   1.000  C
  H174     1.0000 0.15730  0.04130  0.14830  Biso   1.000  H
  H175     1.0000 0.20670  0.00610  0.16200  Biso   1.000  H
  H176     1.0000 0.16980  0.99730  0.12200  Biso   1.000  H
  Zn1      1.0000 0.50000  0.00000  0.76288  Biso   1.000  Zn
  Zn2      1.0000 0.50000  0.50000  0.26288  Biso   1.000  Zn
  Zn3      1.0000 0.00000  0.00000  0.26288  Biso   1.000  Zn
  Zn4      1.0000 0.00000  0.50000  0.76288  Biso   1.000  Zn
  Zn5      1.0000 0.75000  0.25000  0.01288  Biso   1.000  Zn
  Zn6      1.0000 0.75000  0.75000  0.51288  Biso   1.000  Zn
  Zn7      1.0000 0.25000  0.25000  0.51288  Biso   1.000  Zn
  Zn8      1.0000 0.25000  0.75000  0.01288  Biso   1.000  Zn
  Zn9      1.0000 0.49759  0.25455  0.71821  Biso   1.000  Zn
  O33      1.0000 0.53740  0.29350  0.75560  Biso   1.000  O
  O34      1.0000 0.61870  0.25300  0.76770  Biso   1.000  O
  O35      1.0000 0.45650  0.29520  0.68140  Biso   1.000  O
  O36      1.0000 0.37140  0.26060  0.66990  Biso   1.000  O
  N33      1.0000 0.65040  0.44710  0.95420  Biso   1.000  N
  H177     1.0000 0.63760  0.45520  0.97800  Biso   1.000  H
  N34      1.0000 0.69940  0.46390  0.93690  Biso   1.000  N
  N35      1.0000 0.36720  0.46300  0.48640  Biso   1.000  N
  H178     1.0000 0.38190  0.47740  0.46560  Biso   1.000  H
  N36      1.0000 0.30940  0.46770  0.49870  Biso   1.000  N
  C193     1.0000 0.58690  0.28700  0.77290  Biso   1.000  C
  C194     1.0000 0.60700  0.32180  0.80280  Biso   1.000  C
  C195     1.0000 0.57080  0.35700  0.81440  Biso   1.000  C
  H179     1.0000 0.53360  0.36050  0.80160  Biso   1.000  H
  C196     1.0000 0.58670  0.38660  0.84340  Biso   1.000  C
  H180     1.0000 0.56050  0.41010  0.85080  Biso   1.000  H
  C197     1.0000 0.64170  0.38280  0.86230  Biso   1.000  C
  C198     1.0000 0.68000  0.34750  0.85080  Biso   1.000  C
  H181     1.0000 0.71710  0.34410  0.86350  Biso   1.000  H
  C199     1.0000 0.66270  0.31740  0.82010  Biso   1.000  C
  H182     1.0000 0.68880  0.29440  0.81140  Biso   1.000  H
  C200     1.0000 0.65480  0.41280  0.89690  Biso   1.000  C
  C201     1.0000 0.70430  0.44240  0.90160  Biso   1.000  C
  C202     1.0000 0.62330  0.41650  0.93070  Biso   1.000  C
  C203     1.0000 0.75430  0.45020  0.87390  Biso   1.000  C
  H183     1.0000 0.78990  0.45710  0.88940  Biso   1.000  H
  H184     1.0000 0.74510  0.47560  0.85620  Biso   1.000  H
  H185     1.0000 0.76110  0.42310  0.85780  Biso   1.000  H
  C204     1.0000 0.56970  0.39260  0.94490  Biso   1.000  C
  H186     1.0000 0.55410  0.37380  0.92320  Biso   1.000  H
  H187     1.0000 0.53990  0.41470  0.95290  Biso   1.000  H
  H188     1.0000 0.57980  0.37360  0.96780  Biso   1.000  H
  C205     1.0000 0.40760  0.29040  0.66410  Biso   1.000  C
  C206     1.0000 0.39680  0.32350  0.63120  Biso   1.000  C
  C207     1.0000 0.43660  0.35840  0.62340  Biso   1.000  C
  H189     1.0000 0.47220  0.36040  0.63830  Biso   1.000  H
  C208     1.0000 0.42430  0.39020  0.59380  Biso   1.000  C
  H190     1.0000 0.45150  0.41380  0.58880  Biso   1.000  H
  C209     1.0000 0.37160  0.38770  0.57110  Biso   1.000  C
  C210     1.0000 0.33230  0.35070  0.57930  Biso   1.000  C
  H191     1.0000 0.29750  0.34720  0.56380  Biso   1.000  H
  C211     1.0000 0.34420  0.32120  0.60860  Biso   1.000  C
  H192     1.0000 0.31660  0.29810  0.61440  Biso   1.000  H
  C212     1.0000 0.35990  0.41970  0.53920  Biso   1.000  C
  C213     1.0000 0.30570  0.44120  0.53070  Biso   1.000  C
  C214     1.0000 0.39850  0.43480  0.50860  Biso   1.000  C
  C215     1.0000 0.24930  0.43710  0.55340  Biso   1.000  C
  H193     1.0000 0.22910  0.46620  0.55360  Biso   1.000  H
  H194     1.0000 0.25780  0.42780  0.58090  Biso   1.000  H
  H195     1.0000 0.22410  0.41450  0.54050  Biso   1.000  H
  C216     1.0000 0.46030  0.42580  0.50090  Biso   1.000  C
  H196     1.0000 0.46940  0.43300  0.47300  Biso   1.000  H
  H197     1.0000 0.46840  0.39380  0.50580  Biso   1.000  H
  H198     1.0000 0.48460  0.44420  0.51870  Biso   1.000  H
  Zn10     1.0000 0.49759  0.75455  0.21821  Biso   1.000  Zn
  O37      1.0000 0.53740  0.79350  0.25560  Biso   1.000  O
  O38      1.0000 0.61870  0.75300  0.26770  Biso   1.000  O
  O39      1.0000 0.45650  0.79520  0.18140  Biso   1.000  O
  O40      1.0000 0.37140  0.76060  0.16990  Biso   1.000  O
  N37      1.0000 0.65040  0.94710  0.45420  Biso   1.000  N
  H199     1.0000 0.63760  0.95520  0.47800  Biso   1.000  H
  N38      1.0000 0.69940  0.96390  0.43690  Biso   1.000  N
  N39      1.0000 0.36720  0.96300  0.98640  Biso   1.000  N
  H200     1.0000 0.38190  0.97740  0.96560  Biso   1.000  H
  N40      1.0000 0.30940  0.96770  0.99870  Biso   1.000  N
  C217     1.0000 0.58690  0.78700  0.27290  Biso   1.000  C
  C218     1.0000 0.60700  0.82180  0.30280  Biso   1.000  C
  C219     1.0000 0.57080  0.85700  0.31440  Biso   1.000  C
  H201     1.0000 0.53360  0.86050  0.30160  Biso   1.000  H
  C220     1.0000 0.58670  0.88660  0.34340  Biso   1.000  C
  H202     1.0000 0.56050  0.91010  0.35080  Biso   1.000  H
  C221     1.0000 0.64170  0.88280  0.36230  Biso   1.000  C
  C222     1.0000 0.68000  0.84750  0.35080  Biso   1.000  C
  H203     1.0000 0.71710  0.84410  0.36350  Biso   1.000  H
  C223     1.0000 0.66270  0.81740  0.32010  Biso   1.000  C
  H204     1.0000 0.68880  0.79440  0.31140  Biso   1.000  H
  C224     1.0000 0.65480  0.91280  0.39690  Biso   1.000  C
  C225     1.0000 0.70430  0.94240  0.40160  Biso   1.000  C
  C226     1.0000 0.62330  0.91650  0.43070  Biso   1.000  C
  C227     1.0000 0.75430  0.95020  0.37390  Biso   1.000  C
  H205     1.0000 0.78990  0.95710  0.38940  Biso   1.000  H
  H206     1.0000 0.74510  0.97560  0.35620  Biso   1.000  H
  H207     1.0000 0.76110  0.92310  0.35780  Biso   1.000  H
  C228     1.0000 0.56970  0.89260  0.44490  Biso   1.000  C
  H208     1.0000 0.55410  0.87380  0.42320  Biso   1.000  H
  H209     1.0000 0.53990  0.91470  0.45290  Biso   1.000  H
  H210     1.0000 0.57980  0.87360  0.46780  Biso   1.000  H
  C229     1.0000 0.40760  0.79040  0.16410  Biso   1.000  C
  C230     1.0000 0.39680  0.82350  0.13120  Biso   1.000  C
  C231     1.0000 0.43660  0.85840  0.12340  Biso   1.000  C
  H211     1.0000 0.47220  0.86040  0.13830  Biso   1.000  H
  C232     1.0000 0.42430  0.89020  0.09380  Biso   1.000  C
  H212     1.0000 0.45150  0.91380  0.08880  Biso   1.000  H
  C233     1.0000 0.37160  0.88770  0.07110  Biso   1.000  C
  C234     1.0000 0.33230  0.85070  0.07930  Biso   1.000  C
  H213     1.0000 0.29750  0.84720  0.06380  Biso   1.000  H
  C235     1.0000 0.34420  0.82120  0.10860  Biso   1.000  C
  H214     1.0000 0.31660  0.79810  0.11440  Biso   1.000  H
  C236     1.0000 0.35990  0.91970  0.03920  Biso   1.000  C
  C237     1.0000 0.30570  0.94120  0.03070  Biso   1.000  C
  C238     1.0000 0.39850  0.93480  0.00860  Biso   1.000  C
  C239     1.0000 0.24930  0.93710  0.05340  Biso   1.000  C
  H215     1.0000 0.22910  0.96620  0.05360  Biso   1.000  H
  H216     1.0000 0.25780  0.92780  0.08090  Biso   1.000  H
  H217     1.0000 0.22410  0.91450  0.04050  Biso   1.000  H
  C240     1.0000 0.46030  0.92580  0.00090  Biso   1.000  C
  H218     1.0000 0.46940  0.93300  0.97300  Biso   1.000  H
  H219     1.0000 0.46840  0.89380  0.00580  Biso   1.000  H
  H220     1.0000 0.48460  0.94420  0.01870  Biso   1.000  H
  Zn11     1.0000 0.99759  0.25455  0.21821  Biso   1.000  Zn
  O41      1.0000 0.03740  0.29350  0.25560  Biso   1.000  O
  O42      1.0000 0.11870  0.25300  0.26770  Biso   1.000  O
  O43      1.0000 0.95650  0.29520  0.18140  Biso   1.000  O
  O44      1.0000 0.87140  0.26060  0.16990  Biso   1.000  O
  N41      1.0000 0.15040  0.44710  0.45420  Biso   1.000  N
  H221     1.0000 0.13760  0.45520  0.47800  Biso   1.000  H
  N42      1.0000 0.19940  0.46390  0.43690  Biso   1.000  N
  N43      1.0000 0.86720  0.46300  0.98640  Biso   1.000  N
  H222     1.0000 0.88190  0.47740  0.96560  Biso   1.000  H
  N44      1.0000 0.80940  0.46770  0.99870  Biso   1.000  N
  C241     1.0000 0.08690  0.28700  0.27290  Biso   1.000  C
  C242     1.0000 0.10700  0.32180  0.30280  Biso   1.000  C
  C243     1.0000 0.07080  0.35700  0.31440  Biso   1.000  C
  H223     1.0000 0.03360  0.36050  0.30160  Biso   1.000  H
  C244     1.0000 0.08670  0.38660  0.34340  Biso   1.000  C
  H224     1.0000 0.06050  0.41010  0.35080  Biso   1.000  H
  C245     1.0000 0.14170  0.38280  0.36230  Biso   1.000  C
  C246     1.0000 0.18000  0.34750  0.35080  Biso   1.000  C
  H225     1.0000 0.21710  0.34410  0.36350  Biso   1.000  H
  C247     1.0000 0.16270  0.31740  0.32010  Biso   1.000  C
  H226     1.0000 0.18880  0.29440  0.31140  Biso   1.000  H
  C248     1.0000 0.15480  0.41280  0.39690  Biso   1.000  C
  C249     1.0000 0.20430  0.44240  0.40160  Biso   1.000  C
  C250     1.0000 0.12330  0.41650  0.43070  Biso   1.000  C
  C251     1.0000 0.25430  0.45020  0.37390  Biso   1.000  C
  H227     1.0000 0.28990  0.45710  0.38940  Biso   1.000  H
  H228     1.0000 0.24510  0.47560  0.35620  Biso   1.000  H
  H229     1.0000 0.26110  0.42310  0.35780  Biso   1.000  H
  C252     1.0000 0.06970  0.39260  0.44490  Biso   1.000  C
  H230     1.0000 0.05410  0.37380  0.42320  Biso   1.000  H
  H231     1.0000 0.03990  0.41470  0.45290  Biso   1.000  H
  H232     1.0000 0.07980  0.37360  0.46780  Biso   1.000  H
  C253     1.0000 0.90760  0.29040  0.16410  Biso   1.000  C
  C254     1.0000 0.89680  0.32350  0.13120  Biso   1.000  C
  C255     1.0000 0.93660  0.35840  0.12340  Biso   1.000  C
  H233     1.0000 0.97220  0.36040  0.13830  Biso   1.000  H
  C256     1.0000 0.92430  0.39020  0.09380  Biso   1.000  C
  H234     1.0000 0.95150  0.41380  0.08880  Biso   1.000  H
  C257     1.0000 0.87160  0.38770  0.07110  Biso   1.000  C
  C258     1.0000 0.83230  0.35070  0.07930  Biso   1.000  C
  H235     1.0000 0.79750  0.34720  0.06380  Biso   1.000  H
  C259     1.0000 0.84420  0.32120  0.10860  Biso   1.000  C
  H236     1.0000 0.81660  0.29810  0.11440  Biso   1.000  H
  C260     1.0000 0.85990  0.41970  0.03920  Biso   1.000  C
  C261     1.0000 0.80570  0.44120  0.03070  Biso   1.000  C
  C262     1.0000 0.89850  0.43480  0.00860  Biso   1.000  C
  C263     1.0000 0.74930  0.43710  0.05340  Biso   1.000  C
  H237     1.0000 0.72910  0.46620  0.05360  Biso   1.000  H
  H238     1.0000 0.75780  0.42780  0.08090  Biso   1.000  H
  H239     1.0000 0.72410  0.41450  0.04050  Biso   1.000  H
  C264     1.0000 0.96030  0.42580  0.00090  Biso   1.000  C
  H240     1.0000 0.96940  0.43300  0.97300  Biso   1.000  H
  H241     1.0000 0.96840  0.39380  0.00580  Biso   1.000  H
  H242     1.0000 0.98460  0.44420  0.01870  Biso   1.000  H
  Zn12     1.0000 0.99759  0.75455  0.71821  Biso   1.000  Zn
  O45      1.0000 0.03740  0.79350  0.75560  Biso   1.000  O
  O46      1.0000 0.11870  0.75300  0.76770  Biso   1.000  O
  O47      1.0000 0.95650  0.79520  0.68140  Biso   1.000  O
  O48      1.0000 0.87140  0.76060  0.66990  Biso   1.000  O
  N45      1.0000 0.15040  0.94710  0.95420  Biso   1.000  N
  H243     1.0000 0.13760  0.95520  0.97800  Biso   1.000  H
  N46      1.0000 0.19940  0.96390  0.93690  Biso   1.000  N
  N47      1.0000 0.86720  0.96300  0.48640  Biso   1.000  N
  H244     1.0000 0.88190  0.97740  0.46560  Biso   1.000  H
  N48      1.0000 0.80940  0.96770  0.49870  Biso   1.000  N
  C265     1.0000 0.08690  0.78700  0.77290  Biso   1.000  C
  C266     1.0000 0.10700  0.82180  0.80280  Biso   1.000  C
  C267     1.0000 0.07080  0.85700  0.81440  Biso   1.000  C
  H245     1.0000 0.03360  0.86050  0.80160  Biso   1.000  H
  C268     1.0000 0.08670  0.88660  0.84340  Biso   1.000  C
  H246     1.0000 0.06050  0.91010  0.85080  Biso   1.000  H
  C269     1.0000 0.14170  0.88280  0.86230  Biso   1.000  C
  C270     1.0000 0.18000  0.84750  0.85080  Biso   1.000  C
  H247     1.0000 0.21710  0.84410  0.86350  Biso   1.000  H
  C271     1.0000 0.16270  0.81740  0.82010  Biso   1.000  C
  H248     1.0000 0.18880  0.79440  0.81140  Biso   1.000  H
  C272     1.0000 0.15480  0.91280  0.89690  Biso   1.000  C
  C273     1.0000 0.20430  0.94240  0.90160  Biso   1.000  C
  C274     1.0000 0.12330  0.91650  0.93070  Biso   1.000  C
  C275     1.0000 0.25430  0.95020  0.87390  Biso   1.000  C
  H249     1.0000 0.28990  0.95710  0.88940  Biso   1.000  H
  H250     1.0000 0.24510  0.97560  0.85620  Biso   1.000  H
  H251     1.0000 0.26110  0.92310  0.85780  Biso   1.000  H
  C276     1.0000 0.06970  0.89260  0.94490  Biso   1.000  C
  H252     1.0000 0.05410  0.87380  0.92320  Biso   1.000  H
  H253     1.0000 0.03990  0.91470  0.95290  Biso   1.000  H
  H254     1.0000 0.07980  0.87360  0.96780  Biso   1.000  H
  C277     1.0000 0.90760  0.79040  0.66410  Biso   1.000  C
  C278     1.0000 0.89680  0.82350  0.63120  Biso   1.000  C
  C279     1.0000 0.93660  0.85840  0.62340  Biso   1.000  C
  H255     1.0000 0.97220  0.86040  0.63830  Biso   1.000  H
  C280     1.0000 0.92430  0.89020  0.59380  Biso   1.000  C
  H256     1.0000 0.95150  0.91380  0.58880  Biso   1.000  H
  C281     1.0000 0.87160  0.88770  0.57110  Biso   1.000  C
  C282     1.0000 0.83230  0.85070  0.57930  Biso   1.000  C
  H257     1.0000 0.79750  0.84720  0.56380  Biso   1.000  H
  C283     1.0000 0.84420  0.82120  0.60860  Biso   1.000  C
  H258     1.0000 0.81660  0.79810  0.61440  Biso   1.000  H
  C284     1.0000 0.85990  0.91970  0.53920  Biso   1.000  C
  C285     1.0000 0.80570  0.94120  0.53070  Biso   1.000  C
  C286     1.0000 0.89850  0.93480  0.50860  Biso   1.000  C
  C287     1.0000 0.74930  0.93710  0.55340  Biso   1.000  C
  H259     1.0000 0.72910  0.96620  0.55360  Biso   1.000  H
  H260     1.0000 0.75780  0.92780  0.58090  Biso   1.000  H
  H261     1.0000 0.72410  0.91450  0.54050  Biso   1.000  H
  C288     1.0000 0.96030  0.92580  0.50090  Biso   1.000  C
  H262     1.0000 0.96940  0.93300  0.47300  Biso   1.000  H
  H263     1.0000 0.96840  0.89380  0.50580  Biso   1.000  H
  H264     1.0000 0.98460  0.94420  0.51870  Biso   1.000  H
  Zn13     1.0000 0.75241  0.50455  0.96821  Biso   1.000  Zn
  O49      1.0000 0.71260  0.54350  0.00560  Biso   1.000  O
  O50      1.0000 0.63130  0.50300  0.01770  Biso   1.000  O
  O51      1.0000 0.79350  0.54520  0.93140  Biso   1.000  O
  O52      1.0000 0.87860  0.51060  0.91990  Biso   1.000  O
  N49      1.0000 0.59960  0.69710  0.20420  Biso   1.000  N
  H265     1.0000 0.61240  0.70520  0.22800  Biso   1.000  H
  N50      1.0000 0.55060  0.71390  0.18690  Biso   1.000  N
  N51      1.0000 0.88280  0.71300  0.73640  Biso   1.000  N
  H266     1.0000 0.86810  0.72740  0.71560  Biso   1.000  H
  N52      1.0000 0.94060  0.71770  0.74870  Biso   1.000  N
  C289     1.0000 0.66310  0.53700  0.02290  Biso   1.000  C
  C290     1.0000 0.64300  0.57180  0.05280  Biso   1.000  C
  C291     1.0000 0.67920  0.60700  0.06440  Biso   1.000  C
  H267     1.0000 0.71640  0.61050  0.05160  Biso   1.000  H
  C292     1.0000 0.66330  0.63660  0.09340  Biso   1.000  C
  H268     1.0000 0.68950  0.66010  0.10080  Biso   1.000  H
  C293     1.0000 0.60830  0.63280  0.11230  Biso   1.000  C
  C294     1.0000 0.57000  0.59750  0.10080  Biso   1.000  C
  H269     1.0000 0.53290  0.59410  0.11350  Biso   1.000  H
  C295     1.0000 0.58730  0.56740  0.07010  Biso   1.000  C
  H270     1.0000 0.56120  0.54440  0.06140  Biso   1.000  H
  C296     1.0000 0.59520  0.66280  0.14690  Biso   1.000  C
  C297     1.0000 0.54570  0.69240  0.15160  Biso   1.000  C
  C298     1.0000 0.62670  0.66650  0.18070  Biso   1.000  C
  C299     1.0000 0.49570  0.70020  0.12390  Biso   1.000  C
  H271     1.0000 0.46010  0.70710  0.13940  Biso   1.000  H
  H272     1.0000 0.50490  0.72560  0.10620  Biso   1.000  H
  H273     1.0000 0.48890  0.67310  0.10780  Biso   1.000  H
  C300     1.0000 0.68030  0.64260  0.19490  Biso   1.000  C
  H274     1.0000 0.69590  0.62380  0.17320  Biso   1.000  H
  H275     1.0000 0.71010  0.66470  0.20290  Biso   1.000  H
  H276     1.0000 0.67020  0.62360  0.21780  Biso   1.000  H
  C301     1.0000 0.84240  0.54040  0.91410  Biso   1.000  C
  C302     1.0000 0.85320  0.57350  0.88120  Biso   1.000  C
  C303     1.0000 0.81340  0.60840  0.87340  Biso   1.000  C
  H277     1.0000 0.77780  0.61040  0.88830  Biso   1.000  H
  C304     1.0000 0.82570  0.64020  0.84380  Biso   1.000  C
  H278     1.0000 0.79850  0.66380  0.83880  Biso   1.000  H
  C305     1.0000 0.87840  0.63770  0.82110  Biso   1.000  C
  C306     1.0000 0.91770  0.60070  0.82930  Biso   1.000  C
  H279     1.0000 0.95250  0.59720  0.81380  Biso   1.000  H
  C307     1.0000 0.90580  0.57120  0.85860  Biso   1.000  C
  H280     1.0000 0.93340  0.54810  0.86440  Biso   1.000  H
  C308     1.0000 0.89010  0.66970  0.78920  Biso   1.000  C
  C309     1.0000 0.94430  0.69120  0.78070  Biso   1.000  C
  C310     1.0000 0.85150  0.68480  0.75860  Biso   1.000  C
  C311     1.0000 0.00070  0.68710  0.80340  Biso   1.000  C
  H281     1.0000 0.02090  0.71620  0.80360  Biso   1.000  H
  H282     1.0000 0.99220  0.67780  0.83090  Biso   1.000  H
  H283     1.0000 0.02590  0.66450  0.79050  Biso   1.000  H
  C312     1.0000 0.78970  0.67580  0.75090  Biso   1.000  C
  H284     1.0000 0.78060  0.68300  0.72300  Biso   1.000  H
  H285     1.0000 0.78160  0.64380  0.75580  Biso   1.000  H
  H286     1.0000 0.76540  0.69420  0.76870  Biso   1.000  H
  Zn14     1.0000 0.75241  0.00455  0.46821  Biso   1.000  Zn
  O53      1.0000 0.71260  0.04350  0.50560  Biso   1.000  O
  O54      1.0000 0.63130  0.00300  0.51770  Biso   1.000  O
  O55      1.0000 0.79350  0.04520  0.43140  Biso   1.000  O
  O56      1.0000 0.87860  0.01060  0.41990  Biso   1.000  O
  N53      1.0000 0.59960  0.19710  0.70420  Biso   1.000  N
  H287     1.0000 0.61240  0.20520  0.72800  Biso   1.000  H
  N54      1.0000 0.55060  0.21390  0.68690  Biso   1.000  N
  N55      1.0000 0.88280  0.21300  0.23640  Biso   1.000  N
  H288     1.0000 0.86810  0.22740  0.21560  Biso   1.000  H
  N56      1.0000 0.94060  0.21770  0.24870  Biso   1.000  N
  C313     1.0000 0.66310  0.03700  0.52290  Biso   1.000  C
  C314     1.0000 0.64300  0.07180  0.55280  Biso   1.000  C
  C315     1.0000 0.67920  0.10700  0.56440  Biso   1.000  C
  H289     1.0000 0.71640  0.11050  0.55160  Biso   1.000  H
  C316     1.0000 0.66330  0.13660  0.59340  Biso   1.000  C
  H290     1.0000 0.68950  0.16010  0.60080  Biso   1.000  H
  C317     1.0000 0.60830  0.13280  0.61230  Biso   1.000  C
  C318     1.0000 0.57000  0.09750  0.60080  Biso   1.000  C
  H291     1.0000 0.53290  0.09410  0.61350  Biso   1.000  H
  C319     1.0000 0.58730  0.06740  0.57010  Biso   1.000  C
  H292     1.0000 0.56120  0.04440  0.56140  Biso   1.000  H
  C320     1.0000 0.59520  0.16280  0.64690  Biso   1.000  C
  C321     1.0000 0.54570  0.19240  0.65160  Biso   1.000  C
  C322     1.0000 0.62670  0.16650  0.68070  Biso   1.000  C
  C323     1.0000 0.49570  0.20020  0.62390  Biso   1.000  C
  H293     1.0000 0.46010  0.20710  0.63940  Biso   1.000  H
  H294     1.0000 0.50490  0.22560  0.60620  Biso   1.000  H
  H295     1.0000 0.48890  0.17310  0.60780  Biso   1.000  H
  C324     1.0000 0.68030  0.14260  0.69490  Biso   1.000  C
  H296     1.0000 0.69590  0.12380  0.67320  Biso   1.000  H
  H297     1.0000 0.71010  0.16470  0.70290  Biso   1.000  H
  H298     1.0000 0.67020  0.12360  0.71780  Biso   1.000  H
  C325     1.0000 0.84240  0.04040  0.41410  Biso   1.000  C
  C326     1.0000 0.85320  0.07350  0.38120  Biso   1.000  C
  C327     1.0000 0.81340  0.10840  0.37340  Biso   1.000  C
  H299     1.0000 0.77780  0.11040  0.38830  Biso   1.000  H
  C328     1.0000 0.82570  0.14020  0.34380  Biso   1.000  C
  H300     1.0000 0.79850  0.16380  0.33880  Biso   1.000  H
  C329     1.0000 0.87840  0.13770  0.32110  Biso   1.000  C
  C330     1.0000 0.91770  0.10070  0.32930  Biso   1.000  C
  H301     1.0000 0.95250  0.09720  0.31380  Biso   1.000  H
  C331     1.0000 0.90580  0.07120  0.35860  Biso   1.000  C
  H302     1.0000 0.93340  0.04810  0.36440  Biso   1.000  H
  C332     1.0000 0.89010  0.16970  0.28920  Biso   1.000  C
  C333     1.0000 0.94430  0.19120  0.28070  Biso   1.000  C
  C334     1.0000 0.85150  0.18480  0.25860  Biso   1.000  C
  C335     1.0000 0.00070  0.18710  0.30340  Biso   1.000  C
  H303     1.0000 0.02090  0.21620  0.30360  Biso   1.000  H
  H304     1.0000 0.99220  0.17780  0.33090  Biso   1.000  H
  H305     1.0000 0.02590  0.16450  0.29050  Biso   1.000  H
  C336     1.0000 0.78970  0.17580  0.25090  Biso   1.000  C
  H306     1.0000 0.78060  0.18300  0.22300  Biso   1.000  H
  H307     1.0000 0.78160  0.14380  0.25580  Biso   1.000  H
  H308     1.0000 0.76540  0.19420  0.26870  Biso   1.000  H
  Zn15     1.0000 0.25241  0.50455  0.46821  Biso   1.000  Zn
  O57      1.0000 0.21260  0.54350  0.50560  Biso   1.000  O
  O58      1.0000 0.13130  0.50300  0.51770  Biso   1.000  O
  O59      1.0000 0.29350  0.54520  0.43140  Biso   1.000  O
  O60      1.0000 0.37860  0.51060  0.41990  Biso   1.000  O
  N57      1.0000 0.09960  0.69710  0.70420  Biso   1.000  N
  H309     1.0000 0.11240  0.70520  0.72800  Biso   1.000  H
  N58      1.0000 0.05060  0.71390  0.68690  Biso   1.000  N
  N59      1.0000 0.38280  0.71300  0.23640  Biso   1.000  N
  H310     1.0000 0.36810  0.72740  0.21560  Biso   1.000  H
  N60      1.0000 0.44060  0.71770  0.24870  Biso   1.000  N
  C337     1.0000 0.16310  0.53700  0.52290  Biso   1.000  C
  C338     1.0000 0.14300  0.57180  0.55280  Biso   1.000  C
  C339     1.0000 0.17920  0.60700  0.56440  Biso   1.000  C
  H311     1.0000 0.21640  0.61050  0.55160  Biso   1.000  H
  C340     1.0000 0.16330  0.63660  0.59340  Biso   1.000  C
  H312     1.0000 0.18950  0.66010  0.60080  Biso   1.000  H
  C341     1.0000 0.10830  0.63280  0.61230  Biso   1.000  C
  C342     1.0000 0.07000  0.59750  0.60080  Biso   1.000  C
  H313     1.0000 0.03290  0.59410  0.61350  Biso   1.000  H
  C343     1.0000 0.08730  0.56740  0.57010  Biso   1.000  C
  H314     1.0000 0.06120  0.54440  0.56140  Biso   1.000  H
  C344     1.0000 0.09520  0.66280  0.64690  Biso   1.000  C
  C345     1.0000 0.04570  0.69240  0.65160  Biso   1.000  C
  C346     1.0000 0.12670  0.66650  0.68070  Biso   1.000  C
  C347     1.0000 0.99570  0.70020  0.62390  Biso   1.000  C
  H315     1.0000 0.96010  0.70710  0.63940  Biso   1.000  H
  H316     1.0000 0.00490  0.72560  0.60620  Biso   1.000  H
  H317     1.0000 0.98890  0.67310  0.60780  Biso   1.000  H
  C348     1.0000 0.18030  0.64260  0.69490  Biso   1.000  C
  H318     1.0000 0.19590  0.62380  0.67320  Biso   1.000  H
  H319     1.0000 0.21010  0.66470  0.70290  Biso   1.000  H
  H320     1.0000 0.17020  0.62360  0.71780  Biso   1.000  H
  C349     1.0000 0.34240  0.54040  0.41410  Biso   1.000  C
  C350     1.0000 0.35320  0.57350  0.38120  Biso   1.000  C
  C351     1.0000 0.31340  0.60840  0.37340  Biso   1.000  C
  H321     1.0000 0.27780  0.61040  0.38830  Biso   1.000  H
  C352     1.0000 0.32570  0.64020  0.34380  Biso   1.000  C
  H322     1.0000 0.29850  0.66380  0.33880  Biso   1.000  H
  C353     1.0000 0.37840  0.63770  0.32110  Biso   1.000  C
  C354     1.0000 0.41770  0.60070  0.32930  Biso   1.000  C
  H323     1.0000 0.45250  0.59720  0.31380  Biso   1.000  H
  C355     1.0000 0.40580  0.57120  0.35860  Biso   1.000  C
  H324     1.0000 0.43340  0.54810  0.36440  Biso   1.000  H
  C356     1.0000 0.39010  0.66970  0.28920  Biso   1.000  C
  C357     1.0000 0.44430  0.69120  0.28070  Biso   1.000  C
  C358     1.0000 0.35150  0.68480  0.25860  Biso   1.000  C
  C359     1.0000 0.50070  0.68710  0.30340  Biso   1.000  C
  H325     1.0000 0.52090  0.71620  0.30360  Biso   1.000  H
  H326     1.0000 0.49220  0.67780  0.33090  Biso   1.000  H
  H327     1.0000 0.52590  0.66450  0.29050  Biso   1.000  H
  C360     1.0000 0.28970  0.67580  0.25090  Biso   1.000  C
  H328     1.0000 0.28060  0.68300  0.22300  Biso   1.000  H
  H329     1.0000 0.28160  0.64380  0.25580  Biso   1.000  H
  H330     1.0000 0.26540  0.69420  0.26870  Biso   1.000  H
  Zn16     1.0000 0.25241  0.00455  0.96821  Biso   1.000  Zn
  O61      1.0000 0.21260  0.04350  0.00560  Biso   1.000  O
  O62      1.0000 0.13130  0.00300  0.01770  Biso   1.000  O
  O63      1.0000 0.29350  0.04520  0.93140  Biso   1.000  O
  O64      1.0000 0.37860  0.01060  0.91990  Biso   1.000  O
  N61      1.0000 0.09960  0.19710  0.20420  Biso   1.000  N
  H331     1.0000 0.11240  0.20520  0.22800  Biso   1.000  H
  N62      1.0000 0.05060  0.21390  0.18690  Biso   1.000  N
  N63      1.0000 0.38280  0.21300  0.73640  Biso   1.000  N
  H332     1.0000 0.36810  0.22740  0.71560  Biso   1.000  H
  N64      1.0000 0.44060  0.21770  0.74870  Biso   1.000  N
  C361     1.0000 0.16310  0.03700  0.02290  Biso   1.000  C
  C362     1.0000 0.14300  0.07180  0.05280  Biso   1.000  C
  C363     1.0000 0.17920  0.10700  0.06440  Biso   1.000  C
  H333     1.0000 0.21640  0.11050  0.05160  Biso   1.000  H
  C364     1.0000 0.16330  0.13660  0.09340  Biso   1.000  C
  H334     1.0000 0.18950  0.16010  0.10080  Biso   1.000  H
  C365     1.0000 0.10830  0.13280  0.11230  Biso   1.000  C
  C366     1.0000 0.07000  0.09750  0.10080  Biso   1.000  C
  H335     1.0000 0.03290  0.09410  0.11350  Biso   1.000  H
  C367     1.0000 0.08730  0.06740  0.07010  Biso   1.000  C
  H336     1.0000 0.06120  0.04440  0.06140  Biso   1.000  H
  C368     1.0000 0.09520  0.16280  0.14690  Biso   1.000  C
  C369     1.0000 0.04570  0.19240  0.15160  Biso   1.000  C
  C370     1.0000 0.12670  0.16650  0.18070  Biso   1.000  C
  C371     1.0000 0.99570  0.20020  0.12390  Biso   1.000  C
  H337     1.0000 0.96010  0.20710  0.13940  Biso   1.000  H
  H338     1.0000 0.00490  0.22560  0.10620  Biso   1.000  H
  H339     1.0000 0.98890  0.17310  0.10780  Biso   1.000  H
  C372     1.0000 0.18030  0.14260  0.19490  Biso   1.000  C
  H340     1.0000 0.19590  0.12380  0.17320  Biso   1.000  H
  H341     1.0000 0.21010  0.16470  0.20290  Biso   1.000  H
  H342     1.0000 0.17020  0.12360  0.21780  Biso   1.000  H
  C373     1.0000 0.34240  0.04040  0.91410  Biso   1.000  C
  C374     1.0000 0.35320  0.07350  0.88120  Biso   1.000  C
  C375     1.0000 0.31340  0.10840  0.87340  Biso   1.000  C
  H343     1.0000 0.27780  0.11040  0.88830  Biso   1.000  H
  C376     1.0000 0.32570  0.14020  0.84380  Biso   1.000  C
  H344     1.0000 0.29850  0.16380  0.83880  Biso   1.000  H
  C377     1.0000 0.37840  0.13770  0.82110  Biso   1.000  C
  C378     1.0000 0.41770  0.10070  0.82930  Biso   1.000  C
  H345     1.0000 0.45250  0.09720  0.81380  Biso   1.000  H
  C379     1.0000 0.40580  0.07120  0.85860  Biso   1.000  C
  H346     1.0000 0.43340  0.04810  0.86440  Biso   1.000  H
  C380     1.0000 0.39010  0.16970  0.78920  Biso   1.000  C
  C381     1.0000 0.44430  0.19120  0.78070  Biso   1.000  C
  C382     1.0000 0.35150  0.18480  0.75860  Biso   1.000  C
  C383     1.0000 0.50070  0.18710  0.80340  Biso   1.000  C
  H347     1.0000 0.52090  0.21620  0.80360  Biso   1.000  H
  H348     1.0000 0.49220  0.17780  0.83090  Biso   1.000  H
  H349     1.0000 0.52590  0.16450  0.79050  Biso   1.000  H
  C384     1.0000 0.28970  0.17580  0.75090  Biso   1.000  C
  H350     1.0000 0.28060  0.18300  0.72300  Biso   1.000  H
  H351     1.0000 0.28160  0.14380  0.75580  Biso   1.000  H
  H352     1.0000 0.26540  0.19420  0.76870  Biso   1.000  H
  O65      1.0000 0.78750  0.20530  0.57830  Biso   1.000  O
  O66      1.0000 0.87240  0.23900  0.58850  Biso   1.000  O
  N65      1.0000 0.88570  0.03720  0.77300  Biso   1.000  N
  H353     1.0000 0.87050  0.02180  0.79300  Biso   1.000  H
  N66      1.0000 0.94350  0.03550  0.76240  Biso   1.000  N
  C385     1.0000 0.83740  0.20890  0.59550  Biso   1.000  C
  C386     1.0000 0.85150  0.17450  0.62720  Biso   1.000  C
  C387     1.0000 0.81520  0.13660  0.63490  Biso   1.000  C
  H354     1.0000 0.78040  0.13260  0.61960  Biso   1.000  H
  C388     1.0000 0.82950  0.10540  0.66420  Biso   1.000  C
  H355     1.0000 0.80610  0.07910  0.66790  Biso   1.000  H
  C389     1.0000 0.87940  0.11340  0.68860  Biso   1.000  C
  C390     1.0000 0.91780  0.14760  0.68040  Biso   1.000  C
  H356     1.0000 0.95330  0.15080  0.69520  Biso   1.000  H
  C391     1.0000 0.90340  0.17830  0.64930  Biso   1.000  C
  H357     1.0000 0.92990  0.20210  0.64340  Biso   1.000  H
  C392     1.0000 0.89350  0.08120  0.72080  Biso   1.000  C
  C393     1.0000 0.94850  0.06130  0.73140  Biso   1.000  C
  C394     1.0000 0.85570  0.06390  0.75070  Biso   1.000  C
  C395     1.0000 0.00720  0.06670  0.70960  Biso   1.000  C
  H358     1.0000 0.03770  0.04920  0.72340  Biso   1.000  H
  H359     1.0000 0.01850  0.09860  0.70930  Biso   1.000  H
  H360     1.0000 0.00330  0.05590  0.68200  Biso   1.000  H
  C396     1.0000 0.78980  0.07290  0.75660  Biso   1.000  C
  H361     1.0000 0.78130  0.07590  0.78520  Biso   1.000  H
  H362     1.0000 0.76710  0.04780  0.74550  Biso   1.000  H
  H363     1.0000 0.77890  0.10080  0.74280  Biso   1.000  H
  O67      1.0000 0.78750  0.70530  0.07830  Biso   1.000  O
  O68      1.0000 0.87240  0.73900  0.08850  Biso   1.000  O
  N67      1.0000 0.88570  0.53720  0.27300  Biso   1.000  N
  H364     1.0000 0.87050  0.52180  0.29300  Biso   1.000  H
  N68      1.0000 0.94350  0.53550  0.26240  Biso   1.000  N
  C397     1.0000 0.83740  0.70890  0.09550  Biso   1.000  C
  C398     1.0000 0.85150  0.67450  0.12720  Biso   1.000  C
  C399     1.0000 0.81520  0.63660  0.13490  Biso   1.000  C
  H365     1.0000 0.78040  0.63260  0.11960  Biso   1.000  H
  C400     1.0000 0.82950  0.60540  0.16420  Biso   1.000  C
  H366     1.0000 0.80610  0.57910  0.16790  Biso   1.000  H
  C401     1.0000 0.87940  0.61340  0.18860  Biso   1.000  C
  C402     1.0000 0.91780  0.64760  0.18040  Biso   1.000  C
  H367     1.0000 0.95330  0.65080  0.19520  Biso   1.000  H
  C403     1.0000 0.90340  0.67830  0.14930  Biso   1.000  C
  H368     1.0000 0.92990  0.70210  0.14340  Biso   1.000  H
  C404     1.0000 0.89350  0.58120  0.22080  Biso   1.000  C
  C405     1.0000 0.94850  0.56130  0.23140  Biso   1.000  C
  C406     1.0000 0.85570  0.56390  0.25070  Biso   1.000  C
  C407     1.0000 0.00720  0.56670  0.20960  Biso   1.000  C
  H369     1.0000 0.03770  0.54920  0.22340  Biso   1.000  H
  H370     1.0000 0.01850  0.59860  0.20930  Biso   1.000  H
  H371     1.0000 0.00330  0.55590  0.18200  Biso   1.000  H
  C408     1.0000 0.78980  0.57290  0.25660  Biso   1.000  C
  H372     1.0000 0.78130  0.57590  0.28520  Biso   1.000  H
  H373     1.0000 0.76710  0.54780  0.24550  Biso   1.000  H
  H374     1.0000 0.77890  0.60080  0.24280  Biso   1.000  H
  O69      1.0000 0.28750  0.20530  0.07830  Biso   1.000  O
  O70      1.0000 0.37240  0.23900  0.08850  Biso   1.000  O
  N69      1.0000 0.38570  0.03720  0.27300  Biso   1.000  N
  H375     1.0000 0.37050  0.02180  0.29300  Biso   1.000  H
  N70      1.0000 0.44350  0.03550  0.26240  Biso   1.000  N
  C409     1.0000 0.33740  0.20890  0.09550  Biso   1.000  C
  C410     1.0000 0.35150  0.17450  0.12720  Biso   1.000  C
  C411     1.0000 0.31520  0.13660  0.13490  Biso   1.000  C
  H376     1.0000 0.28040  0.13260  0.11960  Biso   1.000  H
  C412     1.0000 0.32950  0.10540  0.16420  Biso   1.000  C
  H377     1.0000 0.30610  0.07910  0.16790  Biso   1.000  H
  C413     1.0000 0.37940  0.11340  0.18860  Biso   1.000  C
  C414     1.0000 0.41780  0.14760  0.18040  Biso   1.000  C
  H378     1.0000 0.45330  0.15080  0.19520  Biso   1.000  H
  C415     1.0000 0.40340  0.17830  0.14930  Biso   1.000  C
  H379     1.0000 0.42990  0.20210  0.14340  Biso   1.000  H
  C416     1.0000 0.39350  0.08120  0.22080  Biso   1.000  C
  C417     1.0000 0.44850  0.06130  0.23140  Biso   1.000  C
  C418     1.0000 0.35570  0.06390  0.25070  Biso   1.000  C
  C419     1.0000 0.50720  0.06670  0.20960  Biso   1.000  C
  H380     1.0000 0.53770  0.04920  0.22340  Biso   1.000  H
  H381     1.0000 0.51850  0.09860  0.20930  Biso   1.000  H
  H382     1.0000 0.50330  0.05590  0.18200  Biso   1.000  H
  C420     1.0000 0.28980  0.07290  0.25660  Biso   1.000  C
  H383     1.0000 0.28130  0.07590  0.28520  Biso   1.000  H
  H384     1.0000 0.26710  0.04780  0.24550  Biso   1.000  H
  H385     1.0000 0.27890  0.10080  0.24280  Biso   1.000  H
  O71      1.0000 0.28750  0.70530  0.57830  Biso   1.000  O
  O72      1.0000 0.37240  0.73900  0.58850  Biso   1.000  O
  N71      1.0000 0.38570  0.53720  0.77300  Biso   1.000  N
  H386     1.0000 0.37050  0.52180  0.79300  Biso   1.000  H
  N72      1.0000 0.44350  0.53550  0.76240  Biso   1.000  N
  C421     1.0000 0.33740  0.70890  0.59550  Biso   1.000  C
  C422     1.0000 0.35150  0.67450  0.62720  Biso   1.000  C
  C423     1.0000 0.31520  0.63660  0.63490  Biso   1.000  C
  H387     1.0000 0.28040  0.63260  0.61960  Biso   1.000  H
  C424     1.0000 0.32950  0.60540  0.66420  Biso   1.000  C
  H388     1.0000 0.30610  0.57910  0.66790  Biso   1.000  H
  C425     1.0000 0.37940  0.61340  0.68860  Biso   1.000  C
  C426     1.0000 0.41780  0.64760  0.68040  Biso   1.000  C
  H389     1.0000 0.45330  0.65080  0.69520  Biso   1.000  H
  C427     1.0000 0.40340  0.67830  0.64930  Biso   1.000  C
  H390     1.0000 0.42990  0.70210  0.64340  Biso   1.000  H
  C428     1.0000 0.39350  0.58120  0.72080  Biso   1.000  C
  C429     1.0000 0.44850  0.56130  0.73140  Biso   1.000  C
  C430     1.0000 0.35570  0.56390  0.75070  Biso   1.000  C
  C431     1.0000 0.50720  0.56670  0.70960  Biso   1.000  C
  H391     1.0000 0.53770  0.54920  0.72340  Biso   1.000  H
  H392     1.0000 0.51850  0.59860  0.70930  Biso   1.000  H
  H393     1.0000 0.50330  0.55590  0.68200  Biso   1.000  H
  C432     1.0000 0.28980  0.57290  0.75660  Biso   1.000  C
  H394     1.0000 0.28130  0.57590  0.78520  Biso   1.000  H
  H395     1.0000 0.26710  0.54780  0.74550  Biso   1.000  H
  H396     1.0000 0.27890  0.60080  0.74280  Biso   1.000  H
  O73      1.0000 0.21250  0.79470  0.57830  Biso   1.000  O
  O74      1.0000 0.12760  0.76100  0.58850  Biso   1.000  O
  N73      1.0000 0.11430  0.96280  0.77300  Biso   1.000  N
  H397     1.0000 0.12950  0.97820  0.79300  Biso   1.000  H
  N74      1.0000 0.05650  0.96450  0.76240  Biso   1.000  N
  C433     1.0000 0.16260  0.79110  0.59550  Biso   1.000  C
  C434     1.0000 0.14850  0.82550  0.62720  Biso   1.000  C
  C435     1.0000 0.18480  0.86340  0.63490  Biso   1.000  C
  H398     1.0000 0.21960  0.86740  0.61960  Biso   1.000  H
  C436     1.0000 0.17050  0.89460  0.66420  Biso   1.000  C
  H399     1.0000 0.19390  0.92090  0.66790  Biso   1.000  H
  C437     1.0000 0.12060  0.88660  0.68860  Biso   1.000  C
  C438     1.0000 0.08220  0.85240  0.68040  Biso   1.000  C
  H400     1.0000 0.04670  0.84920  0.69520  Biso   1.000  H
  C439     1.0000 0.09660  0.82170  0.64930  Biso   1.000  C
  H401     1.0000 0.07010  0.79790  0.64340  Biso   1.000  H
  C440     1.0000 0.10650  0.91880  0.72080  Biso   1.000  C
  C441     1.0000 0.05150  0.93870  0.73140  Biso   1.000  C
  C442     1.0000 0.14430  0.93610  0.75070  Biso   1.000  C
  C443     1.0000 0.99280  0.93330  0.70960  Biso   1.000  C
  H402     1.0000 0.96230  0.95080  0.72340  Biso   1.000  H
  H403     1.0000 0.98150  0.90140  0.70930  Biso   1.000  H
  H404     1.0000 0.99670  0.94410  0.68200  Biso   1.000  H
  C444     1.0000 0.21020  0.92710  0.75660  Biso   1.000  C
  H405     1.0000 0.21870  0.92410  0.78520  Biso   1.000  H
  H406     1.0000 0.23290  0.95220  0.74550  Biso   1.000  H
  H407     1.0000 0.22110  0.89920  0.74280  Biso   1.000  H
  O75      1.0000 0.21250  0.29470  0.07830  Biso   1.000  O
  O76      1.0000 0.12760  0.26100  0.08850  Biso   1.000  O
  N75      1.0000 0.11430  0.46280  0.27300  Biso   1.000  N
  H408     1.0000 0.12950  0.47820  0.29300  Biso   1.000  H
  N76      1.0000 0.05650  0.46450  0.26240  Biso   1.000  N
  C445     1.0000 0.16260  0.29110  0.09550  Biso   1.000  C
  C446     1.0000 0.14850  0.32550  0.12720  Biso   1.000  C
  C447     1.0000 0.18480  0.36340  0.13490  Biso   1.000  C
  H409     1.0000 0.21960  0.36740  0.11960  Biso   1.000  H
  C448     1.0000 0.17050  0.39460  0.16420  Biso   1.000  C
  H410     1.0000 0.19390  0.42090  0.16790  Biso   1.000  H
  C449     1.0000 0.12060  0.38660  0.18860  Biso   1.000  C
  C450     1.0000 0.08220  0.35240  0.18040  Biso   1.000  C
  H411     1.0000 0.04670  0.34920  0.19520  Biso   1.000  H
  C451     1.0000 0.09660  0.32170  0.14930  Biso   1.000  C
  H412     1.0000 0.07010  0.29790  0.14340  Biso   1.000  H
  C452     1.0000 0.10650  0.41880  0.22080  Biso   1.000  C
  C453     1.0000 0.05150  0.43870  0.23140  Biso   1.000  C
  C454     1.0000 0.14430  0.43610  0.25070  Biso   1.000  C
  C455     1.0000 0.99280  0.43330  0.20960  Biso   1.000  C
  H413     1.0000 0.96230  0.45080  0.22340  Biso   1.000  H
  H414     1.0000 0.98150  0.40140  0.20930  Biso   1.000  H
  H415     1.0000 0.99670  0.44410  0.18200  Biso   1.000  H
  C456     1.0000 0.21020  0.42710  0.25660  Biso   1.000  C
  H416     1.0000 0.21870  0.42410  0.28520  Biso   1.000  H
  H417     1.0000 0.23290  0.45220  0.24550  Biso   1.000  H
  H418     1.0000 0.22110  0.39920  0.24280  Biso   1.000  H
  O77      1.0000 0.71250  0.79470  0.07830  Biso   1.000  O
  O78      1.0000 0.62760  0.76100  0.08850  Biso   1.000  O
  N77      1.0000 0.61430  0.96280  0.27300  Biso   1.000  N
  H419     1.0000 0.62950  0.97820  0.29300  Biso   1.000  H
  N78      1.0000 0.55650  0.96450  0.26240  Biso   1.000  N
  C457     1.0000 0.66260  0.79110  0.09550  Biso   1.000  C
  C458     1.0000 0.64850  0.82550  0.12720  Biso   1.000  C
  C459     1.0000 0.68480  0.86340  0.13490  Biso   1.000  C
  H420     1.0000 0.71960  0.86740  0.11960  Biso   1.000  H
  C460     1.0000 0.67050  0.89460  0.16420  Biso   1.000  C
  H421     1.0000 0.69390  0.92090  0.16790  Biso   1.000  H
  C461     1.0000 0.62060  0.88660  0.18860  Biso   1.000  C
  C462     1.0000 0.58220  0.85240  0.18040  Biso   1.000  C
  H422     1.0000 0.54670  0.84920  0.19520  Biso   1.000  H
  C463     1.0000 0.59660  0.82170  0.14930  Biso   1.000  C
  H423     1.0000 0.57010  0.79790  0.14340  Biso   1.000  H
  C464     1.0000 0.60650  0.91880  0.22080  Biso   1.000  C
  C465     1.0000 0.55150  0.93870  0.23140  Biso   1.000  C
  C466     1.0000 0.64430  0.93610  0.25070  Biso   1.000  C
  C467     1.0000 0.49280  0.93330  0.20960  Biso   1.000  C
  H424     1.0000 0.46230  0.95080  0.22340  Biso   1.000  H
  H425     1.0000 0.48150  0.90140  0.20930  Biso   1.000  H
  H426     1.0000 0.49670  0.94410  0.18200  Biso   1.000  H
  C468     1.0000 0.71020  0.92710  0.25660  Biso   1.000  C
  H427     1.0000 0.71870  0.92410  0.28520  Biso   1.000  H
  H428     1.0000 0.73290  0.95220  0.24550  Biso   1.000  H
  H429     1.0000 0.72110  0.89920  0.24280  Biso   1.000  H
  O79      1.0000 0.71250  0.29470  0.57830  Biso   1.000  O
  O80      1.0000 0.62760  0.26100  0.58850  Biso   1.000  O
  N79      1.0000 0.61430  0.46280  0.77300  Biso   1.000  N
  H430     1.0000 0.62950  0.47820  0.79300  Biso   1.000  H
  N80      1.0000 0.55650  0.46450  0.76240  Biso   1.000  N
  C469     1.0000 0.66260  0.29110  0.59550  Biso   1.000  C
  C470     1.0000 0.64850  0.32550  0.62720  Biso   1.000  C
  C471     1.0000 0.68480  0.36340  0.63490  Biso   1.000  C
  H431     1.0000 0.71960  0.36740  0.61960  Biso   1.000  H
  C472     1.0000 0.67050  0.39460  0.66420  Biso   1.000  C
  H432     1.0000 0.69390  0.42090  0.66790  Biso   1.000  H
  C473     1.0000 0.62060  0.38660  0.68860  Biso   1.000  C
  C474     1.0000 0.58220  0.35240  0.68040  Biso   1.000  C
  H433     1.0000 0.54670  0.34920  0.69520  Biso   1.000  H
  C475     1.0000 0.59660  0.32170  0.64930  Biso   1.000  C
  H434     1.0000 0.57010  0.29790  0.64340  Biso   1.000  H
  C476     1.0000 0.60650  0.41880  0.72080  Biso   1.000  C
  C477     1.0000 0.55150  0.43870  0.73140  Biso   1.000  C
  C478     1.0000 0.64430  0.43610  0.75070  Biso   1.000  C
  C479     1.0000 0.49280  0.43330  0.70960  Biso   1.000  C
  H435     1.0000 0.46230  0.45080  0.72340  Biso   1.000  H
  H436     1.0000 0.48150  0.40140  0.70930  Biso   1.000  H
  H437     1.0000 0.49670  0.44410  0.68200  Biso   1.000  H
  C480     1.0000 0.71020  0.42710  0.75660  Biso   1.000  C
  H438     1.0000 0.71870  0.42410  0.78520  Biso   1.000  H
  H439     1.0000 0.73290  0.45220  0.74550  Biso   1.000  H
  H440     1.0000 0.72110  0.39920  0.74280  Biso   1.000  H
  O81      1.0000 0.03750  0.04470  0.82830  Biso   1.000  O
  O82      1.0000 0.12240  0.01100  0.83850  Biso   1.000  O
  N81      1.0000 0.13570  0.21280  0.02300  Biso   1.000  N
  H441     1.0000 0.12050  0.22820  0.04300  Biso   1.000  H
  N82      1.0000 0.19350  0.21450  0.01240  Biso   1.000  N
  C481     1.0000 0.08740  0.04110  0.84550  Biso   1.000  C
  C482     1.0000 0.10150  0.07550  0.87720  Biso   1.000  C
  C483     1.0000 0.06520  0.11340  0.88490  Biso   1.000  C
  H442     1.0000 0.03040  0.11740  0.86960  Biso   1.000  H
  C484     1.0000 0.07950  0.14460  0.91420  Biso   1.000  C
  H443     1.0000 0.05610  0.17090  0.91790  Biso   1.000  H
  C485     1.0000 0.12940  0.13660  0.93860  Biso   1.000  C
  C486     1.0000 0.16780  0.10240  0.93040  Biso   1.000  C
  H444     1.0000 0.20330  0.09920  0.94520  Biso   1.000  H
  C487     1.0000 0.15340  0.07170  0.89930  Biso   1.000  C
  H445     1.0000 0.17990  0.04790  0.89340  Biso   1.000  H
  C488     1.0000 0.14350  0.16880  0.97080  Biso   1.000  C
  C489     1.0000 0.19850  0.18870  0.98140  Biso   1.000  C
  C490     1.0000 0.10570  0.18610  0.00070  Biso   1.000  C
  C491     1.0000 0.25720  0.18330  0.95960  Biso   1.000  C
  H446     1.0000 0.28770  0.20080  0.97340  Biso   1.000  H
  H447     1.0000 0.26850  0.15140  0.95930  Biso   1.000  H
  H448     1.0000 0.25330  0.19410  0.93200  Biso   1.000  H
  C492     1.0000 0.03980  0.17710  0.00660  Biso   1.000  C
  H449     1.0000 0.03130  0.17410  0.03520  Biso   1.000  H
  H450     1.0000 0.01710  0.20220  0.99550  Biso   1.000  H
  H451     1.0000 0.02890  0.14920  0.99280  Biso   1.000  H
  O83      1.0000 0.03750  0.54470  0.32830  Biso   1.000  O
  O84      1.0000 0.12240  0.51100  0.33850  Biso   1.000  O
  N83      1.0000 0.13570  0.71280  0.52300  Biso   1.000  N
  H452     1.0000 0.12050  0.72820  0.54300  Biso   1.000  H
  N84      1.0000 0.19350  0.71450  0.51240  Biso   1.000  N
  C493     1.0000 0.08740  0.54110  0.34550  Biso   1.000  C
  C494     1.0000 0.10150  0.57550  0.37720  Biso   1.000  C
  C495     1.0000 0.06520  0.61340  0.38490  Biso   1.000  C
  H453     1.0000 0.03040  0.61740  0.36960  Biso   1.000  H
  C496     1.0000 0.07950  0.64460  0.41420  Biso   1.000  C
  H454     1.0000 0.05610  0.67090  0.41790  Biso   1.000  H
  C497     1.0000 0.12940  0.63660  0.43860  Biso   1.000  C
  C498     1.0000 0.16780  0.60240  0.43040  Biso   1.000  C
  H455     1.0000 0.20330  0.59920  0.44520  Biso   1.000  H
  C499     1.0000 0.15340  0.57170  0.39930  Biso   1.000  C
  H456     1.0000 0.17990  0.54790  0.39340  Biso   1.000  H
  C500     1.0000 0.14350  0.66880  0.47080  Biso   1.000  C
  C501     1.0000 0.19850  0.68870  0.48140  Biso   1.000  C
  C502     1.0000 0.10570  0.68610  0.50070  Biso   1.000  C
  C503     1.0000 0.25720  0.68330  0.45960  Biso   1.000  C
  H457     1.0000 0.28770  0.70080  0.47340  Biso   1.000  H
  H458     1.0000 0.26850  0.65140  0.45930  Biso   1.000  H
  H459     1.0000 0.25330  0.69410  0.43200  Biso   1.000  H
  C504     1.0000 0.03980  0.67710  0.50660  Biso   1.000  C
  H460     1.0000 0.03130  0.67410  0.53520  Biso   1.000  H
  H461     1.0000 0.01710  0.70220  0.49550  Biso   1.000  H
  H462     1.0000 0.02890  0.64920  0.49280  Biso   1.000  H
  O85      1.0000 0.53750  0.04470  0.32830  Biso   1.000  O
  O86      1.0000 0.62240  0.01100  0.33850  Biso   1.000  O
  N85      1.0000 0.63570  0.21280  0.52300  Biso   1.000  N
  H463     1.0000 0.62050  0.22820  0.54300  Biso   1.000  H
  N86      1.0000 0.69350  0.21450  0.51240  Biso   1.000  N
  C505     1.0000 0.58740  0.04110  0.34550  Biso   1.000  C
  C506     1.0000 0.60150  0.07550  0.37720  Biso   1.000  C
  C507     1.0000 0.56520  0.11340  0.38490  Biso   1.000  C
  H464     1.0000 0.53040  0.11740  0.36960  Biso   1.000  H
  C508     1.0000 0.57950  0.14460  0.41420  Biso   1.000  C
  H465     1.0000 0.55610  0.17090  0.41790  Biso   1.000  H
  C509     1.0000 0.62940  0.13660  0.43860  Biso   1.000  C
  C510     1.0000 0.66780  0.10240  0.43040  Biso   1.000  C
  H466     1.0000 0.70330  0.09920  0.44520  Biso   1.000  H
  C511     1.0000 0.65340  0.07170  0.39930  Biso   1.000  C
  H467     1.0000 0.67990  0.04790  0.39340  Biso   1.000  H
  C512     1.0000 0.64350  0.16880  0.47080  Biso   1.000  C
  C513     1.0000 0.69850  0.18870  0.48140  Biso   1.000  C
  C514     1.0000 0.60570  0.18610  0.50070  Biso   1.000  C
  C515     1.0000 0.75720  0.18330  0.45960  Biso   1.000  C
  H468     1.0000 0.78770  0.20080  0.47340  Biso   1.000  H
  H469     1.0000 0.76850  0.15140  0.45930  Biso   1.000  H
  H470     1.0000 0.75330  0.19410  0.43200  Biso   1.000  H
  C516     1.0000 0.53980  0.17710  0.50660  Biso   1.000  C
  H471     1.0000 0.53130  0.17410  0.53520  Biso   1.000  H
  H472     1.0000 0.51710  0.20220  0.49550  Biso   1.000  H
  H473     1.0000 0.52890  0.14920  0.49280  Biso   1.000  H
  O87      1.0000 0.53750  0.54470  0.82830  Biso   1.000  O
  O88      1.0000 0.62240  0.51100  0.83850  Biso   1.000  O
  N87      1.0000 0.63570  0.71280  0.02300  Biso   1.000  N
  H474     1.0000 0.62050  0.72820  0.04300  Biso   1.000  H
  N88      1.0000 0.69350  0.71450  0.01240  Biso   1.000  N
  C517     1.0000 0.58740  0.54110  0.84550  Biso   1.000  C
  C518     1.0000 0.60150  0.57550  0.87720  Biso   1.000  C
  C519     1.0000 0.56520  0.61340  0.88490  Biso   1.000  C
  H475     1.0000 0.53040  0.61740  0.86960  Biso   1.000  H
  C520     1.0000 0.57950  0.64460  0.91420  Biso   1.000  C
  H476     1.0000 0.55610  0.67090  0.91790  Biso   1.000  H
  C521     1.0000 0.62940  0.63660  0.93860  Biso   1.000  C
  C522     1.0000 0.66780  0.60240  0.93040  Biso   1.000  C
  H477     1.0000 0.70330  0.59920  0.94520  Biso   1.000  H
  C523     1.0000 0.65340  0.57170  0.89930  Biso   1.000  C
  H478     1.0000 0.67990  0.54790  0.89340  Biso   1.000  H
  C524     1.0000 0.64350  0.66880  0.97080  Biso   1.000  C
  C525     1.0000 0.69850  0.68870  0.98140  Biso   1.000  C
  C526     1.0000 0.60570  0.68610  0.00070  Biso   1.000  C
  C527     1.0000 0.75720  0.68330  0.95960  Biso   1.000  C
  H479     1.0000 0.78770  0.70080  0.97340  Biso   1.000  H
  H480     1.0000 0.76850  0.65140  0.95930  Biso   1.000  H
  H481     1.0000 0.75330  0.69410  0.93200  Biso   1.000  H
  C528     1.0000 0.53980  0.67710  0.00660  Biso   1.000  C
  H482     1.0000 0.53130  0.67410  0.03520  Biso   1.000  H
  H483     1.0000 0.51710  0.70220  0.99550  Biso   1.000  H
  H484     1.0000 0.52890  0.64920  0.99280  Biso   1.000  H
  O89      1.0000 0.46250  0.45530  0.82830  Biso   1.000  O
  O90      1.0000 0.37760  0.48900  0.83850  Biso   1.000  O
  N89      1.0000 0.36430  0.28720  0.02300  Biso   1.000  N
  H485     1.0000 0.37950  0.27180  0.04300  Biso   1.000  H
  N90      1.0000 0.30650  0.28550  0.01240  Biso   1.000  N
  C529     1.0000 0.41260  0.45890  0.84550  Biso   1.000  C
  C530     1.0000 0.39850  0.42450  0.87720  Biso   1.000  C
  C531     1.0000 0.43480  0.38660  0.88490  Biso   1.000  C
  H486     1.0000 0.46960  0.38260  0.86960  Biso   1.000  H
  C532     1.0000 0.42050  0.35540  0.91420  Biso   1.000  C
  H487     1.0000 0.44390  0.32910  0.91790  Biso   1.000  H
  C533     1.0000 0.37060  0.36340  0.93860  Biso   1.000  C
  C534     1.0000 0.33220  0.39760  0.93040  Biso   1.000  C
  H488     1.0000 0.29670  0.40080  0.94520  Biso   1.000  H
  C535     1.0000 0.34660  0.42830  0.89930  Biso   1.000  C
  H489     1.0000 0.32010  0.45210  0.89340  Biso   1.000  H
  C536     1.0000 0.35650  0.33120  0.97080  Biso   1.000  C
  C537     1.0000 0.30150  0.31130  0.98140  Biso   1.000  C
  C538     1.0000 0.39430  0.31390  0.00070  Biso   1.000  C
  C539     1.0000 0.24280  0.31670  0.95960  Biso   1.000  C
  H490     1.0000 0.21230  0.29920  0.97340  Biso   1.000  H
  H491     1.0000 0.23150  0.34860  0.95930  Biso   1.000  H
  H492     1.0000 0.24670  0.30590  0.93200  Biso   1.000  H
  C540     1.0000 0.46020  0.32290  0.00660  Biso   1.000  C
  H493     1.0000 0.46870  0.32590  0.03520  Biso   1.000  H
  H494     1.0000 0.48290  0.29780  0.99550  Biso   1.000  H
  H495     1.0000 0.47110  0.35080  0.99280  Biso   1.000  H
  O91      1.0000 0.46250  0.95530  0.32830  Biso   1.000  O
  O92      1.0000 0.37760  0.98900  0.33850  Biso   1.000  O
  N91      1.0000 0.36430  0.78720  0.52300  Biso   1.000  N
  H496     1.0000 0.37950  0.77180  0.54300  Biso   1.000  H
  N92      1.0000 0.30650  0.78550  0.51240  Biso   1.000  N
  C541     1.0000 0.41260  0.95890  0.34550  Biso   1.000  C
  C542     1.0000 0.39850  0.92450  0.37720  Biso   1.000  C
  C543     1.0000 0.43480  0.88660  0.38490  Biso   1.000  C
  H497     1.0000 0.46960  0.88260  0.36960  Biso   1.000  H
  C544     1.0000 0.42050  0.85540  0.41420  Biso   1.000  C
  H498     1.0000 0.44390  0.82910  0.41790  Biso   1.000  H
  C545     1.0000 0.37060  0.86340  0.43860  Biso   1.000  C
  C546     1.0000 0.33220  0.89760  0.43040  Biso   1.000  C
  H499     1.0000 0.29670  0.90080  0.44520  Biso   1.000  H
  C547     1.0000 0.34660  0.92830  0.39930  Biso   1.000  C
  H500     1.0000 0.32010  0.95210  0.39340  Biso   1.000  H
  C548     1.0000 0.35650  0.83120  0.47080  Biso   1.000  C
  C549     1.0000 0.30150  0.81130  0.48140  Biso   1.000  C
  C550     1.0000 0.39430  0.81390  0.50070  Biso   1.000  C
  C551     1.0000 0.24280  0.81670  0.45960  Biso   1.000  C
  H501     1.0000 0.21230  0.79920  0.47340  Biso   1.000  H
  H502     1.0000 0.23150  0.84860  0.45930  Biso   1.000  H
  H503     1.0000 0.24670  0.80590  0.43200  Biso   1.000  H
  C552     1.0000 0.46020  0.82290  0.50660  Biso   1.000  C
  H504     1.0000 0.46870  0.82590  0.53520  Biso   1.000  H
  H505     1.0000 0.48290  0.79780  0.49550  Biso   1.000  H
  H506     1.0000 0.47110  0.85080  0.49280  Biso   1.000  H
  O93      1.0000 0.96250  0.45530  0.32830  Biso   1.000  O
  O94      1.0000 0.87760  0.48900  0.33850  Biso   1.000  O
  N93      1.0000 0.86430  0.28720  0.52300  Biso   1.000  N
  H507     1.0000 0.87950  0.27180  0.54300  Biso   1.000  H
  N94      1.0000 0.80650  0.28550  0.51240  Biso   1.000  N
  C553     1.0000 0.91260  0.45890  0.34550  Biso   1.000  C
  C554     1.0000 0.89850  0.42450  0.37720  Biso   1.000  C
  C555     1.0000 0.93480  0.38660  0.38490  Biso   1.000  C
  H508     1.0000 0.96960  0.38260  0.36960  Biso   1.000  H
  C556     1.0000 0.92050  0.35540  0.41420  Biso   1.000  C
  H509     1.0000 0.94390  0.32910  0.41790  Biso   1.000  H
  C557     1.0000 0.87060  0.36340  0.43860  Biso   1.000  C
  C558     1.0000 0.83220  0.39760  0.43040  Biso   1.000  C
  H510     1.0000 0.79670  0.40080  0.44520  Biso   1.000  H
  C559     1.0000 0.84660  0.42830  0.39930  Biso   1.000  C
  H511     1.0000 0.82010  0.45210  0.39340  Biso   1.000  H
  C560     1.0000 0.85650  0.33120  0.47080  Biso   1.000  C
  C561     1.0000 0.80150  0.31130  0.48140  Biso   1.000  C
  C562     1.0000 0.89430  0.31390  0.50070  Biso   1.000  C
  C563     1.0000 0.74280  0.31670  0.45960  Biso   1.000  C
  H512     1.0000 0.71230  0.29920  0.47340  Biso   1.000  H
  H513     1.0000 0.73150  0.34860  0.45930  Biso   1.000  H
  H514     1.0000 0.74670  0.30590  0.43200  Biso   1.000  H
  C564     1.0000 0.96020  0.32290  0.50660  Biso   1.000  C
  H515     1.0000 0.96870  0.32590  0.53520  Biso   1.000  H
  H516     1.0000 0.98290  0.29780  0.49550  Biso   1.000  H
  H517     1.0000 0.97110  0.35080  0.49280  Biso   1.000  H
  O95      1.0000 0.96250  0.95530  0.82830  Biso   1.000  O
  O96      1.0000 0.87760  0.98900  0.83850  Biso   1.000  O
  N95      1.0000 0.86430  0.78720  0.02300  Biso   1.000  N
  H518     1.0000 0.87950  0.77180  0.04300  Biso   1.000  H
  N96      1.0000 0.80650  0.78550  0.01240  Biso   1.000  N
  C565     1.0000 0.91260  0.95890  0.84550  Biso   1.000  C
  C566     1.0000 0.89850  0.92450  0.87720  Biso   1.000  C
  C567     1.0000 0.93480  0.88660  0.88490  Biso   1.000  C
  H519     1.0000 0.96960  0.88260  0.86960  Biso   1.000  H
  C568     1.0000 0.92050  0.85540  0.91420  Biso   1.000  C
  H520     1.0000 0.94390  0.82910  0.91790  Biso   1.000  H
  C569     1.0000 0.87060  0.86340  0.93860  Biso   1.000  C
  C570     1.0000 0.83220  0.89760  0.93040  Biso   1.000  C
  H521     1.0000 0.79670  0.90080  0.94520  Biso   1.000  H
  C571     1.0000 0.84660  0.92830  0.89930  Biso   1.000  C
  H522     1.0000 0.82010  0.95210  0.89340  Biso   1.000  H
  C572     1.0000 0.85650  0.83120  0.97080  Biso   1.000  C
  C573     1.0000 0.80150  0.81130  0.98140  Biso   1.000  C
  C574     1.0000 0.89430  0.81390  0.00070  Biso   1.000  C
  C575     1.0000 0.74280  0.81670  0.95960  Biso   1.000  C
  H523     1.0000 0.71230  0.79920  0.97340  Biso   1.000  H
  H524     1.0000 0.73150  0.84860  0.95930  Biso   1.000  H
  H525     1.0000 0.74670  0.80590  0.93200  Biso   1.000  H
  C576     1.0000 0.96020  0.82290  0.00660  Biso   1.000  C
  H526     1.0000 0.96870  0.82590  0.03520  Biso   1.000  H
  H527     1.0000 0.98290  0.79780  0.99550  Biso   1.000  H
  H528     1.0000 0.97110  0.85080  0.99280  Biso   1.000  H
  Zn17     1.0000 0.75000  0.25000  0.54552  Biso   1.000  Zn
  Zn18     1.0000 0.75000  0.75000  0.04552  Biso   1.000  Zn
  Zn19     1.0000 0.25000  0.75000  0.54552  Biso   1.000  Zn
  Zn20     1.0000 0.25000  0.25000  0.04552  Biso   1.000  Zn
  Zn21     1.0000 0.00000  0.00000  0.79552  Biso   1.000  Zn
  Zn22     1.0000 0.00000  0.50000  0.29552  Biso   1.000  Zn
  Zn23     1.0000 0.50000  0.50000  0.79552  Biso   1.000  Zn
  Zn24     1.0000 0.50000  0.00000  0.29552  Biso   1.000  Zn
  Zn25     1.0000 0.50241  0.74545  0.71821  Biso   1.000  Zn
  O97      1.0000 0.46260  0.70650  0.75560  Biso   1.000  O
  O98      1.0000 0.38130  0.74700  0.76770  Biso   1.000  O
  O99      1.0000 0.54350  0.70480  0.68140  Biso   1.000  O
  O100     1.0000 0.62860  0.73940  0.66990  Biso   1.000  O
  N97      1.0000 0.34960  0.55290  0.95420  Biso   1.000  N
  H529     1.0000 0.36240  0.54480  0.97800  Biso   1.000  H
  N98      1.0000 0.30060  0.53610  0.93690  Biso   1.000  N
  N99      1.0000 0.63280  0.53700  0.48640  Biso   1.000  N
  H530     1.0000 0.61810  0.52260  0.46560  Biso   1.000  H
  N100     1.0000 0.69060  0.53230  0.49870  Biso   1.000  N
  C577     1.0000 0.41310  0.71300  0.77290  Biso   1.000  C
  C578     1.0000 0.39300  0.67820  0.80280  Biso   1.000  C
  C579     1.0000 0.42920  0.64300  0.81440  Biso   1.000  C
  H531     1.0000 0.46640  0.63950  0.80160  Biso   1.000  H
  C580     1.0000 0.41330  0.61340  0.84340  Biso   1.000  C
  H532     1.0000 0.43950  0.58990  0.85080  Biso   1.000  H
  C581     1.0000 0.35830  0.61720  0.86230  Biso   1.000  C
  C582     1.0000 0.32000  0.65250  0.85080  Biso   1.000  C
  H533     1.0000 0.28290  0.65590  0.86350  Biso   1.000  H
  C583     1.0000 0.33730  0.68260  0.82010  Biso   1.000  C
  H534     1.0000 0.31120  0.70560  0.81140  Biso   1.000  H
  C584     1.0000 0.34520  0.58720  0.89690  Biso   1.000  C
  C585     1.0000 0.29570  0.55760  0.90160  Biso   1.000  C
  C586     1.0000 0.37670  0.58350  0.93070  Biso   1.000  C
  C587     1.0000 0.24570  0.54980  0.87390  Biso   1.000  C
  H535     1.0000 0.21010  0.54290  0.88940  Biso   1.000  H
  H536     1.0000 0.25490  0.52440  0.85620  Biso   1.000  H
  H537     1.0000 0.23890  0.57690  0.85780  Biso   1.000  H
  C588     1.0000 0.43030  0.60740  0.94490  Biso   1.000  C
  H538     1.0000 0.44590  0.62620  0.92320  Biso   1.000  H
  H539     1.0000 0.46010  0.58530  0.95290  Biso   1.000  H
  H540     1.0000 0.42020  0.62640  0.96780  Biso   1.000  H
  C589     1.0000 0.59240  0.70960  0.66410  Biso   1.000  C
  C590     1.0000 0.60320  0.67650  0.63120  Biso   1.000  C
  C591     1.0000 0.56340  0.64160  0.62340  Biso   1.000  C
  H541     1.0000 0.52780  0.63960  0.63830  Biso   1.000  H
  C592     1.0000 0.57570  0.60980  0.59380  Biso   1.000  C
  H542     1.0000 0.54850  0.58620  0.58880  Biso   1.000  H
  C593     1.0000 0.62840  0.61230  0.57110  Biso   1.000  C
  C594     1.0000 0.66770  0.64930  0.57930  Biso   1.000  C
  H543     1.0000 0.70250  0.65280  0.56380  Biso   1.000  H
  C595     1.0000 0.65580  0.67880  0.60860  Biso   1.000  C
  H544     1.0000 0.68340  0.70190  0.61440  Biso   1.000  H
  C596     1.0000 0.64010  0.58030  0.53920  Biso   1.000  C
  C597     1.0000 0.69430  0.55880  0.53070  Biso   1.000  C
  C598     1.0000 0.60150  0.56520  0.50860  Biso   1.000  C
  C599     1.0000 0.75070  0.56290  0.55340  Biso   1.000  C
  H545     1.0000 0.77090  0.53380  0.55360  Biso   1.000  H
  H546     1.0000 0.74220  0.57220  0.58090  Biso   1.000  H
  H547     1.0000 0.77590  0.58550  0.54050  Biso   1.000  H
  C600     1.0000 0.53970  0.57420  0.50090  Biso   1.000  C
  H548     1.0000 0.53060  0.56700  0.47300  Biso   1.000  H
  H549     1.0000 0.53160  0.60620  0.50580  Biso   1.000  H
  H550     1.0000 0.51540  0.55580  0.51870  Biso   1.000  H
  Zn26     1.0000 0.50241  0.24545  0.21821  Biso   1.000  Zn
  O101     1.0000 0.46260  0.20650  0.25560  Biso   1.000  O
  O102     1.0000 0.38130  0.24700  0.26770  Biso   1.000  O
  O103     1.0000 0.54350  0.20480  0.18140  Biso   1.000  O
  O104     1.0000 0.62860  0.23940  0.16990  Biso   1.000  O
  N101     1.0000 0.34960  0.05290  0.45420  Biso   1.000  N
  H551     1.0000 0.36240  0.04480  0.47800  Biso   1.000  H
  N102     1.0000 0.30060  0.03610  0.43690  Biso   1.000  N
  N103     1.0000 0.63280  0.03700  0.98640  Biso   1.000  N
  H552     1.0000 0.61810  0.02260  0.96560  Biso   1.000  H
  N104     1.0000 0.69060  0.03230  0.99870  Biso   1.000  N
  C601     1.0000 0.41310  0.21300  0.27290  Biso   1.000  C
  C602     1.0000 0.39300  0.17820  0.30280  Biso   1.000  C
  C603     1.0000 0.42920  0.14300  0.31440  Biso   1.000  C
  H553     1.0000 0.46640  0.13950  0.30160  Biso   1.000  H
  C604     1.0000 0.41330  0.11340  0.34340  Biso   1.000  C
  H554     1.0000 0.43950  0.08990  0.35080  Biso   1.000  H
  C605     1.0000 0.35830  0.11720  0.36230  Biso   1.000  C
  C606     1.0000 0.32000  0.15250  0.35080  Biso   1.000  C
  H555     1.0000 0.28290  0.15590  0.36350  Biso   1.000  H
  C607     1.0000 0.33730  0.18260  0.32010  Biso   1.000  C
  H556     1.0000 0.31120  0.20560  0.31140  Biso   1.000  H
  C608     1.0000 0.34520  0.08720  0.39690  Biso   1.000  C
  C609     1.0000 0.29570  0.05760  0.40160  Biso   1.000  C
  C610     1.0000 0.37670  0.08350  0.43070  Biso   1.000  C
  C611     1.0000 0.24570  0.04980  0.37390  Biso   1.000  C
  H557     1.0000 0.21010  0.04290  0.38940  Biso   1.000  H
  H558     1.0000 0.25490  0.02440  0.35620  Biso   1.000  H
  H559     1.0000 0.23890  0.07690  0.35780  Biso   1.000  H
  C612     1.0000 0.43030  0.10740  0.44490  Biso   1.000  C
  H560     1.0000 0.44590  0.12620  0.42320  Biso   1.000  H
  H561     1.0000 0.46010  0.08530  0.45290  Biso   1.000  H
  H562     1.0000 0.42020  0.12640  0.46780  Biso   1.000  H
  C613     1.0000 0.59240  0.20960  0.16410  Biso   1.000  C
  C614     1.0000 0.60320  0.17650  0.13120  Biso   1.000  C
  C615     1.0000 0.56340  0.14160  0.12340  Biso   1.000  C
  H563     1.0000 0.52780  0.13960  0.13830  Biso   1.000  H
  C616     1.0000 0.57570  0.10980  0.09380  Biso   1.000  C
  H564     1.0000 0.54850  0.08620  0.08880  Biso   1.000  H
  C617     1.0000 0.62840  0.11230  0.07110  Biso   1.000  C
  C618     1.0000 0.66770  0.14930  0.07930  Biso   1.000  C
  H565     1.0000 0.70250  0.15280  0.06380  Biso   1.000  H
  C619     1.0000 0.65580  0.17880  0.10860  Biso   1.000  C
  H566     1.0000 0.68340  0.20190  0.11440  Biso   1.000  H
  C620     1.0000 0.64010  0.08030  0.03920  Biso   1.000  C
  C621     1.0000 0.69430  0.05880  0.03070  Biso   1.000  C
  C622     1.0000 0.60150  0.06520  0.00860  Biso   1.000  C
  C623     1.0000 0.75070  0.06290  0.05340  Biso   1.000  C
  H567     1.0000 0.77090  0.03380  0.05360  Biso   1.000  H
  H568     1.0000 0.74220  0.07220  0.08090  Biso   1.000  H
  H569     1.0000 0.77590  0.08550  0.04050  Biso   1.000  H
  C624     1.0000 0.53970  0.07420  0.00090  Biso   1.000  C
  H570     1.0000 0.53060  0.06700  0.97300  Biso   1.000  H
  H571     1.0000 0.53160  0.10620  0.00580  Biso   1.000  H
  H572     1.0000 0.51540  0.05580  0.01870  Biso   1.000  H
  Zn27     1.0000 0.00241  0.74545  0.21821  Biso   1.000  Zn
  O105     1.0000 0.96260  0.70650  0.25560  Biso   1.000  O
  O106     1.0000 0.88130  0.74700  0.26770  Biso   1.000  O
  O107     1.0000 0.04350  0.70480  0.18140  Biso   1.000  O
  O108     1.0000 0.12860  0.73940  0.16990  Biso   1.000  O
  N105     1.0000 0.84960  0.55290  0.45420  Biso   1.000  N
  H573     1.0000 0.86240  0.54480  0.47800  Biso   1.000  H
  N106     1.0000 0.80060  0.53610  0.43690  Biso   1.000  N
  N107     1.0000 0.13280  0.53700  0.98640  Biso   1.000  N
  H574     1.0000 0.11810  0.52260  0.96560  Biso   1.000  H
  N108     1.0000 0.19060  0.53230  0.99870  Biso   1.000  N
  C625     1.0000 0.91310  0.71300  0.27290  Biso   1.000  C
  C626     1.0000 0.89300  0.67820  0.30280  Biso   1.000  C
  C627     1.0000 0.92920  0.64300  0.31440  Biso   1.000  C
  H575     1.0000 0.96640  0.63950  0.30160  Biso   1.000  H
  C628     1.0000 0.91330  0.61340  0.34340  Biso   1.000  C
  H576     1.0000 0.93950  0.58990  0.35080  Biso   1.000  H
  C629     1.0000 0.85830  0.61720  0.36230  Biso   1.000  C
  C630     1.0000 0.82000  0.65250  0.35080  Biso   1.000  C
  H577     1.0000 0.78290  0.65590  0.36350  Biso   1.000  H
  C631     1.0000 0.83730  0.68260  0.32010  Biso   1.000  C
  H578     1.0000 0.81120  0.70560  0.31140  Biso   1.000  H
  C632     1.0000 0.84520  0.58720  0.39690  Biso   1.000  C
  C633     1.0000 0.79570  0.55760  0.40160  Biso   1.000  C
  C634     1.0000 0.87670  0.58350  0.43070  Biso   1.000  C
  C635     1.0000 0.74570  0.54980  0.37390  Biso   1.000  C
  H579     1.0000 0.71010  0.54290  0.38940  Biso   1.000  H
  H580     1.0000 0.75490  0.52440  0.35620  Biso   1.000  H
  H581     1.0000 0.73890  0.57690  0.35780  Biso   1.000  H
  C636     1.0000 0.93030  0.60740  0.44490  Biso   1.000  C
  H582     1.0000 0.94590  0.62620  0.42320  Biso   1.000  H
  H583     1.0000 0.96010  0.58530  0.45290  Biso   1.000  H
  H584     1.0000 0.92020  0.62640  0.46780  Biso   1.000  H
  C637     1.0000 0.09240  0.70960  0.16410  Biso   1.000  C
  C638     1.0000 0.10320  0.67650  0.13120  Biso   1.000  C
  C639     1.0000 0.06340  0.64160  0.12340  Biso   1.000  C
  H585     1.0000 0.02780  0.63960  0.13830  Biso   1.000  H
  C640     1.0000 0.07570  0.60980  0.09380  Biso   1.000  C
  H586     1.0000 0.04850  0.58620  0.08880  Biso   1.000  H
  C641     1.0000 0.12840  0.61230  0.07110  Biso   1.000  C
  C642     1.0000 0.16770  0.64930  0.07930  Biso   1.000  C
  H587     1.0000 0.20250  0.65280  0.06380  Biso   1.000  H
  C643     1.0000 0.15580  0.67880  0.10860  Biso   1.000  C
  H588     1.0000 0.18340  0.70190  0.11440  Biso   1.000  H
  C644     1.0000 0.14010  0.58030  0.03920  Biso   1.000  C
  C645     1.0000 0.19430  0.55880  0.03070  Biso   1.000  C
  C646     1.0000 0.10150  0.56520  0.00860  Biso   1.000  C
  C647     1.0000 0.25070  0.56290  0.05340  Biso   1.000  C
  H589     1.0000 0.27090  0.53380  0.05360  Biso   1.000  H
  H590     1.0000 0.24220  0.57220  0.08090  Biso   1.000  H
  H591     1.0000 0.27590  0.58550  0.04050  Biso   1.000  H
  C648     1.0000 0.03970  0.57420  0.00090  Biso   1.000  C
  H592     1.0000 0.03060  0.56700  0.97300  Biso   1.000  H
  H593     1.0000 0.03160  0.60620  0.00580  Biso   1.000  H
  H594     1.0000 0.01540  0.55580  0.01870  Biso   1.000  H
  Zn28     1.0000 0.00241  0.24545  0.71821  Biso   1.000  Zn
  O109     1.0000 0.96260  0.20650  0.75560  Biso   1.000  O
  O110     1.0000 0.88130  0.24700  0.76770  Biso   1.000  O
  O111     1.0000 0.04350  0.20480  0.68140  Biso   1.000  O
  O112     1.0000 0.12860  0.23940  0.66990  Biso   1.000  O
  N109     1.0000 0.84960  0.05290  0.95420  Biso   1.000  N
  H595     1.0000 0.86240  0.04480  0.97800  Biso   1.000  H
  N110     1.0000 0.80060  0.03610  0.93690  Biso   1.000  N
  N111     1.0000 0.13280  0.03700  0.48640  Biso   1.000  N
  H596     1.0000 0.11810  0.02260  0.46560  Biso   1.000  H
  N112     1.0000 0.19060  0.03230  0.49870  Biso   1.000  N
  C649     1.0000 0.91310  0.21300  0.77290  Biso   1.000  C
  C650     1.0000 0.89300  0.17820  0.80280  Biso   1.000  C
  C651     1.0000 0.92920  0.14300  0.81440  Biso   1.000  C
  H597     1.0000 0.96640  0.13950  0.80160  Biso   1.000  H
  C652     1.0000 0.91330  0.11340  0.84340  Biso   1.000  C
  H598     1.0000 0.93950  0.08990  0.85080  Biso   1.000  H
  C653     1.0000 0.85830  0.11720  0.86230  Biso   1.000  C
  C654     1.0000 0.82000  0.15250  0.85080  Biso   1.000  C
  H599     1.0000 0.78290  0.15590  0.86350  Biso   1.000  H
  C655     1.0000 0.83730  0.18260  0.82010  Biso   1.000  C
  H600     1.0000 0.81120  0.20560  0.81140  Biso   1.000  H
  C656     1.0000 0.84520  0.08720  0.89690  Biso   1.000  C
  C657     1.0000 0.79570  0.05760  0.90160  Biso   1.000  C
  C658     1.0000 0.87670  0.08350  0.93070  Biso   1.000  C
  C659     1.0000 0.74570  0.04980  0.87390  Biso   1.000  C
  H601     1.0000 0.71010  0.04290  0.88940  Biso   1.000  H
  H602     1.0000 0.75490  0.02440  0.85620  Biso   1.000  H
  H603     1.0000 0.73890  0.07690  0.85780  Biso   1.000  H
  C660     1.0000 0.93030  0.10740  0.94490  Biso   1.000  C
  H604     1.0000 0.94590  0.12620  0.92320  Biso   1.000  H
  H605     1.0000 0.96010  0.08530  0.95290  Biso   1.000  H
  H606     1.0000 0.92020  0.12640  0.96780  Biso   1.000  H
  C661     1.0000 0.09240  0.20960  0.66410  Biso   1.000  C
  C662     1.0000 0.10320  0.17650  0.63120  Biso   1.000  C
  C663     1.0000 0.06340  0.14160  0.62340  Biso   1.000  C
  H607     1.0000 0.02780  0.13960  0.63830  Biso   1.000  H
  C664     1.0000 0.07570  0.10980  0.59380  Biso   1.000  C
  H608     1.0000 0.04850  0.08620  0.58880  Biso   1.000  H
  C665     1.0000 0.12840  0.11230  0.57110  Biso   1.000  C
  C666     1.0000 0.16770  0.14930  0.57930  Biso   1.000  C
  H609     1.0000 0.20250  0.15280  0.56380  Biso   1.000  H
  C667     1.0000 0.15580  0.17880  0.60860  Biso   1.000  C
  H610     1.0000 0.18340  0.20190  0.61440  Biso   1.000  H
  C668     1.0000 0.14010  0.08030  0.53920  Biso   1.000  C
  C669     1.0000 0.19430  0.05880  0.53070  Biso   1.000  C
  C670     1.0000 0.10150  0.06520  0.50860  Biso   1.000  C
  C671     1.0000 0.25070  0.06290  0.55340  Biso   1.000  C
  H611     1.0000 0.27090  0.03380  0.55360  Biso   1.000  H
  H612     1.0000 0.24220  0.07220  0.58090  Biso   1.000  H
  H613     1.0000 0.27590  0.08550  0.54050  Biso   1.000  H
  C672     1.0000 0.03970  0.07420  0.50090  Biso   1.000  C
  H614     1.0000 0.03060  0.06700  0.47300  Biso   1.000  H
  H615     1.0000 0.03160  0.10620  0.50580  Biso   1.000  H
  H616     1.0000 0.01540  0.05580  0.51870  Biso   1.000  H
  Zn29     1.0000 0.74759  0.99545  0.96821  Biso   1.000  Zn
  O113     1.0000 0.78740  0.95650  0.00560  Biso   1.000  O
  O114     1.0000 0.86870  0.99700  0.01770  Biso   1.000  O
  O115     1.0000 0.70650  0.95480  0.93140  Biso   1.000  O
  O116     1.0000 0.62140  0.98940  0.91990  Biso   1.000  O
  N113     1.0000 0.90040  0.80290  0.20420  Biso   1.000  N
  H617     1.0000 0.88760  0.79480  0.22800  Biso   1.000  H
  N114     1.0000 0.94940  0.78610  0.18690  Biso   1.000  N
  N115     1.0000 0.61720  0.78700  0.73640  Biso   1.000  N
  H618     1.0000 0.63190  0.77260  0.71560  Biso   1.000  H
  N116     1.0000 0.55940  0.78230  0.74870  Biso   1.000  N
  C673     1.0000 0.83690  0.96300  0.02290  Biso   1.000  C
  C674     1.0000 0.85700  0.92820  0.05280  Biso   1.000  C
  C675     1.0000 0.82080  0.89300  0.06440  Biso   1.000  C
  H619     1.0000 0.78360  0.88950  0.05160  Biso   1.000  H
  C676     1.0000 0.83670  0.86340  0.09340  Biso   1.000  C
  H620     1.0000 0.81050  0.83990  0.10080  Biso   1.000  H
  C677     1.0000 0.89170  0.86720  0.11230  Biso   1.000  C
  C678     1.0000 0.93000  0.90250  0.10080  Biso   1.000  C
  H621     1.0000 0.96710  0.90590  0.11350  Biso   1.000  H
  C679     1.0000 0.91270  0.93260  0.07010  Biso   1.000  C
  H622     1.0000 0.93880  0.95560  0.06140  Biso   1.000  H
  C680     1.0000 0.90480  0.83720  0.14690  Biso   1.000  C
  C681     1.0000 0.95430  0.80760  0.15160  Biso   1.000  C
  C682     1.0000 0.87330  0.83350  0.18070  Biso   1.000  C
  C683     1.0000 0.00430  0.79980  0.12390  Biso   1.000  C
  H623     1.0000 0.03990  0.79290  0.13940  Biso   1.000  H
  H624     1.0000 0.99510  0.77440  0.10620  Biso   1.000  H
  H625     1.0000 0.01110  0.82690  0.10780  Biso   1.000  H
  C684     1.0000 0.81970  0.85740  0.19490  Biso   1.000  C
  H626     1.0000 0.80410  0.87620  0.17320  Biso   1.000  H
  H627     1.0000 0.78990  0.83530  0.20290  Biso   1.000  H
  H628     1.0000 0.82980  0.87640  0.21780  Biso   1.000  H
  C685     1.0000 0.65760  0.95960  0.91410  Biso   1.000  C
  C686     1.0000 0.64680  0.92650  0.88120  Biso   1.000  C
  C687     1.0000 0.68660  0.89160  0.87340  Biso   1.000  C
  H629     1.0000 0.72220  0.88960  0.88830  Biso   1.000  H
  C688     1.0000 0.67430  0.85980  0.84380  Biso   1.000  C
  H630     1.0000 0.70150  0.83620  0.83880  Biso   1.000  H
  C689     1.0000 0.62160  0.86230  0.82110  Biso   1.000  C
  C690     1.0000 0.58230  0.89930  0.82930  Biso   1.000  C
  H631     1.0000 0.54750  0.90280  0.81380  Biso   1.000  H
  C691     1.0000 0.59420  0.92880  0.85860  Biso   1.000  C
  H632     1.0000 0.56660  0.95190  0.86440  Biso   1.000  H
  C692     1.0000 0.60990  0.83030  0.78920  Biso   1.000  C
  C693     1.0000 0.55570  0.80880  0.78070  Biso   1.000  C
  C694     1.0000 0.64850  0.81520  0.75860  Biso   1.000  C
  C695     1.0000 0.49930  0.81290  0.80340  Biso   1.000  C
  H633     1.0000 0.47910  0.78380  0.80360  Biso   1.000  H
  H634     1.0000 0.50780  0.82220  0.83090  Biso   1.000  H
  H635     1.0000 0.47410  0.83550  0.79050  Biso   1.000  H
  C696     1.0000 0.71030  0.82420  0.75090  Biso   1.000  C
  H636     1.0000 0.71940  0.81700  0.72300  Biso   1.000  H
  H637     1.0000 0.71840  0.85620  0.75580  Biso   1.000  H
  H638     1.0000 0.73460  0.80580  0.76870  Biso   1.000  H
  Zn30     1.0000 0.74759  0.49545  0.46821  Biso   1.000  Zn
  O117     1.0000 0.78740  0.45650  0.50560  Biso   1.000  O
  O118     1.0000 0.86870  0.49700  0.51770  Biso   1.000  O
  O119     1.0000 0.70650  0.45480  0.43140  Biso   1.000  O
  O120     1.0000 0.62140  0.48940  0.41990  Biso   1.000  O
  N117     1.0000 0.90040  0.30290  0.70420  Biso   1.000  N
  H639     1.0000 0.88760  0.29480  0.72800  Biso   1.000  H
  N118     1.0000 0.94940  0.28610  0.68690  Biso   1.000  N
  N119     1.0000 0.61720  0.28700  0.23640  Biso   1.000  N
  H640     1.0000 0.63190  0.27260  0.21560  Biso   1.000  H
  N120     1.0000 0.55940  0.28230  0.24870  Biso   1.000  N
  C697     1.0000 0.83690  0.46300  0.52290  Biso   1.000  C
  C698     1.0000 0.85700  0.42820  0.55280  Biso   1.000  C
  C699     1.0000 0.82080  0.39300  0.56440  Biso   1.000  C
  H641     1.0000 0.78360  0.38950  0.55160  Biso   1.000  H
  C700     1.0000 0.83670  0.36340  0.59340  Biso   1.000  C
  H642     1.0000 0.81050  0.33990  0.60080  Biso   1.000  H
  C701     1.0000 0.89170  0.36720  0.61230  Biso   1.000  C
  C702     1.0000 0.93000  0.40250  0.60080  Biso   1.000  C
  H643     1.0000 0.96710  0.40590  0.61350  Biso   1.000  H
  C703     1.0000 0.91270  0.43260  0.57010  Biso   1.000  C
  H644     1.0000 0.93880  0.45560  0.56140  Biso   1.000  H
  C704     1.0000 0.90480  0.33720  0.64690  Biso   1.000  C
  C705     1.0000 0.95430  0.30760  0.65160  Biso   1.000  C
  C706     1.0000 0.87330  0.33350  0.68070  Biso   1.000  C
  C707     1.0000 0.00430  0.29980  0.62390  Biso   1.000  C
  H645     1.0000 0.03990  0.29290  0.63940  Biso   1.000  H
  H646     1.0000 0.99510  0.27440  0.60620  Biso   1.000  H
  H647     1.0000 0.01110  0.32690  0.60780  Biso   1.000  H
  C708     1.0000 0.81970  0.35740  0.69490  Biso   1.000  C
  H648     1.0000 0.80410  0.37620  0.67320  Biso   1.000  H
  H649     1.0000 0.78990  0.33530  0.70290  Biso   1.000  H
  H650     1.0000 0.82980  0.37640  0.71780  Biso   1.000  H
  C709     1.0000 0.65760  0.45960  0.41410  Biso   1.000  C
  C710     1.0000 0.64680  0.42650  0.38120  Biso   1.000  C
  C711     1.0000 0.68660  0.39160  0.37340  Biso   1.000  C
  H651     1.0000 0.72220  0.38960  0.38830  Biso   1.000  H
  C712     1.0000 0.67430  0.35980  0.34380  Biso   1.000  C
  H652     1.0000 0.70150  0.33620  0.33880  Biso   1.000  H
  C713     1.0000 0.62160  0.36230  0.32110  Biso   1.000  C
  C714     1.0000 0.58230  0.39930  0.32930  Biso   1.000  C
  H653     1.0000 0.54750  0.40280  0.31380  Biso   1.000  H
  C715     1.0000 0.59420  0.42880  0.35860  Biso   1.000  C
  H654     1.0000 0.56660  0.45190  0.36440  Biso   1.000  H
  C716     1.0000 0.60990  0.33030  0.28920  Biso   1.000  C
  C717     1.0000 0.55570  0.30880  0.28070  Biso   1.000  C
  C718     1.0000 0.64850  0.31520  0.25860  Biso   1.000  C
  C719     1.0000 0.49930  0.31290  0.30340  Biso   1.000  C
  H655     1.0000 0.47910  0.28380  0.30360  Biso   1.000  H
  H656     1.0000 0.50780  0.32220  0.33090  Biso   1.000  H
  H657     1.0000 0.47410  0.33550  0.29050  Biso   1.000  H
  C720     1.0000 0.71030  0.32420  0.25090  Biso   1.000  C
  H658     1.0000 0.71940  0.31700  0.22300  Biso   1.000  H
  H659     1.0000 0.71840  0.35620  0.25580  Biso   1.000  H
  H660     1.0000 0.73460  0.30580  0.26870  Biso   1.000  H
  Zn31     1.0000 0.24759  0.99545  0.46821  Biso   1.000  Zn
  O121     1.0000 0.28740  0.95650  0.50560  Biso   1.000  O
  O122     1.0000 0.36870  0.99700  0.51770  Biso   1.000  O
  O123     1.0000 0.20650  0.95480  0.43140  Biso   1.000  O
  O124     1.0000 0.12140  0.98940  0.41990  Biso   1.000  O
  N121     1.0000 0.40040  0.80290  0.70420  Biso   1.000  N
  H661     1.0000 0.38760  0.79480  0.72800  Biso   1.000  H
  N122     1.0000 0.44940  0.78610  0.68690  Biso   1.000  N
  N123     1.0000 0.11720  0.78700  0.23640  Biso   1.000  N
  H662     1.0000 0.13190  0.77260  0.21560  Biso   1.000  H
  N124     1.0000 0.05940  0.78230  0.24870  Biso   1.000  N
  C721     1.0000 0.33690  0.96300  0.52290  Biso   1.000  C
  C722     1.0000 0.35700  0.92820  0.55280  Biso   1.000  C
  C723     1.0000 0.32080  0.89300  0.56440  Biso   1.000  C
  H663     1.0000 0.28360  0.88950  0.55160  Biso   1.000  H
  C724     1.0000 0.33670  0.86340  0.59340  Biso   1.000  C
  H664     1.0000 0.31050  0.83990  0.60080  Biso   1.000  H
  C725     1.0000 0.39170  0.86720  0.61230  Biso   1.000  C
  C726     1.0000 0.43000  0.90250  0.60080  Biso   1.000  C
  H665     1.0000 0.46710  0.90590  0.61350  Biso   1.000  H
  C727     1.0000 0.41270  0.93260  0.57010  Biso   1.000  C
  H666     1.0000 0.43880  0.95560  0.56140  Biso   1.000  H
  C728     1.0000 0.40480  0.83720  0.64690  Biso   1.000  C
  C729     1.0000 0.45430  0.80760  0.65160  Biso   1.000  C
  C730     1.0000 0.37330  0.83350  0.68070  Biso   1.000  C
  C731     1.0000 0.50430  0.79980  0.62390  Biso   1.000  C
  H667     1.0000 0.53990  0.79290  0.63940  Biso   1.000  H
  H668     1.0000 0.49510  0.77440  0.60620  Biso   1.000  H
  H669     1.0000 0.51110  0.82690  0.60780  Biso   1.000  H
  C732     1.0000 0.31970  0.85740  0.69490  Biso   1.000  C
  H670     1.0000 0.30410  0.87620  0.67320  Biso   1.000  H
  H671     1.0000 0.28990  0.83530  0.70290  Biso   1.000  H
  H672     1.0000 0.32980  0.87640  0.71780  Biso   1.000  H
  C733     1.0000 0.15760  0.95960  0.41410  Biso   1.000  C
  C734     1.0000 0.14680  0.92650  0.38120  Biso   1.000  C
  C735     1.0000 0.18660  0.89160  0.37340  Biso   1.000  C
  H673     1.0000 0.22220  0.88960  0.38830  Biso   1.000  H
  C736     1.0000 0.17430  0.85980  0.34380  Biso   1.000  C
  H674     1.0000 0.20150  0.83620  0.33880  Biso   1.000  H
  C737     1.0000 0.12160  0.86230  0.32110  Biso   1.000  C
  C738     1.0000 0.08230  0.89930  0.32930  Biso   1.000  C
  H675     1.0000 0.04750  0.90280  0.31380  Biso   1.000  H
  C739     1.0000 0.09420  0.92880  0.35860  Biso   1.000  C
  H676     1.0000 0.06660  0.95190  0.36440  Biso   1.000  H
  C740     1.0000 0.10990  0.83030  0.28920  Biso   1.000  C
  C741     1.0000 0.05570  0.80880  0.28070  Biso   1.000  C
  C742     1.0000 0.14850  0.81520  0.25860  Biso   1.000  C
  C743     1.0000 0.99930  0.81290  0.30340  Biso   1.000  C
  H677     1.0000 0.97910  0.78380  0.30360  Biso   1.000  H
  H678     1.0000 0.00780  0.82220  0.33090  Biso   1.000  H
  H679     1.0000 0.97410  0.83550  0.29050  Biso   1.000  H
  C744     1.0000 0.21030  0.82420  0.25090  Biso   1.000  C
  H680     1.0000 0.21940  0.81700  0.22300  Biso   1.000  H
  H681     1.0000 0.21840  0.85620  0.25580  Biso   1.000  H
  H682     1.0000 0.23460  0.80580  0.26870  Biso   1.000  H
  Zn32     1.0000 0.24759  0.49545  0.96821  Biso   1.000  Zn
  O125     1.0000 0.28740  0.45650  0.00560  Biso   1.000  O
  O126     1.0000 0.36870  0.49700  0.01770  Biso   1.000  O
  O127     1.0000 0.20650  0.45480  0.93140  Biso   1.000  O
  O128     1.0000 0.12140  0.48940  0.91990  Biso   1.000  O
  N125     1.0000 0.40040  0.30290  0.20420  Biso   1.000  N
  H683     1.0000 0.38760  0.29480  0.22800  Biso   1.000  H
  N126     1.0000 0.44940  0.28610  0.18690  Biso   1.000  N
  N127     1.0000 0.11720  0.28700  0.73640  Biso   1.000  N
  H684     1.0000 0.13190  0.27260  0.71560  Biso   1.000  H
  N128     1.0000 0.05940  0.28230  0.74870  Biso   1.000  N
  C745     1.0000 0.33690  0.46300  0.02290  Biso   1.000  C
  C746     1.0000 0.35700  0.42820  0.05280  Biso   1.000  C
  C747     1.0000 0.32080  0.39300  0.06440  Biso   1.000  C
  H685     1.0000 0.28360  0.38950  0.05160  Biso   1.000  H
  C748     1.0000 0.33670  0.36340  0.09340  Biso   1.000  C
  H686     1.0000 0.31050  0.33990  0.10080  Biso   1.000  H
  C749     1.0000 0.39170  0.36720  0.11230  Biso   1.000  C
  C750     1.0000 0.43000  0.40250  0.10080  Biso   1.000  C
  H687     1.0000 0.46710  0.40590  0.11350  Biso   1.000  H
  C751     1.0000 0.41270  0.43260  0.07010  Biso   1.000  C
  H688     1.0000 0.43880  0.45560  0.06140  Biso   1.000  H
  C752     1.0000 0.40480  0.33720  0.14690  Biso   1.000  C
  C753     1.0000 0.45430  0.30760  0.15160  Biso   1.000  C
  C754     1.0000 0.37330  0.33350  0.18070  Biso   1.000  C
  C755     1.0000 0.50430  0.29980  0.12390  Biso   1.000  C
  H689     1.0000 0.53990  0.29290  0.13940  Biso   1.000  H
  H690     1.0000 0.49510  0.27440  0.10620  Biso   1.000  H
  H691     1.0000 0.51110  0.32690  0.10780  Biso   1.000  H
  C756     1.0000 0.31970  0.35740  0.19490  Biso   1.000  C
  H692     1.0000 0.30410  0.37620  0.17320  Biso   1.000  H
  H693     1.0000 0.28990  0.33530  0.20290  Biso   1.000  H
  H694     1.0000 0.32980  0.37640  0.21780  Biso   1.000  H
  C757     1.0000 0.15760  0.45960  0.91410  Biso   1.000  C
  C758     1.0000 0.14680  0.42650  0.88120  Biso   1.000  C
  C759     1.0000 0.18660  0.39160  0.87340  Biso   1.000  C
  H695     1.0000 0.22220  0.38960  0.88830  Biso   1.000  H
  C760     1.0000 0.17430  0.35980  0.84380  Biso   1.000  C
  H696     1.0000 0.20150  0.33620  0.83880  Biso   1.000  H
  C761     1.0000 0.12160  0.36230  0.82110  Biso   1.000  C
  C762     1.0000 0.08230  0.39930  0.82930  Biso   1.000  C
  H697     1.0000 0.04750  0.40280  0.81380  Biso   1.000  H
  C763     1.0000 0.09420  0.42880  0.85860  Biso   1.000  C
  H698     1.0000 0.06660  0.45190  0.86440  Biso   1.000  H
  C764     1.0000 0.10990  0.33030  0.78920  Biso   1.000  C
  C765     1.0000 0.05570  0.30880  0.78070  Biso   1.000  C
  C766     1.0000 0.14850  0.31520  0.75860  Biso   1.000  C
  C767     1.0000 0.99930  0.31290  0.80340  Biso   1.000  C
  H699     1.0000 0.97910  0.28380  0.80360  Biso   1.000  H
  H700     1.0000 0.00780  0.32220  0.83090  Biso   1.000  H
  H701     1.0000 0.97410  0.33550  0.79050  Biso   1.000  H
  C768     1.0000 0.21030  0.32420  0.75090  Biso   1.000  C
  H702     1.0000 0.21940  0.31700  0.72300  Biso   1.000  H
  H703     1.0000 0.21840  0.35620  0.75580  Biso   1.000  H
  H704     1.0000 0.23460  0.30580  0.76870  Biso   1.000  H
