data_image0
_cell_length_a       29.875
_cell_length_b       29.875
_cell_length_c       18.072
_cell_angle_alpha    90
_cell_angle_beta     90
_cell_angle_gamma    120

_symmetry_space_group_name_H-M    "P 1"
_symmetry_int_tables_number       1

loop_
  _symmetry_equiv_pos_as_xyz
  'x, y, z'

loop_
  _atom_site_label
  _atom_site_occupancy
  _atom_site_fract_x
  _atom_site_fract_y
  _atom_site_fract_z
  _atom_site_thermal_displace_type
  _atom_site_B_iso_or_equiv
  _atom_site_type_symbol
  Zn1      1.0000 0.62518  0.85376  0.51930  Biso   1.000  Zn
  N1       1.0000 0.63542  0.89378  0.42017  Biso   1.000  N
  N2       1.0000 0.59882  0.79276  0.44470  Biso   1.000  N
  N3       1.0000 0.58157  0.76896  0.32818  Biso   1.000  N
  O1       1.0000 0.47706  0.49205  0.24302  Biso   1.000  O
  O2       1.0000 0.44807  0.52351  0.15478  Biso   1.000  O
  O3       1.0000 0.58201  0.63467  0.75180  Biso   1.000  O
  O4       1.0000 0.49762  0.59452  0.73537  Biso   1.000  O
  C1       1.0000 0.65053  0.94400  0.41200  Biso   1.000  C
  H1       1.0000 0.66040  0.96540  0.45470  Biso   1.000  H
  C2       1.0000 0.65230  0.96584  0.34340  Biso   1.000  C
  H2       1.0000 0.66240  0.00140  0.33950  Biso   1.000  H
  C3       1.0000 0.63910  0.93527  0.28110  Biso   1.000  C
  H3       1.0000 0.64070  0.94960  0.23360  Biso   1.000  H
  C4       1.0000 0.62350  0.88319  0.28850  Biso   1.000  C
  H4       1.0000 0.61460  0.86150  0.24630  Biso   1.000  H
  C5       1.0000 0.62130  0.86357  0.35866  Biso   1.000  C
  C6       1.0000 0.60216  0.80939  0.37534  Biso   1.000  C
  C7       1.0000 0.57513  0.73984  0.44186  Biso   1.000  C
  C8       1.0000 0.56385  0.72382  0.36859  Biso   1.000  C
  C9       1.0000 0.53920  0.67328  0.33108  Biso   1.000  C
  C10      1.0000 0.51499  0.66711  0.26240  Biso   1.000  C
  H5       1.0000 0.51440  0.69570  0.24040  Biso   1.000  H
  C11      1.0000 0.49214  0.62034  0.22643  Biso   1.000  C
  H6       1.0000 0.47580  0.61700  0.18000  Biso   1.000  H
  C12      1.0000 0.49246  0.57750  0.25701  Biso   1.000  C
  C13      1.0000 0.51682  0.58335  0.32566  Biso   1.000  C
  H7       1.0000 0.51780  0.55480  0.34720  Biso   1.000  H
  C14      1.0000 0.53953  0.63048  0.36239  Biso   1.000  C
  H8       1.0000 0.55540  0.63380  0.40910  Biso   1.000  H
  C15      1.0000 0.46987  0.52726  0.21442  Biso   1.000  C
  C16      1.0000 0.56554  0.71040  0.51134  Biso   1.000  C
  C17      1.0000 0.60560  0.72747  0.56327  Biso   1.000  C
  H9       1.0000 0.63820  0.75690  0.55270  Biso   1.000  H
  C18      1.0000 0.59788  0.70157  0.63019  Biso   1.000  C
  H10      1.0000 0.62520  0.71330  0.66510  Biso   1.000  H
  C19      1.0000 0.55002  0.65839  0.64607  Biso   1.000  C
  C20      1.0000 0.50966  0.64214  0.59550  Biso   1.000  C
  H11      1.0000 0.47660  0.61360  0.60700  Biso   1.000  H
  C21      1.0000 0.51776  0.66776  0.52790  Biso   1.000  C
  H12      1.0000 0.49040  0.65590  0.49300  Biso   1.000  H
  C22      1.0000 0.54334  0.62818  0.71640  Biso   1.000  C
  H13      1.0000 0.58090  0.77040  0.28700  Biso   1.000  H
  Zn2      1.0000 0.29185  0.18709  0.85263  Biso   1.000  Zn
  N4       1.0000 0.30209  0.22711  0.75350  Biso   1.000  N
  N5       1.0000 0.26549  0.12609  0.77803  Biso   1.000  N
  N6       1.0000 0.24824  0.10229  0.66151  Biso   1.000  N
  O5       1.0000 0.14373  0.82538  0.57635  Biso   1.000  O
  O6       1.0000 0.11474  0.85684  0.48811  Biso   1.000  O
  O7       1.0000 0.24868  0.96800  0.08513  Biso   1.000  O
  O8       1.0000 0.16429  0.92785  0.06870  Biso   1.000  O
  C23      1.0000 0.31720  0.27733  0.74533  Biso   1.000  C
  H14      1.0000 0.32707  0.29873  0.78803  Biso   1.000  H
  C24      1.0000 0.31897  0.29917  0.67673  Biso   1.000  C
  H15      1.0000 0.32907  0.33473  0.67283  Biso   1.000  H
  C25      1.0000 0.30577  0.26860  0.61443  Biso   1.000  C
  H16      1.0000 0.30737  0.28293  0.56693  Biso   1.000  H
  C26      1.0000 0.29017  0.21652  0.62183  Biso   1.000  C
  H17      1.0000 0.28127  0.19483  0.57963  Biso   1.000  H
  C27      1.0000 0.28797  0.19690  0.69199  Biso   1.000  C
  C28      1.0000 0.26883  0.14272  0.70867  Biso   1.000  C
  C29      1.0000 0.24180  0.07317  0.77519  Biso   1.000  C
  C30      1.0000 0.23052  0.05715  0.70192  Biso   1.000  C
  C31      1.0000 0.20587  0.00661  0.66441  Biso   1.000  C
  C32      1.0000 0.18166  0.00044  0.59573  Biso   1.000  C
  H18      1.0000 0.18107  0.02903  0.57373  Biso   1.000  H
  C33      1.0000 0.15881  0.95367  0.55976  Biso   1.000  C
  H19      1.0000 0.14247  0.95033  0.51333  Biso   1.000  H
  C34      1.0000 0.15913  0.91083  0.59034  Biso   1.000  C
  C35      1.0000 0.18349  0.91668  0.65899  Biso   1.000  C
  H20      1.0000 0.18447  0.88813  0.68053  Biso   1.000  H
  C36      1.0000 0.20620  0.96381  0.69572  Biso   1.000  C
  H21      1.0000 0.22207  0.96713  0.74243  Biso   1.000  H
  C37      1.0000 0.13654  0.86059  0.54775  Biso   1.000  C
  C38      1.0000 0.23221  0.04373  0.84467  Biso   1.000  C
  C39      1.0000 0.27227  0.06080  0.89660  Biso   1.000  C
  H22      1.0000 0.30487  0.09023  0.88603  Biso   1.000  H
  C40      1.0000 0.26455  0.03490  0.96352  Biso   1.000  C
  H23      1.0000 0.29187  0.04663  0.99843  Biso   1.000  H
  C41      1.0000 0.21669  0.99172  0.97940  Biso   1.000  C
  C42      1.0000 0.17633  0.97547  0.92883  Biso   1.000  C
  H24      1.0000 0.14327  0.94693  0.94033  Biso   1.000  H
  C43      1.0000 0.18443  0.00109  0.86123  Biso   1.000  C
  H25      1.0000 0.15707  0.98923  0.82633  Biso   1.000  H
  C44      1.0000 0.21001  0.96151  0.04973  Biso   1.000  C
  H26      1.0000 0.24757  0.10373  0.62033  Biso   1.000  H
  Zn3      1.0000 0.95851  0.52043  0.18597  Biso   1.000  Zn
  N7       1.0000 0.96875  0.56045  0.08684  Biso   1.000  N
  N8       1.0000 0.93215  0.45943  0.11137  Biso   1.000  N
  N9       1.0000 0.91490  0.43563  0.99485  Biso   1.000  N
  O9       1.0000 0.81039  0.15872  0.90969  Biso   1.000  O
  O10      1.0000 0.78140  0.19018  0.82145  Biso   1.000  O
  O11      1.0000 0.91534  0.30134  0.41847  Biso   1.000  O
  O12      1.0000 0.83095  0.26119  0.40204  Biso   1.000  O
  C45      1.0000 0.98386  0.61067  0.07867  Biso   1.000  C
  H27      1.0000 0.99373  0.63207  0.12137  Biso   1.000  H
  C46      1.0000 0.98563  0.63251  0.01007  Biso   1.000  C
  H28      1.0000 0.99573  0.66807  0.00617  Biso   1.000  H
  C47      1.0000 0.97243  0.60194  0.94777  Biso   1.000  C
  H29      1.0000 0.97403  0.61627  0.90027  Biso   1.000  H
  C48      1.0000 0.95683  0.54986  0.95517  Biso   1.000  C
  H30      1.0000 0.94793  0.52817  0.91297  Biso   1.000  H
  C49      1.0000 0.95463  0.53024  0.02533  Biso   1.000  C
  C50      1.0000 0.93549  0.47606  0.04201  Biso   1.000  C
  C51      1.0000 0.90846  0.40651  0.10853  Biso   1.000  C
  C52      1.0000 0.89718  0.39049  0.03526  Biso   1.000  C
  C53      1.0000 0.87253  0.33995  0.99775  Biso   1.000  C
  C54      1.0000 0.84832  0.33378  0.92907  Biso   1.000  C
  H31      1.0000 0.84773  0.36237  0.90707  Biso   1.000  H
  C55      1.0000 0.82547  0.28701  0.89310  Biso   1.000  C
  H32      1.0000 0.80913  0.28367  0.84667  Biso   1.000  H
  C56      1.0000 0.82579  0.24417  0.92368  Biso   1.000  C
  C57      1.0000 0.85015  0.25002  0.99233  Biso   1.000  C
  H33      1.0000 0.85113  0.22147  0.01387  Biso   1.000  H
  C58      1.0000 0.87286  0.29715  0.02906  Biso   1.000  C
  H34      1.0000 0.88873  0.30047  0.07577  Biso   1.000  H
  C59      1.0000 0.80320  0.19393  0.88109  Biso   1.000  C
  C60      1.0000 0.89887  0.37707  0.17801  Biso   1.000  C
  C61      1.0000 0.93893  0.39414  0.22994  Biso   1.000  C
  H35      1.0000 0.97153  0.42357  0.21937  Biso   1.000  H
  C62      1.0000 0.93121  0.36824  0.29686  Biso   1.000  C
  H36      1.0000 0.95853  0.37997  0.33177  Biso   1.000  H
  C63      1.0000 0.88335  0.32506  0.31274  Biso   1.000  C
  C64      1.0000 0.84299  0.30881  0.26217  Biso   1.000  C
  H37      1.0000 0.80993  0.28027  0.27367  Biso   1.000  H
  C65      1.0000 0.85109  0.33443  0.19457  Biso   1.000  C
  H38      1.0000 0.82373  0.32257  0.15967  Biso   1.000  H
  C66      1.0000 0.87667  0.29485  0.38307  Biso   1.000  C
  H39      1.0000 0.91423  0.43707  0.95367  Biso   1.000  H
  Zn4      1.0000 0.14624  0.77142  0.51930  Biso   1.000  Zn
  N10      1.0000 0.10622  0.74164  0.42017  Biso   1.000  N
  N11      1.0000 0.20724  0.80606  0.44470  Biso   1.000  N
  N12      1.0000 0.23104  0.81261  0.32818  Biso   1.000  N
  O13      1.0000 0.50795  0.98501  0.24302  Biso   1.000  O
  O14      1.0000 0.47649  0.92456  0.15478  Biso   1.000  O
  O15      1.0000 0.36533  0.94734  0.75180  Biso   1.000  O
  O16      1.0000 0.40548  0.90310  0.73537  Biso   1.000  O
  C67      1.0000 0.05600  0.70653  0.41200  Biso   1.000  C
  H40      1.0000 0.03460  0.69500  0.45470  Biso   1.000  H
  C68      1.0000 0.03416  0.68646  0.34340  Biso   1.000  C
  H41      1.0000 0.99860  0.66100  0.33950  Biso   1.000  H
  C69      1.0000 0.06473  0.70383  0.28110  Biso   1.000  C
  H42      1.0000 0.05040  0.69110  0.23360  Biso   1.000  H
  C70      1.0000 0.11681  0.74031  0.28850  Biso   1.000  C
  H43      1.0000 0.13850  0.75310  0.24630  Biso   1.000  H
  C71      1.0000 0.13643  0.75773  0.35866  Biso   1.000  C
  C72      1.0000 0.19061  0.79277  0.37534  Biso   1.000  C
  C73      1.0000 0.26016  0.83529  0.44186  Biso   1.000  C
  C74      1.0000 0.27618  0.84003  0.36859  Biso   1.000  C
  C75      1.0000 0.32672  0.86592  0.33108  Biso   1.000  C
  C76      1.0000 0.33289  0.84788  0.26240  Biso   1.000  C
  H44      1.0000 0.30430  0.81870  0.24040  Biso   1.000  H
  C77      1.0000 0.37966  0.87180  0.22643  Biso   1.000  C
  H45      1.0000 0.38300  0.85880  0.18000  Biso   1.000  H
  C78      1.0000 0.42250  0.91496  0.25701  Biso   1.000  C
  C79      1.0000 0.41665  0.93347  0.32566  Biso   1.000  C
  H46      1.0000 0.44520  0.96300  0.34720  Biso   1.000  H
  C80      1.0000 0.36952  0.90905  0.36239  Biso   1.000  C
  H47      1.0000 0.36620  0.92160  0.40910  Biso   1.000  H
  C81      1.0000 0.47274  0.94261  0.21442  Biso   1.000  C
  C82      1.0000 0.28960  0.85514  0.51134  Biso   1.000  C
  C83      1.0000 0.27253  0.87813  0.56327  Biso   1.000  C
  H48      1.0000 0.24310  0.88130  0.55270  Biso   1.000  H
  C84      1.0000 0.29843  0.89631  0.63019  Biso   1.000  C
  H49      1.0000 0.28670  0.91190  0.66510  Biso   1.000  H
  C85      1.0000 0.34161  0.89163  0.64607  Biso   1.000  C
  C86      1.0000 0.35786  0.86752  0.59550  Biso   1.000  C
  H50      1.0000 0.38640  0.86300  0.60700  Biso   1.000  H
  C87      1.0000 0.33224  0.85000  0.52790  Biso   1.000  C
  H51      1.0000 0.34410  0.83450  0.49300  Biso   1.000  H
  C88      1.0000 0.37182  0.91516  0.71640  Biso   1.000  C
  H52      1.0000 0.22960  0.81050  0.28700  Biso   1.000  H
  Zn5      1.0000 0.81291  0.10475  0.85263  Biso   1.000  Zn
  N13      1.0000 0.77289  0.07497  0.75350  Biso   1.000  N
  N14      1.0000 0.87391  0.13939  0.77803  Biso   1.000  N
  N15      1.0000 0.89771  0.14594  0.66151  Biso   1.000  N
  O17      1.0000 0.17462  0.31834  0.57635  Biso   1.000  O
  O18      1.0000 0.14316  0.25789  0.48811  Biso   1.000  O
  O19      1.0000 0.03200  0.28067  0.08513  Biso   1.000  O
  O20      1.0000 0.07215  0.23643  0.06870  Biso   1.000  O
  C89      1.0000 0.72267  0.03986  0.74533  Biso   1.000  C
  H53      1.0000 0.70127  0.02833  0.78803  Biso   1.000  H
  C90      1.0000 0.70083  0.01979  0.67673  Biso   1.000  C
  H54      1.0000 0.66527  0.99433  0.67283  Biso   1.000  H
  C91      1.0000 0.73140  0.03716  0.61443  Biso   1.000  C
  H55      1.0000 0.71707  0.02443  0.56693  Biso   1.000  H
  C92      1.0000 0.78348  0.07364  0.62183  Biso   1.000  C
  H56      1.0000 0.80517  0.08643  0.57963  Biso   1.000  H
  C93      1.0000 0.80310  0.09106  0.69199  Biso   1.000  C
  C94      1.0000 0.85728  0.12610  0.70867  Biso   1.000  C
  C95      1.0000 0.92683  0.16862  0.77519  Biso   1.000  C
  C96      1.0000 0.94285  0.17336  0.70192  Biso   1.000  C
  C97      1.0000 0.99339  0.19925  0.66441  Biso   1.000  C
  C98      1.0000 0.99956  0.18121  0.59573  Biso   1.000  C
  H57      1.0000 0.97097  0.15203  0.57373  Biso   1.000  H
  C99      1.0000 0.04633  0.20513  0.55976  Biso   1.000  C
  H58      1.0000 0.04967  0.19213  0.51333  Biso   1.000  H
  C100     1.0000 0.08917  0.24829  0.59034  Biso   1.000  C
  C101     1.0000 0.08332  0.26680  0.65899  Biso   1.000  C
  H59      1.0000 0.11187  0.29633  0.68053  Biso   1.000  H
  C102     1.0000 0.03619  0.24238  0.69572  Biso   1.000  C
  H60      1.0000 0.03287  0.25493  0.74243  Biso   1.000  H
  C103     1.0000 0.13941  0.27594  0.54775  Biso   1.000  C
  C104     1.0000 0.95627  0.18847  0.84467  Biso   1.000  C
  C105     1.0000 0.93920  0.21146  0.89660  Biso   1.000  C
  H61      1.0000 0.90977  0.21463  0.88603  Biso   1.000  H
  C106     1.0000 0.96510  0.22964  0.96352  Biso   1.000  C
  H62      1.0000 0.95337  0.24523  0.99843  Biso   1.000  H
  C107     1.0000 0.00828  0.22496  0.97940  Biso   1.000  C
  C108     1.0000 0.02453  0.20085  0.92883  Biso   1.000  C
  H63      1.0000 0.05307  0.19633  0.94033  Biso   1.000  H
  C109     1.0000 0.99891  0.18333  0.86123  Biso   1.000  C
  H64      1.0000 0.01077  0.16783  0.82633  Biso   1.000  H
  C110     1.0000 0.03849  0.24849  0.04973  Biso   1.000  C
  H65      1.0000 0.89627  0.14383  0.62033  Biso   1.000  H
  Zn6      1.0000 0.47957  0.43809  0.18597  Biso   1.000  Zn
  N16      1.0000 0.43955  0.40831  0.08684  Biso   1.000  N
  N17      1.0000 0.54057  0.47273  0.11137  Biso   1.000  N
  N18      1.0000 0.56437  0.47928  0.99485  Biso   1.000  N
  O21      1.0000 0.84128  0.65168  0.90969  Biso   1.000  O
  O22      1.0000 0.80982  0.59123  0.82145  Biso   1.000  O
  O23      1.0000 0.69866  0.61401  0.41847  Biso   1.000  O
  O24      1.0000 0.73881  0.56977  0.40204  Biso   1.000  O
  C111     1.0000 0.38933  0.37320  0.07867  Biso   1.000  C
  H66      1.0000 0.36793  0.36167  0.12137  Biso   1.000  H
  C112     1.0000 0.36749  0.35313  0.01007  Biso   1.000  C
  H67      1.0000 0.33193  0.32767  0.00617  Biso   1.000  H
  C113     1.0000 0.39806  0.37050  0.94777  Biso   1.000  C
  H68      1.0000 0.38373  0.35777  0.90027  Biso   1.000  H
  C114     1.0000 0.45014  0.40698  0.95517  Biso   1.000  C
  H69      1.0000 0.47183  0.41977  0.91297  Biso   1.000  H
  C115     1.0000 0.46976  0.42440  0.02533  Biso   1.000  C
  C116     1.0000 0.52394  0.45944  0.04201  Biso   1.000  C
  C117     1.0000 0.59349  0.50196  0.10853  Biso   1.000  C
  C118     1.0000 0.60951  0.50670  0.03526  Biso   1.000  C
  C119     1.0000 0.66005  0.53259  0.99775  Biso   1.000  C
  C120     1.0000 0.66622  0.51455  0.92907  Biso   1.000  C
  H70      1.0000 0.63763  0.48537  0.90707  Biso   1.000  H
  C121     1.0000 0.71299  0.53847  0.89310  Biso   1.000  C
  H71      1.0000 0.71633  0.52547  0.84667  Biso   1.000  H
  C122     1.0000 0.75583  0.58163  0.92368  Biso   1.000  C
  C123     1.0000 0.74998  0.60014  0.99233  Biso   1.000  C
  H72      1.0000 0.77853  0.62967  0.01387  Biso   1.000  H
  C124     1.0000 0.70285  0.57572  0.02906  Biso   1.000  C
  H73      1.0000 0.69953  0.58827  0.07577  Biso   1.000  H
  C125     1.0000 0.80607  0.60928  0.88109  Biso   1.000  C
  C126     1.0000 0.62293  0.52181  0.17801  Biso   1.000  C
  C127     1.0000 0.60586  0.54480  0.22994  Biso   1.000  C
  H74      1.0000 0.57643  0.54797  0.21937  Biso   1.000  H
  C128     1.0000 0.63176  0.56298  0.29686  Biso   1.000  C
  H75      1.0000 0.62003  0.57857  0.33177  Biso   1.000  H
  C129     1.0000 0.67494  0.55830  0.31274  Biso   1.000  C
  C130     1.0000 0.69119  0.53419  0.26217  Biso   1.000  C
  H76      1.0000 0.71973  0.52967  0.27367  Biso   1.000  H
  C131     1.0000 0.66557  0.51667  0.19457  Biso   1.000  C
  H77      1.0000 0.67743  0.50117  0.15967  Biso   1.000  H
  C132     1.0000 0.70515  0.58183  0.38307  Biso   1.000  C
  H78      1.0000 0.56293  0.47717  0.95367  Biso   1.000  H
  Zn7      1.0000 0.22858  0.37482  0.51930  Biso   1.000  Zn
  N19      1.0000 0.25836  0.36458  0.42017  Biso   1.000  N
  N20      1.0000 0.19394  0.40118  0.44470  Biso   1.000  N
  N21      1.0000 0.18739  0.41843  0.32818  Biso   1.000  N
  O25      1.0000 0.01499  0.52294  0.24302  Biso   1.000  O
  O26      1.0000 0.07544  0.55193  0.15478  Biso   1.000  O
  O27      1.0000 0.05266  0.41799  0.75180  Biso   1.000  O
  O28      1.0000 0.09690  0.50238  0.73537  Biso   1.000  O
  C133     1.0000 0.29347  0.34947  0.41200  Biso   1.000  C
  H79      1.0000 0.30500  0.33960  0.45470  Biso   1.000  H
  C134     1.0000 0.31354  0.34770  0.34340  Biso   1.000  C
  H80      1.0000 0.33900  0.33760  0.33950  Biso   1.000  H
  C135     1.0000 0.29617  0.36090  0.28110  Biso   1.000  C
  H81      1.0000 0.30890  0.35930  0.23360  Biso   1.000  H
  C136     1.0000 0.25969  0.37650  0.28850  Biso   1.000  C
  H82      1.0000 0.24690  0.38540  0.24630  Biso   1.000  H
  C137     1.0000 0.24227  0.37870  0.35866  Biso   1.000  C
  C138     1.0000 0.20723  0.39784  0.37534  Biso   1.000  C
  C139     1.0000 0.16471  0.42487  0.44186  Biso   1.000  C
  C140     1.0000 0.15997  0.43615  0.36859  Biso   1.000  C
  C141     1.0000 0.13408  0.46080  0.33108  Biso   1.000  C
  C142     1.0000 0.15212  0.48501  0.26240  Biso   1.000  C
  H83      1.0000 0.18130  0.48560  0.24040  Biso   1.000  H
  C143     1.0000 0.12820  0.50786  0.22643  Biso   1.000  C
  H84      1.0000 0.14120  0.52420  0.18000  Biso   1.000  H
  C144     1.0000 0.08504  0.50754  0.25701  Biso   1.000  C
  C145     1.0000 0.06653  0.48318  0.32566  Biso   1.000  C
  H85      1.0000 0.03700  0.48220  0.34720  Biso   1.000  H
  C146     1.0000 0.09095  0.46047  0.36239  Biso   1.000  C
  H86      1.0000 0.07840  0.44460  0.40910  Biso   1.000  H
  C147     1.0000 0.05739  0.53013  0.21442  Biso   1.000  C
  C148     1.0000 0.14486  0.43446  0.51134  Biso   1.000  C
  C149     1.0000 0.12187  0.39440  0.56327  Biso   1.000  C
  H87      1.0000 0.11870  0.36180  0.55270  Biso   1.000  H
  C150     1.0000 0.10369  0.40212  0.63019  Biso   1.000  C
  H88      1.0000 0.08810  0.37480  0.66510  Biso   1.000  H
  C151     1.0000 0.10837  0.44998  0.64607  Biso   1.000  C
  C152     1.0000 0.13248  0.49034  0.59550  Biso   1.000  C
  H89      1.0000 0.13700  0.52340  0.60700  Biso   1.000  H
  C153     1.0000 0.15000  0.48224  0.52790  Biso   1.000  C
  H90      1.0000 0.16550  0.50960  0.49300  Biso   1.000  H
  C154     1.0000 0.08484  0.45666  0.71640  Biso   1.000  C
  H91      1.0000 0.18950  0.41910  0.28700  Biso   1.000  H
  Zn8      1.0000 0.89525  0.70815  0.85263  Biso   1.000  Zn
  N22      1.0000 0.92503  0.69791  0.75350  Biso   1.000  N
  N23      1.0000 0.86061  0.73451  0.77803  Biso   1.000  N
  N24      1.0000 0.85406  0.75176  0.66151  Biso   1.000  N
  O29      1.0000 0.68166  0.85627  0.57635  Biso   1.000  O
  O30      1.0000 0.74211  0.88526  0.48811  Biso   1.000  O
  O31      1.0000 0.71933  0.75132  0.08513  Biso   1.000  O
  O32      1.0000 0.76357  0.83571  0.06870  Biso   1.000  O
  C155     1.0000 0.96014  0.68280  0.74533  Biso   1.000  C
  H92      1.0000 0.97167  0.67293  0.78803  Biso   1.000  H
  C156     1.0000 0.98021  0.68103  0.67673  Biso   1.000  C
  H93      1.0000 0.00567  0.67093  0.67283  Biso   1.000  H
  C157     1.0000 0.96284  0.69423  0.61443  Biso   1.000  C
  H94      1.0000 0.97557  0.69263  0.56693  Biso   1.000  H
  C158     1.0000 0.92636  0.70983  0.62183  Biso   1.000  C
  H95      1.0000 0.91357  0.71873  0.57963  Biso   1.000  H
  C159     1.0000 0.90894  0.71203  0.69199  Biso   1.000  C
  C160     1.0000 0.87390  0.73117  0.70867  Biso   1.000  C
  C161     1.0000 0.83138  0.75820  0.77519  Biso   1.000  C
  C162     1.0000 0.82664  0.76948  0.70192  Biso   1.000  C
  C163     1.0000 0.80075  0.79413  0.66441  Biso   1.000  C
  C164     1.0000 0.81879  0.81834  0.59573  Biso   1.000  C
  H96      1.0000 0.84797  0.81893  0.57373  Biso   1.000  H
  C165     1.0000 0.79487  0.84119  0.55976  Biso   1.000  C
  H97      1.0000 0.80787  0.85753  0.51333  Biso   1.000  H
  C166     1.0000 0.75171  0.84087  0.59034  Biso   1.000  C
  C167     1.0000 0.73320  0.81651  0.65899  Biso   1.000  C
  H98      1.0000 0.70367  0.81553  0.68053  Biso   1.000  H
  C168     1.0000 0.75762  0.79380  0.69572  Biso   1.000  C
  H99      1.0000 0.74507  0.77793  0.74243  Biso   1.000  H
  C169     1.0000 0.72406  0.86346  0.54775  Biso   1.000  C
  C170     1.0000 0.81153  0.76779  0.84467  Biso   1.000  C
  C171     1.0000 0.78854  0.72773  0.89660  Biso   1.000  C
  H100     1.0000 0.78537  0.69513  0.88603  Biso   1.000  H
  C172     1.0000 0.77036  0.73545  0.96352  Biso   1.000  C
  H101     1.0000 0.75477  0.70813  0.99843  Biso   1.000  H
  C173     1.0000 0.77504  0.78331  0.97940  Biso   1.000  C
  C174     1.0000 0.79915  0.82367  0.92883  Biso   1.000  C
  H102     1.0000 0.80367  0.85673  0.94033  Biso   1.000  H
  C175     1.0000 0.81667  0.81557  0.86123  Biso   1.000  C
  H103     1.0000 0.83217  0.84293  0.82633  Biso   1.000  H
  C176     1.0000 0.75151  0.78999  0.04973  Biso   1.000  C
  H104     1.0000 0.85617  0.75243  0.62033  Biso   1.000  H
  Zn9      1.0000 0.56191  0.04149  0.18597  Biso   1.000  Zn
  N25      1.0000 0.59169  0.03125  0.08684  Biso   1.000  N
  N26      1.0000 0.52727  0.06785  0.11137  Biso   1.000  N
  N27      1.0000 0.52072  0.08510  0.99485  Biso   1.000  N
  O33      1.0000 0.34832  0.18961  0.90969  Biso   1.000  O
  O34      1.0000 0.40877  0.21860  0.82145  Biso   1.000  O
  O35      1.0000 0.38599  0.08466  0.41847  Biso   1.000  O
  O36      1.0000 0.43023  0.16905  0.40204  Biso   1.000  O
  C177     1.0000 0.62680  0.01614  0.07867  Biso   1.000  C
  H105     1.0000 0.63833  0.00627  0.12137  Biso   1.000  H
  C178     1.0000 0.64687  0.01437  0.01007  Biso   1.000  C
  H106     1.0000 0.67233  0.00427  0.00617  Biso   1.000  H
  C179     1.0000 0.62950  0.02757  0.94777  Biso   1.000  C
  H107     1.0000 0.64223  0.02597  0.90027  Biso   1.000  H
  C180     1.0000 0.59302  0.04317  0.95517  Biso   1.000  C
  H108     1.0000 0.58023  0.05207  0.91297  Biso   1.000  H
  C181     1.0000 0.57560  0.04537  0.02533  Biso   1.000  C
  C182     1.0000 0.54056  0.06451  0.04201  Biso   1.000  C
  C183     1.0000 0.49804  0.09154  0.10853  Biso   1.000  C
  C184     1.0000 0.49330  0.10282  0.03526  Biso   1.000  C
  C185     1.0000 0.46741  0.12747  0.99775  Biso   1.000  C
  C186     1.0000 0.48545  0.15168  0.92907  Biso   1.000  C
  H109     1.0000 0.51463  0.15227  0.90707  Biso   1.000  H
  C187     1.0000 0.46153  0.17453  0.89310  Biso   1.000  C
  H110     1.0000 0.47453  0.19087  0.84667  Biso   1.000  H
  C188     1.0000 0.41837  0.17421  0.92368  Biso   1.000  C
  C189     1.0000 0.39986  0.14985  0.99233  Biso   1.000  C
  H111     1.0000 0.37033  0.14887  0.01387  Biso   1.000  H
  C190     1.0000 0.42428  0.12714  0.02906  Biso   1.000  C
  H112     1.0000 0.41173  0.11127  0.07577  Biso   1.000  H
  C191     1.0000 0.39072  0.19680  0.88109  Biso   1.000  C
  C192     1.0000 0.47819  0.10113  0.17801  Biso   1.000  C
  C193     1.0000 0.45520  0.06107  0.22994  Biso   1.000  C
  H113     1.0000 0.45203  0.02847  0.21937  Biso   1.000  H
  C194     1.0000 0.43702  0.06879  0.29686  Biso   1.000  C
  H114     1.0000 0.42143  0.04147  0.33177  Biso   1.000  H
  C195     1.0000 0.44170  0.11665  0.31274  Biso   1.000  C
  C196     1.0000 0.46581  0.15701  0.26217  Biso   1.000  C
  H115     1.0000 0.47033  0.19007  0.27367  Biso   1.000  H
  C197     1.0000 0.48333  0.14891  0.19457  Biso   1.000  C
  H116     1.0000 0.49883  0.17627  0.15967  Biso   1.000  H
  C198     1.0000 0.41817  0.12333  0.38307  Biso   1.000  C
  H117     1.0000 0.52283  0.08577  0.95367  Biso   1.000  H
  Zn10     1.0000 0.37482  0.14624  0.48070  Biso   1.000  Zn
  N28      1.0000 0.36458  0.10622  0.57983  Biso   1.000  N
  N29      1.0000 0.40118  0.20724  0.55530  Biso   1.000  N
  N30      1.0000 0.41843  0.23104  0.67182  Biso   1.000  N
  O37      1.0000 0.52294  0.50795  0.75698  Biso   1.000  O
  O38      1.0000 0.55193  0.47649  0.84522  Biso   1.000  O
  O39      1.0000 0.41799  0.36533  0.24820  Biso   1.000  O
  O40      1.0000 0.50238  0.40548  0.26463  Biso   1.000  O
  C199     1.0000 0.34947  0.05600  0.58800  Biso   1.000  C
  H118     1.0000 0.33960  0.03460  0.54530  Biso   1.000  H
  C200     1.0000 0.34770  0.03416  0.65660  Biso   1.000  C
  H119     1.0000 0.33760  0.99860  0.66050  Biso   1.000  H
  C201     1.0000 0.36090  0.06473  0.71890  Biso   1.000  C
  H120     1.0000 0.35930  0.05040  0.76640  Biso   1.000  H
  C202     1.0000 0.37650  0.11681  0.71150  Biso   1.000  C
  H121     1.0000 0.38540  0.13850  0.75370  Biso   1.000  H
  C203     1.0000 0.37870  0.13643  0.64134  Biso   1.000  C
  C204     1.0000 0.39784  0.19061  0.62466  Biso   1.000  C
  C205     1.0000 0.42487  0.26016  0.55814  Biso   1.000  C
  C206     1.0000 0.43615  0.27618  0.63141  Biso   1.000  C
  C207     1.0000 0.46080  0.32672  0.66892  Biso   1.000  C
  C208     1.0000 0.48501  0.33289  0.73760  Biso   1.000  C
  H122     1.0000 0.48560  0.30430  0.75960  Biso   1.000  H
  C209     1.0000 0.50786  0.37966  0.77357  Biso   1.000  C
  H123     1.0000 0.52420  0.38300  0.82000  Biso   1.000  H
  C210     1.0000 0.50754  0.42250  0.74299  Biso   1.000  C
  C211     1.0000 0.48318  0.41665  0.67434  Biso   1.000  C
  H124     1.0000 0.48220  0.44520  0.65280  Biso   1.000  H
  C212     1.0000 0.46047  0.36952  0.63761  Biso   1.000  C
  H125     1.0000 0.44460  0.36620  0.59090  Biso   1.000  H
  C213     1.0000 0.53013  0.47274  0.78558  Biso   1.000  C
  C214     1.0000 0.43446  0.28960  0.48866  Biso   1.000  C
  C215     1.0000 0.39440  0.27253  0.43673  Biso   1.000  C
  H126     1.0000 0.36180  0.24310  0.44730  Biso   1.000  H
  C216     1.0000 0.40212  0.29843  0.36981  Biso   1.000  C
  H127     1.0000 0.37480  0.28670  0.33490  Biso   1.000  H
  C217     1.0000 0.44998  0.34161  0.35393  Biso   1.000  C
  C218     1.0000 0.49034  0.35786  0.40450  Biso   1.000  C
  H128     1.0000 0.52340  0.38640  0.39300  Biso   1.000  H
  C219     1.0000 0.48224  0.33224  0.47210  Biso   1.000  C
  H129     1.0000 0.50960  0.34410  0.50700  Biso   1.000  H
  C220     1.0000 0.45666  0.37182  0.28360  Biso   1.000  C
  H130     1.0000 0.41910  0.22960  0.71300  Biso   1.000  H
  Zn11     1.0000 0.04149  0.47957  0.81403  Biso   1.000  Zn
  N31      1.0000 0.03125  0.43955  0.91316  Biso   1.000  N
  N32      1.0000 0.06785  0.54057  0.88863  Biso   1.000  N
  N33      1.0000 0.08510  0.56437  0.00515  Biso   1.000  N
  O41      1.0000 0.18961  0.84128  0.09031  Biso   1.000  O
  O42      1.0000 0.21860  0.80982  0.17855  Biso   1.000  O
  O43      1.0000 0.08466  0.69866  0.58153  Biso   1.000  O
  O44      1.0000 0.16905  0.73881  0.59796  Biso   1.000  O
  C221     1.0000 0.01614  0.38933  0.92133  Biso   1.000  C
  H131     1.0000 0.00627  0.36793  0.87863  Biso   1.000  H
  C222     1.0000 0.01437  0.36749  0.98993  Biso   1.000  C
  H132     1.0000 0.00427  0.33193  0.99383  Biso   1.000  H
  C223     1.0000 0.02757  0.39806  0.05223  Biso   1.000  C
  H133     1.0000 0.02597  0.38373  0.09973  Biso   1.000  H
  C224     1.0000 0.04317  0.45014  0.04483  Biso   1.000  C
  H134     1.0000 0.05207  0.47183  0.08703  Biso   1.000  H
  C225     1.0000 0.04537  0.46976  0.97467  Biso   1.000  C
  C226     1.0000 0.06451  0.52394  0.95799  Biso   1.000  C
  C227     1.0000 0.09154  0.59349  0.89147  Biso   1.000  C
  C228     1.0000 0.10282  0.60951  0.96474  Biso   1.000  C
  C229     1.0000 0.12747  0.66005  0.00225  Biso   1.000  C
  C230     1.0000 0.15168  0.66622  0.07093  Biso   1.000  C
  H135     1.0000 0.15227  0.63763  0.09293  Biso   1.000  H
  C231     1.0000 0.17453  0.71299  0.10690  Biso   1.000  C
  H136     1.0000 0.19087  0.71633  0.15333  Biso   1.000  H
  C232     1.0000 0.17421  0.75583  0.07632  Biso   1.000  C
  C233     1.0000 0.14985  0.74998  0.00767  Biso   1.000  C
  H137     1.0000 0.14887  0.77853  0.98613  Biso   1.000  H
  C234     1.0000 0.12714  0.70285  0.97094  Biso   1.000  C
  H138     1.0000 0.11127  0.69953  0.92423  Biso   1.000  H
  C235     1.0000 0.19680  0.80607  0.11891  Biso   1.000  C
  C236     1.0000 0.10113  0.62293  0.82199  Biso   1.000  C
  C237     1.0000 0.06107  0.60586  0.77006  Biso   1.000  C
  H139     1.0000 0.02847  0.57643  0.78063  Biso   1.000  H
  C238     1.0000 0.06879  0.63176  0.70314  Biso   1.000  C
  H140     1.0000 0.04147  0.62003  0.66823  Biso   1.000  H
  C239     1.0000 0.11665  0.67494  0.68726  Biso   1.000  C
  C240     1.0000 0.15701  0.69119  0.73783  Biso   1.000  C
  H141     1.0000 0.19007  0.71973  0.72633  Biso   1.000  H
  C241     1.0000 0.14891  0.66557  0.80543  Biso   1.000  C
  H142     1.0000 0.17627  0.67743  0.84033  Biso   1.000  H
  C242     1.0000 0.12333  0.70515  0.61693  Biso   1.000  C
  H143     1.0000 0.08577  0.56293  0.04633  Biso   1.000  H
  Zn12     1.0000 0.70815  0.81291  0.14737  Biso   1.000  Zn
  N34      1.0000 0.69791  0.77289  0.24650  Biso   1.000  N
  N35      1.0000 0.73451  0.87391  0.22197  Biso   1.000  N
  N36      1.0000 0.75176  0.89771  0.33849  Biso   1.000  N
  O45      1.0000 0.85627  0.17462  0.42365  Biso   1.000  O
  O46      1.0000 0.88526  0.14316  0.51189  Biso   1.000  O
  O47      1.0000 0.75132  0.03200  0.91487  Biso   1.000  O
  O48      1.0000 0.83571  0.07215  0.93130  Biso   1.000  O
  C243     1.0000 0.68280  0.72267  0.25467  Biso   1.000  C
  H144     1.0000 0.67293  0.70127  0.21197  Biso   1.000  H
  C244     1.0000 0.68103  0.70083  0.32327  Biso   1.000  C
  H145     1.0000 0.67093  0.66527  0.32717  Biso   1.000  H
  C245     1.0000 0.69423  0.73140  0.38557  Biso   1.000  C
  H146     1.0000 0.69263  0.71707  0.43307  Biso   1.000  H
  C246     1.0000 0.70983  0.78348  0.37817  Biso   1.000  C
  H147     1.0000 0.71873  0.80517  0.42037  Biso   1.000  H
  C247     1.0000 0.71203  0.80310  0.30801  Biso   1.000  C
  C248     1.0000 0.73117  0.85728  0.29133  Biso   1.000  C
  C249     1.0000 0.75820  0.92683  0.22481  Biso   1.000  C
  C250     1.0000 0.76948  0.94285  0.29808  Biso   1.000  C
  C251     1.0000 0.79413  0.99339  0.33559  Biso   1.000  C
  C252     1.0000 0.81834  0.99956  0.40427  Biso   1.000  C
  H148     1.0000 0.81893  0.97097  0.42627  Biso   1.000  H
  C253     1.0000 0.84119  0.04633  0.44024  Biso   1.000  C
  H149     1.0000 0.85753  0.04967  0.48667  Biso   1.000  H
  C254     1.0000 0.84087  0.08917  0.40966  Biso   1.000  C
  C255     1.0000 0.81651  0.08332  0.34101  Biso   1.000  C
  H150     1.0000 0.81553  0.11187  0.31947  Biso   1.000  H
  C256     1.0000 0.79380  0.03619  0.30428  Biso   1.000  C
  H151     1.0000 0.77793  0.03287  0.25757  Biso   1.000  H
  C257     1.0000 0.86346  0.13941  0.45225  Biso   1.000  C
  C258     1.0000 0.76779  0.95627  0.15533  Biso   1.000  C
  C259     1.0000 0.72773  0.93920  0.10340  Biso   1.000  C
  H152     1.0000 0.69513  0.90977  0.11397  Biso   1.000  H
  C260     1.0000 0.73545  0.96510  0.03648  Biso   1.000  C
  H153     1.0000 0.70813  0.95337  0.00157  Biso   1.000  H
  C261     1.0000 0.78331  0.00828  0.02060  Biso   1.000  C
  C262     1.0000 0.82367  0.02453  0.07117  Biso   1.000  C
  H154     1.0000 0.85673  0.05307  0.05967  Biso   1.000  H
  C263     1.0000 0.81557  0.99891  0.13877  Biso   1.000  C
  H155     1.0000 0.84293  0.01077  0.17367  Biso   1.000  H
  C264     1.0000 0.78999  0.03849  0.95027  Biso   1.000  C
  H156     1.0000 0.75243  0.89627  0.37967  Biso   1.000  H
  Zn13     1.0000 0.85376  0.22858  0.48070  Biso   1.000  Zn
  N37      1.0000 0.89378  0.25836  0.57983  Biso   1.000  N
  N38      1.0000 0.79276  0.19394  0.55530  Biso   1.000  N
  N39      1.0000 0.76896  0.18739  0.67182  Biso   1.000  N
  O49      1.0000 0.49205  0.01499  0.75698  Biso   1.000  O
  O50      1.0000 0.52351  0.07544  0.84522  Biso   1.000  O
  O51      1.0000 0.63467  0.05266  0.24820  Biso   1.000  O
  O52      1.0000 0.59452  0.09690  0.26463  Biso   1.000  O
  C265     1.0000 0.94400  0.29347  0.58800  Biso   1.000  C
  H157     1.0000 0.96540  0.30500  0.54530  Biso   1.000  H
  C266     1.0000 0.96584  0.31354  0.65660  Biso   1.000  C
  H158     1.0000 0.00140  0.33900  0.66050  Biso   1.000  H
  C267     1.0000 0.93527  0.29617  0.71890  Biso   1.000  C
  H159     1.0000 0.94960  0.30890  0.76640  Biso   1.000  H
  C268     1.0000 0.88319  0.25969  0.71150  Biso   1.000  C
  H160     1.0000 0.86150  0.24690  0.75370  Biso   1.000  H
  C269     1.0000 0.86357  0.24227  0.64134  Biso   1.000  C
  C270     1.0000 0.80939  0.20723  0.62466  Biso   1.000  C
  C271     1.0000 0.73984  0.16471  0.55814  Biso   1.000  C
  C272     1.0000 0.72382  0.15997  0.63141  Biso   1.000  C
  C273     1.0000 0.67328  0.13408  0.66892  Biso   1.000  C
  C274     1.0000 0.66711  0.15212  0.73760  Biso   1.000  C
  H161     1.0000 0.69570  0.18130  0.75960  Biso   1.000  H
  C275     1.0000 0.62034  0.12820  0.77357  Biso   1.000  C
  H162     1.0000 0.61700  0.14120  0.82000  Biso   1.000  H
  C276     1.0000 0.57750  0.08504  0.74299  Biso   1.000  C
  C277     1.0000 0.58335  0.06653  0.67434  Biso   1.000  C
  H163     1.0000 0.55480  0.03700  0.65280  Biso   1.000  H
  C278     1.0000 0.63048  0.09095  0.63761  Biso   1.000  C
  H164     1.0000 0.63380  0.07840  0.59090  Biso   1.000  H
  C279     1.0000 0.52726  0.05739  0.78558  Biso   1.000  C
  C280     1.0000 0.71040  0.14486  0.48866  Biso   1.000  C
  C281     1.0000 0.72747  0.12187  0.43673  Biso   1.000  C
  H165     1.0000 0.75690  0.11870  0.44730  Biso   1.000  H
  C282     1.0000 0.70157  0.10369  0.36981  Biso   1.000  C
  H166     1.0000 0.71330  0.08810  0.33490  Biso   1.000  H
  C283     1.0000 0.65839  0.10837  0.35393  Biso   1.000  C
  C284     1.0000 0.64214  0.13248  0.40450  Biso   1.000  C
  H167     1.0000 0.61360  0.13700  0.39300  Biso   1.000  H
  C285     1.0000 0.66776  0.15000  0.47210  Biso   1.000  C
  H168     1.0000 0.65590  0.16550  0.50700  Biso   1.000  H
  C286     1.0000 0.62818  0.08484  0.28360  Biso   1.000  C
  H169     1.0000 0.77040  0.18950  0.71300  Biso   1.000  H
  Zn14     1.0000 0.52043  0.56191  0.81403  Biso   1.000  Zn
  N40      1.0000 0.56045  0.59169  0.91316  Biso   1.000  N
  N41      1.0000 0.45943  0.52727  0.88863  Biso   1.000  N
  N42      1.0000 0.43563  0.52072  0.00515  Biso   1.000  N
  O53      1.0000 0.15872  0.34832  0.09031  Biso   1.000  O
  O54      1.0000 0.19018  0.40877  0.17855  Biso   1.000  O
  O55      1.0000 0.30134  0.38599  0.58153  Biso   1.000  O
  O56      1.0000 0.26119  0.43023  0.59796  Biso   1.000  O
  C287     1.0000 0.61067  0.62680  0.92133  Biso   1.000  C
  H170     1.0000 0.63207  0.63833  0.87863  Biso   1.000  H
  C288     1.0000 0.63251  0.64687  0.98993  Biso   1.000  C
  H171     1.0000 0.66807  0.67233  0.99383  Biso   1.000  H
  C289     1.0000 0.60194  0.62950  0.05223  Biso   1.000  C
  H172     1.0000 0.61627  0.64223  0.09973  Biso   1.000  H
  C290     1.0000 0.54986  0.59302  0.04483  Biso   1.000  C
  H173     1.0000 0.52817  0.58023  0.08703  Biso   1.000  H
  C291     1.0000 0.53024  0.57560  0.97467  Biso   1.000  C
  C292     1.0000 0.47606  0.54056  0.95799  Biso   1.000  C
  C293     1.0000 0.40651  0.49804  0.89147  Biso   1.000  C
  C294     1.0000 0.39049  0.49330  0.96474  Biso   1.000  C
  C295     1.0000 0.33995  0.46741  0.00225  Biso   1.000  C
  C296     1.0000 0.33378  0.48545  0.07093  Biso   1.000  C
  H174     1.0000 0.36237  0.51463  0.09293  Biso   1.000  H
  C297     1.0000 0.28701  0.46153  0.10690  Biso   1.000  C
  H175     1.0000 0.28367  0.47453  0.15333  Biso   1.000  H
  C298     1.0000 0.24417  0.41837  0.07632  Biso   1.000  C
  C299     1.0000 0.25002  0.39986  0.00767  Biso   1.000  C
  H176     1.0000 0.22147  0.37033  0.98613  Biso   1.000  H
  C300     1.0000 0.29715  0.42428  0.97094  Biso   1.000  C
  H177     1.0000 0.30047  0.41173  0.92423  Biso   1.000  H
  C301     1.0000 0.19393  0.39072  0.11891  Biso   1.000  C
  C302     1.0000 0.37707  0.47819  0.82199  Biso   1.000  C
  C303     1.0000 0.39414  0.45520  0.77006  Biso   1.000  C
  H178     1.0000 0.42357  0.45203  0.78063  Biso   1.000  H
  C304     1.0000 0.36824  0.43702  0.70314  Biso   1.000  C
  H179     1.0000 0.37997  0.42143  0.66823  Biso   1.000  H
  C305     1.0000 0.32506  0.44170  0.68726  Biso   1.000  C
  C306     1.0000 0.30881  0.46581  0.73783  Biso   1.000  C
  H180     1.0000 0.28027  0.47033  0.72633  Biso   1.000  H
  C307     1.0000 0.33443  0.48333  0.80543  Biso   1.000  C
  H181     1.0000 0.32257  0.49883  0.84033  Biso   1.000  H
  C308     1.0000 0.29485  0.41817  0.61693  Biso   1.000  C
  H182     1.0000 0.43707  0.52283  0.04633  Biso   1.000  H
  Zn15     1.0000 0.18709  0.89525  0.14737  Biso   1.000  Zn
  N43      1.0000 0.22711  0.92503  0.24650  Biso   1.000  N
  N44      1.0000 0.12609  0.86061  0.22197  Biso   1.000  N
  N45      1.0000 0.10229  0.85406  0.33849  Biso   1.000  N
  O57      1.0000 0.82538  0.68166  0.42365  Biso   1.000  O
  O58      1.0000 0.85684  0.74211  0.51189  Biso   1.000  O
  O59      1.0000 0.96800  0.71933  0.91487  Biso   1.000  O
  O60      1.0000 0.92785  0.76357  0.93130  Biso   1.000  O
  C309     1.0000 0.27733  0.96014  0.25467  Biso   1.000  C
  H183     1.0000 0.29873  0.97167  0.21197  Biso   1.000  H
  C310     1.0000 0.29917  0.98021  0.32327  Biso   1.000  C
  H184     1.0000 0.33473  0.00567  0.32717  Biso   1.000  H
  C311     1.0000 0.26860  0.96284  0.38557  Biso   1.000  C
  H185     1.0000 0.28293  0.97557  0.43307  Biso   1.000  H
  C312     1.0000 0.21652  0.92636  0.37817  Biso   1.000  C
  H186     1.0000 0.19483  0.91357  0.42037  Biso   1.000  H
  C313     1.0000 0.19690  0.90894  0.30801  Biso   1.000  C
  C314     1.0000 0.14272  0.87390  0.29133  Biso   1.000  C
  C315     1.0000 0.07317  0.83138  0.22481  Biso   1.000  C
  C316     1.0000 0.05715  0.82664  0.29808  Biso   1.000  C
  C317     1.0000 0.00661  0.80075  0.33559  Biso   1.000  C
  C318     1.0000 0.00044  0.81879  0.40427  Biso   1.000  C
  H187     1.0000 0.02903  0.84797  0.42627  Biso   1.000  H
  C319     1.0000 0.95367  0.79487  0.44024  Biso   1.000  C
  H188     1.0000 0.95033  0.80787  0.48667  Biso   1.000  H
  C320     1.0000 0.91083  0.75171  0.40966  Biso   1.000  C
  C321     1.0000 0.91668  0.73320  0.34101  Biso   1.000  C
  H189     1.0000 0.88813  0.70367  0.31947  Biso   1.000  H
  C322     1.0000 0.96381  0.75762  0.30428  Biso   1.000  C
  H190     1.0000 0.96713  0.74507  0.25757  Biso   1.000  H
  C323     1.0000 0.86059  0.72406  0.45225  Biso   1.000  C
  C324     1.0000 0.04373  0.81153  0.15533  Biso   1.000  C
  C325     1.0000 0.06080  0.78854  0.10340  Biso   1.000  C
  H191     1.0000 0.09023  0.78537  0.11397  Biso   1.000  H
  C326     1.0000 0.03490  0.77036  0.03648  Biso   1.000  C
  H192     1.0000 0.04663  0.75477  0.00157  Biso   1.000  H
  C327     1.0000 0.99172  0.77504  0.02060  Biso   1.000  C
  C328     1.0000 0.97547  0.79915  0.07117  Biso   1.000  C
  H193     1.0000 0.94693  0.80367  0.05967  Biso   1.000  H
  C329     1.0000 0.00109  0.81667  0.13877  Biso   1.000  C
  H194     1.0000 0.98923  0.83217  0.17367  Biso   1.000  H
  C330     1.0000 0.96151  0.75151  0.95027  Biso   1.000  C
  H195     1.0000 0.10373  0.85617  0.37967  Biso   1.000  H
  Zn16     1.0000 0.77142  0.62518  0.48070  Biso   1.000  Zn
  N46      1.0000 0.74164  0.63542  0.57983  Biso   1.000  N
  N47      1.0000 0.80606  0.59882  0.55530  Biso   1.000  N
  N48      1.0000 0.81261  0.58157  0.67182  Biso   1.000  N
  O61      1.0000 0.98501  0.47706  0.75698  Biso   1.000  O
  O62      1.0000 0.92456  0.44807  0.84522  Biso   1.000  O
  O63      1.0000 0.94734  0.58201  0.24820  Biso   1.000  O
  O64      1.0000 0.90310  0.49762  0.26463  Biso   1.000  O
  C331     1.0000 0.70653  0.65053  0.58800  Biso   1.000  C
  H196     1.0000 0.69500  0.66040  0.54530  Biso   1.000  H
  C332     1.0000 0.68646  0.65230  0.65660  Biso   1.000  C
  H197     1.0000 0.66100  0.66240  0.66050  Biso   1.000  H
  C333     1.0000 0.70383  0.63910  0.71890  Biso   1.000  C
  H198     1.0000 0.69110  0.64070  0.76640  Biso   1.000  H
  C334     1.0000 0.74031  0.62350  0.71150  Biso   1.000  C
  H199     1.0000 0.75310  0.61460  0.75370  Biso   1.000  H
  C335     1.0000 0.75773  0.62130  0.64134  Biso   1.000  C
  C336     1.0000 0.79277  0.60216  0.62466  Biso   1.000  C
  C337     1.0000 0.83529  0.57513  0.55814  Biso   1.000  C
  C338     1.0000 0.84003  0.56385  0.63141  Biso   1.000  C
  C339     1.0000 0.86592  0.53920  0.66892  Biso   1.000  C
  C340     1.0000 0.84788  0.51499  0.73760  Biso   1.000  C
  H200     1.0000 0.81870  0.51440  0.75960  Biso   1.000  H
  C341     1.0000 0.87180  0.49214  0.77357  Biso   1.000  C
  H201     1.0000 0.85880  0.47580  0.82000  Biso   1.000  H
  C342     1.0000 0.91496  0.49246  0.74299  Biso   1.000  C
  C343     1.0000 0.93347  0.51682  0.67434  Biso   1.000  C
  H202     1.0000 0.96300  0.51780  0.65280  Biso   1.000  H
  C344     1.0000 0.90905  0.53953  0.63761  Biso   1.000  C
  H203     1.0000 0.92160  0.55540  0.59090  Biso   1.000  H
  C345     1.0000 0.94261  0.46987  0.78558  Biso   1.000  C
  C346     1.0000 0.85514  0.56554  0.48866  Biso   1.000  C
  C347     1.0000 0.87813  0.60560  0.43673  Biso   1.000  C
  H204     1.0000 0.88130  0.63820  0.44730  Biso   1.000  H
  C348     1.0000 0.89631  0.59788  0.36981  Biso   1.000  C
  H205     1.0000 0.91190  0.62520  0.33490  Biso   1.000  H
  C349     1.0000 0.89163  0.55002  0.35393  Biso   1.000  C
  C350     1.0000 0.86752  0.50966  0.40450  Biso   1.000  C
  H206     1.0000 0.86300  0.47660  0.39300  Biso   1.000  H
  C351     1.0000 0.85000  0.51776  0.47210  Biso   1.000  C
  H207     1.0000 0.83450  0.49040  0.50700  Biso   1.000  H
  C352     1.0000 0.91516  0.54334  0.28360  Biso   1.000  C
  H208     1.0000 0.81050  0.58090  0.71300  Biso   1.000  H
  Zn17     1.0000 0.43809  0.95851  0.81403  Biso   1.000  Zn
  N49      1.0000 0.40831  0.96875  0.91316  Biso   1.000  N
  N50      1.0000 0.47273  0.93215  0.88863  Biso   1.000  N
  N51      1.0000 0.47928  0.91490  0.00515  Biso   1.000  N
  O65      1.0000 0.65168  0.81039  0.09031  Biso   1.000  O
  O66      1.0000 0.59123  0.78140  0.17855  Biso   1.000  O
  O67      1.0000 0.61401  0.91534  0.58153  Biso   1.000  O
  O68      1.0000 0.56977  0.83095  0.59796  Biso   1.000  O
  C353     1.0000 0.37320  0.98386  0.92133  Biso   1.000  C
  H209     1.0000 0.36167  0.99373  0.87863  Biso   1.000  H
  C354     1.0000 0.35313  0.98563  0.98993  Biso   1.000  C
  H210     1.0000 0.32767  0.99573  0.99383  Biso   1.000  H
  C355     1.0000 0.37050  0.97243  0.05223  Biso   1.000  C
  H211     1.0000 0.35777  0.97403  0.09973  Biso   1.000  H
  C356     1.0000 0.40698  0.95683  0.04483  Biso   1.000  C
  H212     1.0000 0.41977  0.94793  0.08703  Biso   1.000  H
  C357     1.0000 0.42440  0.95463  0.97467  Biso   1.000  C
  C358     1.0000 0.45944  0.93549  0.95799  Biso   1.000  C
  C359     1.0000 0.50196  0.90846  0.89147  Biso   1.000  C
  C360     1.0000 0.50670  0.89718  0.96474  Biso   1.000  C
  C361     1.0000 0.53259  0.87253  0.00225  Biso   1.000  C
  C362     1.0000 0.51455  0.84832  0.07093  Biso   1.000  C
  H213     1.0000 0.48537  0.84773  0.09293  Biso   1.000  H
  C363     1.0000 0.53847  0.82547  0.10690  Biso   1.000  C
  H214     1.0000 0.52547  0.80913  0.15333  Biso   1.000  H
  C364     1.0000 0.58163  0.82579  0.07632  Biso   1.000  C
  C365     1.0000 0.60014  0.85015  0.00767  Biso   1.000  C
  H215     1.0000 0.62967  0.85113  0.98613  Biso   1.000  H
  C366     1.0000 0.57572  0.87286  0.97094  Biso   1.000  C
  H216     1.0000 0.58827  0.88873  0.92423  Biso   1.000  H
  C367     1.0000 0.60928  0.80320  0.11891  Biso   1.000  C
  C368     1.0000 0.52181  0.89887  0.82199  Biso   1.000  C
  C369     1.0000 0.54480  0.93893  0.77006  Biso   1.000  C
  H217     1.0000 0.54797  0.97153  0.78063  Biso   1.000  H
  C370     1.0000 0.56298  0.93121  0.70314  Biso   1.000  C
  H218     1.0000 0.57857  0.95853  0.66823  Biso   1.000  H
  C371     1.0000 0.55830  0.88335  0.68726  Biso   1.000  C
  C372     1.0000 0.53419  0.84299  0.73783  Biso   1.000  C
  H219     1.0000 0.52967  0.80993  0.72633  Biso   1.000  H
  C373     1.0000 0.51667  0.85109  0.80543  Biso   1.000  C
  H220     1.0000 0.50117  0.82373  0.84033  Biso   1.000  H
  C374     1.0000 0.58183  0.87667  0.61693  Biso   1.000  C
  H221     1.0000 0.47717  0.91423  0.04633  Biso   1.000  H
  Zn18     1.0000 0.10475  0.29185  0.14737  Biso   1.000  Zn
  N52      1.0000 0.07497  0.30209  0.24650  Biso   1.000  N
  N53      1.0000 0.13939  0.26549  0.22197  Biso   1.000  N
  N54      1.0000 0.14594  0.24824  0.33849  Biso   1.000  N
  O69      1.0000 0.31834  0.14373  0.42365  Biso   1.000  O
  O70      1.0000 0.25789  0.11474  0.51189  Biso   1.000  O
  O71      1.0000 0.28067  0.24868  0.91487  Biso   1.000  O
  O72      1.0000 0.23643  0.16429  0.93130  Biso   1.000  O
  C375     1.0000 0.03986  0.31720  0.25467  Biso   1.000  C
  H222     1.0000 0.02833  0.32707  0.21197  Biso   1.000  H
  C376     1.0000 0.01979  0.31897  0.32327  Biso   1.000  C
  H223     1.0000 0.99433  0.32907  0.32717  Biso   1.000  H
  C377     1.0000 0.03716  0.30577  0.38557  Biso   1.000  C
  H224     1.0000 0.02443  0.30737  0.43307  Biso   1.000  H
  C378     1.0000 0.07364  0.29017  0.37817  Biso   1.000  C
  H225     1.0000 0.08643  0.28127  0.42037  Biso   1.000  H
  C379     1.0000 0.09106  0.28797  0.30801  Biso   1.000  C
  C380     1.0000 0.12610  0.26883  0.29133  Biso   1.000  C
  C381     1.0000 0.16862  0.24180  0.22481  Biso   1.000  C
  C382     1.0000 0.17336  0.23052  0.29808  Biso   1.000  C
  C383     1.0000 0.19925  0.20587  0.33559  Biso   1.000  C
  C384     1.0000 0.18121  0.18166  0.40427  Biso   1.000  C
  H226     1.0000 0.15203  0.18107  0.42627  Biso   1.000  H
  C385     1.0000 0.20513  0.15881  0.44024  Biso   1.000  C
  H227     1.0000 0.19213  0.14247  0.48667  Biso   1.000  H
  C386     1.0000 0.24829  0.15913  0.40966  Biso   1.000  C
  C387     1.0000 0.26680  0.18349  0.34101  Biso   1.000  C
  H228     1.0000 0.29633  0.18447  0.31947  Biso   1.000  H
  C388     1.0000 0.24238  0.20620  0.30428  Biso   1.000  C
  H229     1.0000 0.25493  0.22207  0.25757  Biso   1.000  H
  C389     1.0000 0.27594  0.13654  0.45225  Biso   1.000  C
  C390     1.0000 0.18847  0.23221  0.15533  Biso   1.000  C
  C391     1.0000 0.21146  0.27227  0.10340  Biso   1.000  C
  H230     1.0000 0.21463  0.30487  0.11397  Biso   1.000  H
  C392     1.0000 0.22964  0.26455  0.03648  Biso   1.000  C
  H231     1.0000 0.24523  0.29187  0.00157  Biso   1.000  H
  C393     1.0000 0.22496  0.21669  0.02060  Biso   1.000  C
  C394     1.0000 0.20085  0.17633  0.07117  Biso   1.000  C
  H232     1.0000 0.19633  0.14327  0.05967  Biso   1.000  H
  C395     1.0000 0.18333  0.18443  0.13877  Biso   1.000  C
  H233     1.0000 0.16783  0.15707  0.17367  Biso   1.000  H
  C396     1.0000 0.24849  0.21001  0.95027  Biso   1.000  C
  H234     1.0000 0.14383  0.24757  0.37967  Biso   1.000  H
