data_image0
_cell_length_a       29.67
_cell_length_b       29.67
_cell_length_c       17.915
_cell_angle_alpha    90
_cell_angle_beta     90
_cell_angle_gamma    120

_symmetry_space_group_name_H-M    "P 1"
_symmetry_int_tables_number       1

loop_
  _symmetry_equiv_pos_as_xyz
  'x, y, z'

loop_
  _atom_site_label
  _atom_site_occupancy
  _atom_site_fract_x
  _atom_site_fract_y
  _atom_site_fract_z
  _atom_site_thermal_displace_type
  _atom_site_B_iso_or_equiv
  _atom_site_type_symbol
  Zn1      1.0000 0.62915  0.85669  0.51957  Biso   1.000  Zn
  N1       1.0000 0.64362  0.89648  0.41833  Biso   1.000  N
  N2       1.0000 0.59849  0.79467  0.44617  Biso   1.000  N
  N3       1.0000 0.57802  0.76940  0.33003  Biso   1.000  N
  H1       1.0000 0.57550  0.77090  0.28130  Biso   1.000  H
  O1       1.0000 0.47318  0.49280  0.24401  Biso   1.000  O
  O2       1.0000 0.44638  0.52518  0.15374  Biso   1.000  O
  O3       1.0000 0.58190  0.63725  0.75656  Biso   1.000  O
  O4       1.0000 0.49801  0.59166  0.73467  Biso   1.000  O
  C1       1.0000 0.66602  0.94786  0.40815  Biso   1.000  C
  H2       1.0000 0.67910  0.97000  0.45050  Biso   1.000  H
  C2       1.0000 0.67098  0.97005  0.33928  Biso   1.000  C
  H3       1.0000 0.68690  0.00670  0.33420  Biso   1.000  H
  C3       1.0000 0.65259  0.93827  0.27796  Biso   1.000  C
  H4       1.0000 0.65600  0.95280  0.22960  Biso   1.000  H
  C4       1.0000 0.62896  0.88482  0.28673  Biso   1.000  C
  H5       1.0000 0.61570  0.86220  0.24490  Biso   1.000  H
  C5       1.0000 0.62515  0.86529  0.35790  Biso   1.000  C
  C6       1.0000 0.60096  0.81020  0.37592  Biso   1.000  C
  C7       1.0000 0.57202  0.74112  0.44512  Biso   1.000  C
  C8       1.0000 0.55879  0.72434  0.37169  Biso   1.000  C
  C9       1.0000 0.53303  0.67347  0.33517  Biso   1.000  C
  C10      1.0000 0.51004  0.66796  0.26518  Biso   1.000  C
  H6       1.0000 0.50960  0.69680  0.24300  Biso   1.000  H
  C11      1.0000 0.48801  0.62089  0.22794  Biso   1.000  C
  H7       1.0000 0.47260  0.61780  0.18030  Biso   1.000  H
  C12      1.0000 0.48796  0.57800  0.25899  Biso   1.000  C
  C13      1.0000 0.51022  0.58292  0.32926  Biso   1.000  C
  H8       1.0000 0.51010  0.55380  0.35150  Biso   1.000  H
  C14      1.0000 0.53237  0.62997  0.36660  Biso   1.000  C
  H9       1.0000 0.54740  0.63280  0.41440  Biso   1.000  H
  C15      1.0000 0.46696  0.52834  0.21524  Biso   1.000  C
  C16      1.0000 0.56267  0.71221  0.51562  Biso   1.000  C
  C17      1.0000 0.60259  0.73089  0.56849  Biso   1.000  C
  H10      1.0000 0.63470  0.76170  0.55850  Biso   1.000  H
  C18      1.0000 0.59572  0.70481  0.63535  Biso   1.000  C
  H11      1.0000 0.62320  0.71750  0.67080  Biso   1.000  H
  C19      1.0000 0.54885  0.66031  0.65053  Biso   1.000  C
  C20      1.0000 0.50810  0.64260  0.59946  Biso   1.000  C
  H12      1.0000 0.47540  0.61290  0.61060  Biso   1.000  H
  C21      1.0000 0.51545  0.66866  0.53191  Biso   1.000  C
  H13      1.0000 0.48780  0.65640  0.49680  Biso   1.000  H
  C22      1.0000 0.54303  0.62851  0.71889  Biso   1.000  C
  Zn2      1.0000 0.29582  0.19002  0.85290  Biso   1.000  Zn
  N4       1.0000 0.31029  0.22981  0.75166  Biso   1.000  N
  N5       1.0000 0.26516  0.12800  0.77950  Biso   1.000  N
  N6       1.0000 0.24469  0.10273  0.66336  Biso   1.000  N
  H14      1.0000 0.24217  0.10423  0.61463  Biso   1.000  H
  O5       1.0000 0.13985  0.82613  0.57734  Biso   1.000  O
  O6       1.0000 0.11305  0.85851  0.48707  Biso   1.000  O
  O7       1.0000 0.24857  0.97058  0.08989  Biso   1.000  O
  O8       1.0000 0.16468  0.92499  0.06800  Biso   1.000  O
  C23      1.0000 0.33269  0.28119  0.74148  Biso   1.000  C
  H15      1.0000 0.34577  0.30333  0.78383  Biso   1.000  H
  C24      1.0000 0.33765  0.30338  0.67261  Biso   1.000  C
  H16      1.0000 0.35357  0.34003  0.66753  Biso   1.000  H
  C25      1.0000 0.31926  0.27160  0.61129  Biso   1.000  C
  H17      1.0000 0.32267  0.28613  0.56293  Biso   1.000  H
  C26      1.0000 0.29563  0.21815  0.62006  Biso   1.000  C
  H18      1.0000 0.28237  0.19553  0.57823  Biso   1.000  H
  C27      1.0000 0.29182  0.19862  0.69123  Biso   1.000  C
  C28      1.0000 0.26763  0.14353  0.70925  Biso   1.000  C
  C29      1.0000 0.23869  0.07445  0.77845  Biso   1.000  C
  C30      1.0000 0.22546  0.05767  0.70502  Biso   1.000  C
  C31      1.0000 0.19970  0.00680  0.66850  Biso   1.000  C
  C32      1.0000 0.17671  0.00129  0.59851  Biso   1.000  C
  H19      1.0000 0.17627  0.03013  0.57633  Biso   1.000  H
  C33      1.0000 0.15468  0.95422  0.56127  Biso   1.000  C
  H20      1.0000 0.13927  0.95113  0.51363  Biso   1.000  H
  C34      1.0000 0.15463  0.91133  0.59232  Biso   1.000  C
  C35      1.0000 0.17689  0.91625  0.66259  Biso   1.000  C
  H21      1.0000 0.17677  0.88713  0.68483  Biso   1.000  H
  C36      1.0000 0.19904  0.96330  0.69993  Biso   1.000  C
  H22      1.0000 0.21407  0.96613  0.74773  Biso   1.000  H
  C37      1.0000 0.13363  0.86167  0.54857  Biso   1.000  C
  C38      1.0000 0.22934  0.04554  0.84895  Biso   1.000  C
  C39      1.0000 0.26926  0.06422  0.90182  Biso   1.000  C
  H23      1.0000 0.30137  0.09503  0.89183  Biso   1.000  H
  C40      1.0000 0.26239  0.03814  0.96868  Biso   1.000  C
  H24      1.0000 0.28987  0.05083  0.00413  Biso   1.000  H
  C41      1.0000 0.21552  0.99364  0.98386  Biso   1.000  C
  C42      1.0000 0.17477  0.97593  0.93279  Biso   1.000  C
  H25      1.0000 0.14207  0.94623  0.94393  Biso   1.000  H
  C43      1.0000 0.18212  0.00199  0.86524  Biso   1.000  C
  H26      1.0000 0.15447  0.98973  0.83013  Biso   1.000  H
  C44      1.0000 0.20970  0.96184  0.05222  Biso   1.000  C
  Zn3      1.0000 0.96248  0.52336  0.18624  Biso   1.000  Zn
  N7       1.0000 0.97695  0.56315  0.08500  Biso   1.000  N
  N8       1.0000 0.93182  0.46134  0.11284  Biso   1.000  N
  N9       1.0000 0.91135  0.43607  0.99670  Biso   1.000  N
  H27      1.0000 0.90883  0.43757  0.94797  Biso   1.000  H
  O9       1.0000 0.80651  0.15947  0.91068  Biso   1.000  O
  O10      1.0000 0.77971  0.19185  0.82041  Biso   1.000  O
  O11      1.0000 0.91523  0.30392  0.42323  Biso   1.000  O
  O12      1.0000 0.83134  0.25833  0.40134  Biso   1.000  O
  C45      1.0000 0.99935  0.61453  0.07482  Biso   1.000  C
  H28      1.0000 0.01243  0.63667  0.11717  Biso   1.000  H
  C46      1.0000 0.00431  0.63672  0.00595  Biso   1.000  C
  H29      1.0000 0.02023  0.67337  0.00087  Biso   1.000  H
  C47      1.0000 0.98592  0.60494  0.94463  Biso   1.000  C
  H30      1.0000 0.98933  0.61947  0.89627  Biso   1.000  H
  C48      1.0000 0.96229  0.55149  0.95340  Biso   1.000  C
  H31      1.0000 0.94903  0.52887  0.91157  Biso   1.000  H
  C49      1.0000 0.95848  0.53196  0.02457  Biso   1.000  C
  C50      1.0000 0.93429  0.47687  0.04259  Biso   1.000  C
  C51      1.0000 0.90535  0.40779  0.11179  Biso   1.000  C
  C52      1.0000 0.89212  0.39101  0.03836  Biso   1.000  C
  C53      1.0000 0.86636  0.34014  0.00184  Biso   1.000  C
  C54      1.0000 0.84337  0.33463  0.93185  Biso   1.000  C
  H32      1.0000 0.84293  0.36347  0.90967  Biso   1.000  H
  C55      1.0000 0.82134  0.28756  0.89461  Biso   1.000  C
  H33      1.0000 0.80593  0.28447  0.84697  Biso   1.000  H
  C56      1.0000 0.82129  0.24467  0.92566  Biso   1.000  C
  C57      1.0000 0.84355  0.24959  0.99593  Biso   1.000  C
  H34      1.0000 0.84343  0.22047  0.01817  Biso   1.000  H
  C58      1.0000 0.86570  0.29664  0.03327  Biso   1.000  C
  H35      1.0000 0.88073  0.29947  0.08107  Biso   1.000  H
  C59      1.0000 0.80029  0.19501  0.88191  Biso   1.000  C
  C60      1.0000 0.89600  0.37888  0.18229  Biso   1.000  C
  C61      1.0000 0.93592  0.39756  0.23516  Biso   1.000  C
  H36      1.0000 0.96803  0.42837  0.22517  Biso   1.000  H
  C62      1.0000 0.92905  0.37148  0.30202  Biso   1.000  C
  H37      1.0000 0.95653  0.38417  0.33747  Biso   1.000  H
  C63      1.0000 0.88218  0.32698  0.31720  Biso   1.000  C
  C64      1.0000 0.84143  0.30927  0.26613  Biso   1.000  C
  H38      1.0000 0.80873  0.27957  0.27727  Biso   1.000  H
  C65      1.0000 0.84878  0.33533  0.19858  Biso   1.000  C
  H39      1.0000 0.82113  0.32307  0.16347  Biso   1.000  H
  C66      1.0000 0.87636  0.29518  0.38556  Biso   1.000  C
  Zn4      1.0000 0.14331  0.77246  0.51957  Biso   1.000  Zn
  N10      1.0000 0.10352  0.74714  0.41833  Biso   1.000  N
  N11      1.0000 0.20533  0.80382  0.44617  Biso   1.000  N
  N12      1.0000 0.23060  0.80862  0.33003  Biso   1.000  N
  H40      1.0000 0.22910  0.80460  0.28130  Biso   1.000  H
  O13      1.0000 0.50720  0.98038  0.24401  Biso   1.000  O
  O14      1.0000 0.47482  0.92120  0.15374  Biso   1.000  O
  O15      1.0000 0.36275  0.94465  0.75656  Biso   1.000  O
  O16      1.0000 0.40834  0.90635  0.73467  Biso   1.000  O
  C67      1.0000 0.05214  0.71816  0.40815  Biso   1.000  C
  H41      1.0000 0.03000  0.70910  0.45050  Biso   1.000  H
  C68      1.0000 0.02995  0.70093  0.33928  Biso   1.000  C
  H42      1.0000 0.99330  0.68020  0.33420  Biso   1.000  H
  C69      1.0000 0.06173  0.71432  0.27796  Biso   1.000  C
  H43      1.0000 0.04720  0.70320  0.22960  Biso   1.000  H
  C70      1.0000 0.11518  0.74414  0.28673  Biso   1.000  C
  H44      1.0000 0.13780  0.75350  0.24490  Biso   1.000  H
  C71      1.0000 0.13471  0.75986  0.35790  Biso   1.000  C
  C72      1.0000 0.18980  0.79076  0.37592  Biso   1.000  C
  C73      1.0000 0.25888  0.83090  0.44512  Biso   1.000  C
  C74      1.0000 0.27566  0.83445  0.37169  Biso   1.000  C
  C75      1.0000 0.32653  0.85956  0.33517  Biso   1.000  C
  C76      1.0000 0.33204  0.84208  0.26518  Biso   1.000  C
  H45      1.0000 0.30320  0.81280  0.24300  Biso   1.000  H
  C77      1.0000 0.37911  0.86712  0.22794  Biso   1.000  C
  H46      1.0000 0.38220  0.85480  0.18030  Biso   1.000  H
  C78      1.0000 0.42200  0.90996  0.25899  Biso   1.000  C
  C79      1.0000 0.41708  0.92730  0.32926  Biso   1.000  C
  H47      1.0000 0.44620  0.95630  0.35150  Biso   1.000  H
  C80      1.0000 0.37003  0.90240  0.36660  Biso   1.000  C
  H48      1.0000 0.36720  0.91460  0.41440  Biso   1.000  H
  C81      1.0000 0.47166  0.93862  0.21524  Biso   1.000  C
  C82      1.0000 0.28779  0.85046  0.51562  Biso   1.000  C
  C83      1.0000 0.26911  0.87170  0.56849  Biso   1.000  C
  H49      1.0000 0.23830  0.87300  0.55850  Biso   1.000  H
  C84      1.0000 0.29519  0.89091  0.63535  Biso   1.000  C
  H50      1.0000 0.28250  0.90570  0.67080  Biso   1.000  H
  C85      1.0000 0.33969  0.88854  0.65053  Biso   1.000  C
  C86      1.0000 0.35740  0.86550  0.59946  Biso   1.000  C
  H51      1.0000 0.38710  0.86250  0.61060  Biso   1.000  H
  C87      1.0000 0.33134  0.84679  0.53191  Biso   1.000  C
  H52      1.0000 0.34360  0.83140  0.49680  Biso   1.000  H
  C88      1.0000 0.37149  0.91452  0.71889  Biso   1.000  C
  Zn5      1.0000 0.80998  0.10579  0.85290  Biso   1.000  Zn
  N13      1.0000 0.77019  0.08047  0.75166  Biso   1.000  N
  N14      1.0000 0.87200  0.13715  0.77950  Biso   1.000  N
  N15      1.0000 0.89727  0.14195  0.66336  Biso   1.000  N
  H53      1.0000 0.89577  0.13793  0.61463  Biso   1.000  H
  O17      1.0000 0.17387  0.31371  0.57734  Biso   1.000  O
  O18      1.0000 0.14149  0.25453  0.48707  Biso   1.000  O
  O19      1.0000 0.02942  0.27798  0.08989  Biso   1.000  O
  O20      1.0000 0.07501  0.23968  0.06800  Biso   1.000  O
  C89      1.0000 0.71881  0.05149  0.74148  Biso   1.000  C
  H54      1.0000 0.69667  0.04243  0.78383  Biso   1.000  H
  C90      1.0000 0.69662  0.03426  0.67261  Biso   1.000  C
  H55      1.0000 0.65997  0.01353  0.66753  Biso   1.000  H
  C91      1.0000 0.72840  0.04765  0.61129  Biso   1.000  C
  H56      1.0000 0.71387  0.03653  0.56293  Biso   1.000  H
  C92      1.0000 0.78185  0.07747  0.62006  Biso   1.000  C
  H57      1.0000 0.80447  0.08683  0.57823  Biso   1.000  H
  C93      1.0000 0.80138  0.09319  0.69123  Biso   1.000  C
  C94      1.0000 0.85647  0.12409  0.70925  Biso   1.000  C
  C95      1.0000 0.92555  0.16423  0.77845  Biso   1.000  C
  C96      1.0000 0.94233  0.16778  0.70502  Biso   1.000  C
  C97      1.0000 0.99320  0.19289  0.66850  Biso   1.000  C
  C98      1.0000 0.99871  0.17541  0.59851  Biso   1.000  C
  H58      1.0000 0.96987  0.14613  0.57633  Biso   1.000  H
  C99      1.0000 0.04578  0.20045  0.56127  Biso   1.000  C
  H59      1.0000 0.04887  0.18813  0.51363  Biso   1.000  H
  C100     1.0000 0.08867  0.24329  0.59232  Biso   1.000  C
  C101     1.0000 0.08375  0.26063  0.66259  Biso   1.000  C
  H60      1.0000 0.11287  0.28963  0.68483  Biso   1.000  H
  C102     1.0000 0.03670  0.23573  0.69993  Biso   1.000  C
  H61      1.0000 0.03387  0.24793  0.74773  Biso   1.000  H
  C103     1.0000 0.13833  0.27195  0.54857  Biso   1.000  C
  C104     1.0000 0.95446  0.18379  0.84895  Biso   1.000  C
  C105     1.0000 0.93578  0.20503  0.90182  Biso   1.000  C
  H62      1.0000 0.90497  0.20633  0.89183  Biso   1.000  H
  C106     1.0000 0.96186  0.22424  0.96868  Biso   1.000  C
  H63      1.0000 0.94917  0.23903  0.00413  Biso   1.000  H
  C107     1.0000 0.00636  0.22187  0.98386  Biso   1.000  C
  C108     1.0000 0.02407  0.19883  0.93279  Biso   1.000  C
  H64      1.0000 0.05377  0.19583  0.94393  Biso   1.000  H
  C109     1.0000 0.99801  0.18012  0.86524  Biso   1.000  C
  H65      1.0000 0.01027  0.16473  0.83013  Biso   1.000  H
  C110     1.0000 0.03816  0.24785  0.05222  Biso   1.000  C
  Zn6      1.0000 0.47664  0.43913  0.18624  Biso   1.000  Zn
  N16      1.0000 0.43685  0.41381  0.08500  Biso   1.000  N
  N17      1.0000 0.53866  0.47049  0.11284  Biso   1.000  N
  N18      1.0000 0.56393  0.47529  0.99670  Biso   1.000  N
  H66      1.0000 0.56243  0.47127  0.94797  Biso   1.000  H
  O21      1.0000 0.84053  0.64705  0.91068  Biso   1.000  O
  O22      1.0000 0.80815  0.58787  0.82041  Biso   1.000  O
  O23      1.0000 0.69608  0.61132  0.42323  Biso   1.000  O
  O24      1.0000 0.74167  0.57302  0.40134  Biso   1.000  O
  C111     1.0000 0.38547  0.38483  0.07482  Biso   1.000  C
  H67      1.0000 0.36333  0.37577  0.11717  Biso   1.000  H
  C112     1.0000 0.36328  0.36760  0.00595  Biso   1.000  C
  H68      1.0000 0.32663  0.34687  0.00087  Biso   1.000  H
  C113     1.0000 0.39506  0.38099  0.94463  Biso   1.000  C
  H69      1.0000 0.38053  0.36987  0.89627  Biso   1.000  H
  C114     1.0000 0.44851  0.41081  0.95340  Biso   1.000  C
  H70      1.0000 0.47113  0.42017  0.91157  Biso   1.000  H
  C115     1.0000 0.46804  0.42653  0.02457  Biso   1.000  C
  C116     1.0000 0.52313  0.45743  0.04259  Biso   1.000  C
  C117     1.0000 0.59221  0.49757  0.11179  Biso   1.000  C
  C118     1.0000 0.60899  0.50112  0.03836  Biso   1.000  C
  C119     1.0000 0.65986  0.52623  0.00184  Biso   1.000  C
  C120     1.0000 0.66537  0.50875  0.93185  Biso   1.000  C
  H71      1.0000 0.63653  0.47947  0.90967  Biso   1.000  H
  C121     1.0000 0.71244  0.53379  0.89461  Biso   1.000  C
  H72      1.0000 0.71553  0.52147  0.84697  Biso   1.000  H
  C122     1.0000 0.75533  0.57663  0.92566  Biso   1.000  C
  C123     1.0000 0.75041  0.59397  0.99593  Biso   1.000  C
  H73      1.0000 0.77953  0.62297  0.01817  Biso   1.000  H
  C124     1.0000 0.70336  0.56907  0.03327  Biso   1.000  C
  H74      1.0000 0.70053  0.58127  0.08107  Biso   1.000  H
  C125     1.0000 0.80499  0.60529  0.88191  Biso   1.000  C
  C126     1.0000 0.62112  0.51713  0.18229  Biso   1.000  C
  C127     1.0000 0.60244  0.53837  0.23516  Biso   1.000  C
  H75      1.0000 0.57163  0.53967  0.22517  Biso   1.000  H
  C128     1.0000 0.62852  0.55758  0.30202  Biso   1.000  C
  H76      1.0000 0.61583  0.57237  0.33747  Biso   1.000  H
  C129     1.0000 0.67302  0.55521  0.31720  Biso   1.000  C
  C130     1.0000 0.69073  0.53217  0.26613  Biso   1.000  C
  H77      1.0000 0.72043  0.52917  0.27727  Biso   1.000  H
  C131     1.0000 0.66467  0.51346  0.19858  Biso   1.000  C
  H78      1.0000 0.67693  0.49807  0.16347  Biso   1.000  H
  C132     1.0000 0.70482  0.58119  0.38556  Biso   1.000  C
  Zn7      1.0000 0.22754  0.37085  0.51957  Biso   1.000  Zn
  N19      1.0000 0.25286  0.35638  0.41833  Biso   1.000  N
  N20      1.0000 0.19618  0.40151  0.44617  Biso   1.000  N
  N21      1.0000 0.19138  0.42198  0.33003  Biso   1.000  N
  H79      1.0000 0.19540  0.42450  0.28130  Biso   1.000  H
  O25      1.0000 0.01962  0.52682  0.24401  Biso   1.000  O
  O26      1.0000 0.07880  0.55362  0.15374  Biso   1.000  O
  O27      1.0000 0.05535  0.41810  0.75656  Biso   1.000  O
  O28      1.0000 0.09365  0.50199  0.73467  Biso   1.000  O
  C133     1.0000 0.28184  0.33398  0.40815  Biso   1.000  C
  H80      1.0000 0.29090  0.32090  0.45050  Biso   1.000  H
  C134     1.0000 0.29907  0.32902  0.33928  Biso   1.000  C
  H81      1.0000 0.31980  0.31310  0.33420  Biso   1.000  H
  C135     1.0000 0.28568  0.34741  0.27796  Biso   1.000  C
  H82      1.0000 0.29680  0.34400  0.22960  Biso   1.000  H
  C136     1.0000 0.25586  0.37104  0.28673  Biso   1.000  C
  H83      1.0000 0.24650  0.38430  0.24490  Biso   1.000  H
  C137     1.0000 0.24014  0.37485  0.35790  Biso   1.000  C
  C138     1.0000 0.20924  0.39904  0.37592  Biso   1.000  C
  C139     1.0000 0.16910  0.42798  0.44512  Biso   1.000  C
  C140     1.0000 0.16555  0.44121  0.37169  Biso   1.000  C
  C141     1.0000 0.14044  0.46697  0.33517  Biso   1.000  C
  C142     1.0000 0.15792  0.48996  0.26518  Biso   1.000  C
  H84      1.0000 0.18720  0.49040  0.24300  Biso   1.000  H
  C143     1.0000 0.13288  0.51199  0.22794  Biso   1.000  C
  H85      1.0000 0.14520  0.52740  0.18030  Biso   1.000  H
  C144     1.0000 0.09004  0.51204  0.25899  Biso   1.000  C
  C145     1.0000 0.07270  0.48978  0.32926  Biso   1.000  C
  H86      1.0000 0.04370  0.48990  0.35150  Biso   1.000  H
  C146     1.0000 0.09760  0.46763  0.36660  Biso   1.000  C
  H87      1.0000 0.08540  0.45260  0.41440  Biso   1.000  H
  C147     1.0000 0.06138  0.53304  0.21524  Biso   1.000  C
  C148     1.0000 0.14954  0.43733  0.51562  Biso   1.000  C
  C149     1.0000 0.12830  0.39741  0.56849  Biso   1.000  C
  H88      1.0000 0.12700  0.36530  0.55850  Biso   1.000  H
  C150     1.0000 0.10909  0.40428  0.63535  Biso   1.000  C
  H89      1.0000 0.09430  0.37680  0.67080  Biso   1.000  H
  C151     1.0000 0.11146  0.45115  0.65053  Biso   1.000  C
  C152     1.0000 0.13450  0.49190  0.59946  Biso   1.000  C
  H90      1.0000 0.13750  0.52460  0.61060  Biso   1.000  H
  C153     1.0000 0.15321  0.48455  0.53191  Biso   1.000  C
  H91      1.0000 0.16860  0.51220  0.49680  Biso   1.000  H
  C154     1.0000 0.08548  0.45697  0.71889  Biso   1.000  C
  Zn8      1.0000 0.89421  0.70418  0.85290  Biso   1.000  Zn
  N22      1.0000 0.91953  0.68971  0.75166  Biso   1.000  N
  N23      1.0000 0.86285  0.73484  0.77950  Biso   1.000  N
  N24      1.0000 0.85805  0.75531  0.66336  Biso   1.000  N
  H92      1.0000 0.86207  0.75783  0.61463  Biso   1.000  H
  O29      1.0000 0.68629  0.86015  0.57734  Biso   1.000  O
  O30      1.0000 0.74547  0.88695  0.48707  Biso   1.000  O
  O31      1.0000 0.72202  0.75143  0.08989  Biso   1.000  O
  O32      1.0000 0.76032  0.83532  0.06800  Biso   1.000  O
  C155     1.0000 0.94851  0.66731  0.74148  Biso   1.000  C
  H93      1.0000 0.95757  0.65423  0.78383  Biso   1.000  H
  C156     1.0000 0.96574  0.66235  0.67261  Biso   1.000  C
  H94      1.0000 0.98647  0.64643  0.66753  Biso   1.000  H
  C157     1.0000 0.95235  0.68074  0.61129  Biso   1.000  C
  H95      1.0000 0.96347  0.67733  0.56293  Biso   1.000  H
  C158     1.0000 0.92253  0.70437  0.62006  Biso   1.000  C
  H96      1.0000 0.91317  0.71763  0.57823  Biso   1.000  H
  C159     1.0000 0.90681  0.70818  0.69123  Biso   1.000  C
  C160     1.0000 0.87591  0.73237  0.70925  Biso   1.000  C
  C161     1.0000 0.83577  0.76131  0.77845  Biso   1.000  C
  C162     1.0000 0.83222  0.77454  0.70502  Biso   1.000  C
  C163     1.0000 0.80711  0.80030  0.66850  Biso   1.000  C
  C164     1.0000 0.82459  0.82329  0.59851  Biso   1.000  C
  H97      1.0000 0.85387  0.82373  0.57633  Biso   1.000  H
  C165     1.0000 0.79955  0.84532  0.56127  Biso   1.000  C
  H98      1.0000 0.81187  0.86073  0.51363  Biso   1.000  H
  C166     1.0000 0.75671  0.84537  0.59232  Biso   1.000  C
  C167     1.0000 0.73937  0.82311  0.66259  Biso   1.000  C
  H99      1.0000 0.71037  0.82323  0.68483  Biso   1.000  H
  C168     1.0000 0.76427  0.80096  0.69993  Biso   1.000  C
  H100     1.0000 0.75207  0.78593  0.74773  Biso   1.000  H
  C169     1.0000 0.72805  0.86637  0.54857  Biso   1.000  C
  C170     1.0000 0.81621  0.77066  0.84895  Biso   1.000  C
  C171     1.0000 0.79497  0.73074  0.90182  Biso   1.000  C
  H101     1.0000 0.79367  0.69863  0.89183  Biso   1.000  H
  C172     1.0000 0.77576  0.73761  0.96868  Biso   1.000  C
  H102     1.0000 0.76097  0.71013  0.00413  Biso   1.000  H
  C173     1.0000 0.77813  0.78448  0.98386  Biso   1.000  C
  C174     1.0000 0.80117  0.82523  0.93279  Biso   1.000  C
  H103     1.0000 0.80417  0.85793  0.94393  Biso   1.000  H
  C175     1.0000 0.81988  0.81788  0.86524  Biso   1.000  C
  H104     1.0000 0.83527  0.84553  0.83013  Biso   1.000  H
  C176     1.0000 0.75215  0.79030  0.05222  Biso   1.000  C
  Zn9      1.0000 0.56087  0.03752  0.18624  Biso   1.000  Zn
  N25      1.0000 0.58619  0.02305  0.08500  Biso   1.000  N
  N26      1.0000 0.52951  0.06818  0.11284  Biso   1.000  N
  N27      1.0000 0.52471  0.08865  0.99670  Biso   1.000  N
  H105     1.0000 0.52873  0.09117  0.94797  Biso   1.000  H
  O33      1.0000 0.35295  0.19349  0.91068  Biso   1.000  O
  O34      1.0000 0.41213  0.22029  0.82041  Biso   1.000  O
  O35      1.0000 0.38868  0.08477  0.42323  Biso   1.000  O
  O36      1.0000 0.42698  0.16866  0.40134  Biso   1.000  O
  C177     1.0000 0.61517  0.00065  0.07482  Biso   1.000  C
  H106     1.0000 0.62423  0.98757  0.11717  Biso   1.000  H
  C178     1.0000 0.63240  0.99569  0.00595  Biso   1.000  C
  H107     1.0000 0.65313  0.97977  0.00087  Biso   1.000  H
  C179     1.0000 0.61901  0.01408  0.94463  Biso   1.000  C
  H108     1.0000 0.63013  0.01067  0.89627  Biso   1.000  H
  C180     1.0000 0.58919  0.03771  0.95340  Biso   1.000  C
  H109     1.0000 0.57983  0.05097  0.91157  Biso   1.000  H
  C181     1.0000 0.57347  0.04152  0.02457  Biso   1.000  C
  C182     1.0000 0.54257  0.06571  0.04259  Biso   1.000  C
  C183     1.0000 0.50243  0.09465  0.11179  Biso   1.000  C
  C184     1.0000 0.49888  0.10788  0.03836  Biso   1.000  C
  C185     1.0000 0.47377  0.13364  0.00184  Biso   1.000  C
  C186     1.0000 0.49125  0.15663  0.93185  Biso   1.000  C
  H110     1.0000 0.52053  0.15707  0.90967  Biso   1.000  H
  C187     1.0000 0.46621  0.17866  0.89461  Biso   1.000  C
  H111     1.0000 0.47853  0.19407  0.84697  Biso   1.000  H
  C188     1.0000 0.42337  0.17871  0.92566  Biso   1.000  C
  C189     1.0000 0.40603  0.15645  0.99593  Biso   1.000  C
  H112     1.0000 0.37703  0.15657  0.01817  Biso   1.000  H
  C190     1.0000 0.43093  0.13430  0.03327  Biso   1.000  C
  H113     1.0000 0.41873  0.11927  0.08107  Biso   1.000  H
  C191     1.0000 0.39471  0.19971  0.88191  Biso   1.000  C
  C192     1.0000 0.48287  0.10400  0.18229  Biso   1.000  C
  C193     1.0000 0.46163  0.06408  0.23516  Biso   1.000  C
  H114     1.0000 0.46033  0.03197  0.22517  Biso   1.000  H
  C194     1.0000 0.44242  0.07095  0.30202  Biso   1.000  C
  H115     1.0000 0.42763  0.04347  0.33747  Biso   1.000  H
  C195     1.0000 0.44479  0.11782  0.31720  Biso   1.000  C
  C196     1.0000 0.46783  0.15857  0.26613  Biso   1.000  C
  H116     1.0000 0.47083  0.19127  0.27727  Biso   1.000  H
  C197     1.0000 0.48654  0.15122  0.19858  Biso   1.000  C
  H117     1.0000 0.50193  0.17887  0.16347  Biso   1.000  H
  C198     1.0000 0.41881  0.12364  0.38556  Biso   1.000  C
  Zn10     1.0000 0.37085  0.14331  0.48043  Biso   1.000  Zn
  N28      1.0000 0.35638  0.10352  0.58167  Biso   1.000  N
  N29      1.0000 0.40151  0.20533  0.55383  Biso   1.000  N
  N30      1.0000 0.42198  0.23060  0.66997  Biso   1.000  N
  H118     1.0000 0.42450  0.22910  0.71870  Biso   1.000  H
  O37      1.0000 0.52682  0.50720  0.75599  Biso   1.000  O
  O38      1.0000 0.55362  0.47482  0.84626  Biso   1.000  O
  O39      1.0000 0.41810  0.36275  0.24344  Biso   1.000  O
  O40      1.0000 0.50199  0.40834  0.26533  Biso   1.000  O
  C199     1.0000 0.33398  0.05214  0.59185  Biso   1.000  C
  H119     1.0000 0.32090  0.03000  0.54950  Biso   1.000  H
  C200     1.0000 0.32902  0.02995  0.66072  Biso   1.000  C
  H120     1.0000 0.31310  0.99330  0.66580  Biso   1.000  H
  C201     1.0000 0.34741  0.06173  0.72204  Biso   1.000  C
  H121     1.0000 0.34400  0.04720  0.77040  Biso   1.000  H
  C202     1.0000 0.37104  0.11518  0.71327  Biso   1.000  C
  H122     1.0000 0.38430  0.13780  0.75510  Biso   1.000  H
  C203     1.0000 0.37485  0.13471  0.64210  Biso   1.000  C
  C204     1.0000 0.39904  0.18980  0.62408  Biso   1.000  C
  C205     1.0000 0.42798  0.25888  0.55488  Biso   1.000  C
  C206     1.0000 0.44121  0.27566  0.62831  Biso   1.000  C
  C207     1.0000 0.46697  0.32653  0.66483  Biso   1.000  C
  C208     1.0000 0.48996  0.33204  0.73482  Biso   1.000  C
  H123     1.0000 0.49040  0.30320  0.75700  Biso   1.000  H
  C209     1.0000 0.51199  0.37911  0.77206  Biso   1.000  C
  H124     1.0000 0.52740  0.38220  0.81970  Biso   1.000  H
  C210     1.0000 0.51204  0.42200  0.74101  Biso   1.000  C
  C211     1.0000 0.48978  0.41708  0.67074  Biso   1.000  C
  H125     1.0000 0.48990  0.44620  0.64850  Biso   1.000  H
  C212     1.0000 0.46763  0.37003  0.63340  Biso   1.000  C
  H126     1.0000 0.45260  0.36720  0.58560  Biso   1.000  H
  C213     1.0000 0.53304  0.47166  0.78476  Biso   1.000  C
  C214     1.0000 0.43733  0.28779  0.48438  Biso   1.000  C
  C215     1.0000 0.39741  0.26911  0.43151  Biso   1.000  C
  H127     1.0000 0.36530  0.23830  0.44150  Biso   1.000  H
  C216     1.0000 0.40428  0.29519  0.36465  Biso   1.000  C
  H128     1.0000 0.37680  0.28250  0.32920  Biso   1.000  H
  C217     1.0000 0.45115  0.33969  0.34947  Biso   1.000  C
  C218     1.0000 0.49190  0.35740  0.40054  Biso   1.000  C
  H129     1.0000 0.52460  0.38710  0.38940  Biso   1.000  H
  C219     1.0000 0.48455  0.33134  0.46809  Biso   1.000  C
  H130     1.0000 0.51220  0.34360  0.50320  Biso   1.000  H
  C220     1.0000 0.45697  0.37149  0.28111  Biso   1.000  C
  Zn11     1.0000 0.03752  0.47664  0.81376  Biso   1.000  Zn
  N31      1.0000 0.02305  0.43685  0.91500  Biso   1.000  N
  N32      1.0000 0.06818  0.53866  0.88716  Biso   1.000  N
  N33      1.0000 0.08865  0.56393  0.00330  Biso   1.000  N
  H131     1.0000 0.09117  0.56243  0.05203  Biso   1.000  H
  O41      1.0000 0.19349  0.84053  0.08932  Biso   1.000  O
  O42      1.0000 0.22029  0.80815  0.17959  Biso   1.000  O
  O43      1.0000 0.08477  0.69608  0.57677  Biso   1.000  O
  O44      1.0000 0.16866  0.74167  0.59866  Biso   1.000  O
  C221     1.0000 0.00065  0.38547  0.92518  Biso   1.000  C
  H132     1.0000 0.98757  0.36333  0.88283  Biso   1.000  H
  C222     1.0000 0.99569  0.36328  0.99405  Biso   1.000  C
  H133     1.0000 0.97977  0.32663  0.99913  Biso   1.000  H
  C223     1.0000 0.01408  0.39506  0.05537  Biso   1.000  C
  H134     1.0000 0.01067  0.38053  0.10373  Biso   1.000  H
  C224     1.0000 0.03771  0.44851  0.04660  Biso   1.000  C
  H135     1.0000 0.05097  0.47113  0.08843  Biso   1.000  H
  C225     1.0000 0.04152  0.46804  0.97543  Biso   1.000  C
  C226     1.0000 0.06571  0.52313  0.95741  Biso   1.000  C
  C227     1.0000 0.09465  0.59221  0.88821  Biso   1.000  C
  C228     1.0000 0.10788  0.60899  0.96164  Biso   1.000  C
  C229     1.0000 0.13364  0.65986  0.99816  Biso   1.000  C
  C230     1.0000 0.15663  0.66537  0.06815  Biso   1.000  C
  H136     1.0000 0.15707  0.63653  0.09033  Biso   1.000  H
  C231     1.0000 0.17866  0.71244  0.10539  Biso   1.000  C
  H137     1.0000 0.19407  0.71553  0.15303  Biso   1.000  H
  C232     1.0000 0.17871  0.75533  0.07434  Biso   1.000  C
  C233     1.0000 0.15645  0.75041  0.00407  Biso   1.000  C
  H138     1.0000 0.15657  0.77953  0.98183  Biso   1.000  H
  C234     1.0000 0.13430  0.70336  0.96673  Biso   1.000  C
  H139     1.0000 0.11927  0.70053  0.91893  Biso   1.000  H
  C235     1.0000 0.19971  0.80499  0.11809  Biso   1.000  C
  C236     1.0000 0.10400  0.62112  0.81771  Biso   1.000  C
  C237     1.0000 0.06408  0.60244  0.76484  Biso   1.000  C
  H140     1.0000 0.03197  0.57163  0.77483  Biso   1.000  H
  C238     1.0000 0.07095  0.62852  0.69798  Biso   1.000  C
  H141     1.0000 0.04347  0.61583  0.66253  Biso   1.000  H
  C239     1.0000 0.11782  0.67302  0.68280  Biso   1.000  C
  C240     1.0000 0.15857  0.69073  0.73387  Biso   1.000  C
  H142     1.0000 0.19127  0.72043  0.72273  Biso   1.000  H
  C241     1.0000 0.15122  0.66467  0.80142  Biso   1.000  C
  H143     1.0000 0.17887  0.67693  0.83653  Biso   1.000  H
  C242     1.0000 0.12364  0.70482  0.61444  Biso   1.000  C
  Zn12     1.0000 0.70418  0.80998  0.14710  Biso   1.000  Zn
  N34      1.0000 0.68971  0.77019  0.24834  Biso   1.000  N
  N35      1.0000 0.73484  0.87200  0.22050  Biso   1.000  N
  N36      1.0000 0.75531  0.89727  0.33664  Biso   1.000  N
  H144     1.0000 0.75783  0.89577  0.38537  Biso   1.000  H
  O45      1.0000 0.86015  0.17387  0.42266  Biso   1.000  O
  O46      1.0000 0.88695  0.14149  0.51293  Biso   1.000  O
  O47      1.0000 0.75143  0.02942  0.91011  Biso   1.000  O
  O48      1.0000 0.83532  0.07501  0.93200  Biso   1.000  O
  C243     1.0000 0.66731  0.71881  0.25852  Biso   1.000  C
  H145     1.0000 0.65423  0.69667  0.21617  Biso   1.000  H
  C244     1.0000 0.66235  0.69662  0.32739  Biso   1.000  C
  H146     1.0000 0.64643  0.65997  0.33247  Biso   1.000  H
  C245     1.0000 0.68074  0.72840  0.38871  Biso   1.000  C
  H147     1.0000 0.67733  0.71387  0.43707  Biso   1.000  H
  C246     1.0000 0.70437  0.78185  0.37994  Biso   1.000  C
  H148     1.0000 0.71763  0.80447  0.42177  Biso   1.000  H
  C247     1.0000 0.70818  0.80138  0.30877  Biso   1.000  C
  C248     1.0000 0.73237  0.85647  0.29075  Biso   1.000  C
  C249     1.0000 0.76131  0.92555  0.22155  Biso   1.000  C
  C250     1.0000 0.77454  0.94233  0.29498  Biso   1.000  C
  C251     1.0000 0.80030  0.99320  0.33150  Biso   1.000  C
  C252     1.0000 0.82329  0.99871  0.40149  Biso   1.000  C
  H149     1.0000 0.82373  0.96987  0.42367  Biso   1.000  H
  C253     1.0000 0.84532  0.04578  0.43873  Biso   1.000  C
  H150     1.0000 0.86073  0.04887  0.48637  Biso   1.000  H
  C254     1.0000 0.84537  0.08867  0.40768  Biso   1.000  C
  C255     1.0000 0.82311  0.08375  0.33741  Biso   1.000  C
  H151     1.0000 0.82323  0.11287  0.31517  Biso   1.000  H
  C256     1.0000 0.80096  0.03670  0.30007  Biso   1.000  C
  H152     1.0000 0.78593  0.03387  0.25227  Biso   1.000  H
  C257     1.0000 0.86637  0.13833  0.45143  Biso   1.000  C
  C258     1.0000 0.77066  0.95446  0.15105  Biso   1.000  C
  C259     1.0000 0.73074  0.93578  0.09818  Biso   1.000  C
  H153     1.0000 0.69863  0.90497  0.10817  Biso   1.000  H
  C260     1.0000 0.73761  0.96186  0.03132  Biso   1.000  C
  H154     1.0000 0.71013  0.94917  0.99587  Biso   1.000  H
  C261     1.0000 0.78448  0.00636  0.01614  Biso   1.000  C
  C262     1.0000 0.82523  0.02407  0.06721  Biso   1.000  C
  H155     1.0000 0.85793  0.05377  0.05607  Biso   1.000  H
  C263     1.0000 0.81788  0.99801  0.13476  Biso   1.000  C
  H156     1.0000 0.84553  0.01027  0.16987  Biso   1.000  H
  C264     1.0000 0.79030  0.03816  0.94778  Biso   1.000  C
  Zn13     1.0000 0.85669  0.22754  0.48043  Biso   1.000  Zn
  N37      1.0000 0.89648  0.25286  0.58167  Biso   1.000  N
  N38      1.0000 0.79467  0.19618  0.55383  Biso   1.000  N
  N39      1.0000 0.76940  0.19138  0.66997  Biso   1.000  N
  H157     1.0000 0.77090  0.19540  0.71870  Biso   1.000  H
  O49      1.0000 0.49280  0.01962  0.75599  Biso   1.000  O
  O50      1.0000 0.52518  0.07880  0.84626  Biso   1.000  O
  O51      1.0000 0.63725  0.05535  0.24344  Biso   1.000  O
  O52      1.0000 0.59166  0.09365  0.26533  Biso   1.000  O
  C265     1.0000 0.94786  0.28184  0.59185  Biso   1.000  C
  H158     1.0000 0.97000  0.29090  0.54950  Biso   1.000  H
  C266     1.0000 0.97005  0.29907  0.66072  Biso   1.000  C
  H159     1.0000 0.00670  0.31980  0.66580  Biso   1.000  H
  C267     1.0000 0.93827  0.28568  0.72204  Biso   1.000  C
  H160     1.0000 0.95280  0.29680  0.77040  Biso   1.000  H
  C268     1.0000 0.88482  0.25586  0.71327  Biso   1.000  C
  H161     1.0000 0.86220  0.24650  0.75510  Biso   1.000  H
  C269     1.0000 0.86529  0.24014  0.64210  Biso   1.000  C
  C270     1.0000 0.81020  0.20924  0.62408  Biso   1.000  C
  C271     1.0000 0.74112  0.16910  0.55488  Biso   1.000  C
  C272     1.0000 0.72434  0.16555  0.62831  Biso   1.000  C
  C273     1.0000 0.67347  0.14044  0.66483  Biso   1.000  C
  C274     1.0000 0.66796  0.15792  0.73482  Biso   1.000  C
  H162     1.0000 0.69680  0.18720  0.75700  Biso   1.000  H
  C275     1.0000 0.62089  0.13288  0.77206  Biso   1.000  C
  H163     1.0000 0.61780  0.14520  0.81970  Biso   1.000  H
  C276     1.0000 0.57800  0.09004  0.74101  Biso   1.000  C
  C277     1.0000 0.58292  0.07270  0.67074  Biso   1.000  C
  H164     1.0000 0.55380  0.04370  0.64850  Biso   1.000  H
  C278     1.0000 0.62997  0.09760  0.63340  Biso   1.000  C
  H165     1.0000 0.63280  0.08540  0.58560  Biso   1.000  H
  C279     1.0000 0.52834  0.06138  0.78476  Biso   1.000  C
  C280     1.0000 0.71221  0.14954  0.48438  Biso   1.000  C
  C281     1.0000 0.73089  0.12830  0.43151  Biso   1.000  C
  H166     1.0000 0.76170  0.12700  0.44150  Biso   1.000  H
  C282     1.0000 0.70481  0.10909  0.36465  Biso   1.000  C
  H167     1.0000 0.71750  0.09430  0.32920  Biso   1.000  H
  C283     1.0000 0.66031  0.11146  0.34947  Biso   1.000  C
  C284     1.0000 0.64260  0.13450  0.40054  Biso   1.000  C
  H168     1.0000 0.61290  0.13750  0.38940  Biso   1.000  H
  C285     1.0000 0.66866  0.15321  0.46809  Biso   1.000  C
  H169     1.0000 0.65640  0.16860  0.50320  Biso   1.000  H
  C286     1.0000 0.62851  0.08548  0.28111  Biso   1.000  C
  Zn14     1.0000 0.52336  0.56087  0.81376  Biso   1.000  Zn
  N40      1.0000 0.56315  0.58619  0.91500  Biso   1.000  N
  N41      1.0000 0.46134  0.52951  0.88716  Biso   1.000  N
  N42      1.0000 0.43607  0.52471  0.00330  Biso   1.000  N
  H170     1.0000 0.43757  0.52873  0.05203  Biso   1.000  H
  O53      1.0000 0.15947  0.35295  0.08932  Biso   1.000  O
  O54      1.0000 0.19185  0.41213  0.17959  Biso   1.000  O
  O55      1.0000 0.30392  0.38868  0.57677  Biso   1.000  O
  O56      1.0000 0.25833  0.42698  0.59866  Biso   1.000  O
  C287     1.0000 0.61453  0.61517  0.92518  Biso   1.000  C
  H171     1.0000 0.63667  0.62423  0.88283  Biso   1.000  H
  C288     1.0000 0.63672  0.63240  0.99405  Biso   1.000  C
  H172     1.0000 0.67337  0.65313  0.99913  Biso   1.000  H
  C289     1.0000 0.60494  0.61901  0.05537  Biso   1.000  C
  H173     1.0000 0.61947  0.63013  0.10373  Biso   1.000  H
  C290     1.0000 0.55149  0.58919  0.04660  Biso   1.000  C
  H174     1.0000 0.52887  0.57983  0.08843  Biso   1.000  H
  C291     1.0000 0.53196  0.57347  0.97543  Biso   1.000  C
  C292     1.0000 0.47687  0.54257  0.95741  Biso   1.000  C
  C293     1.0000 0.40779  0.50243  0.88821  Biso   1.000  C
  C294     1.0000 0.39101  0.49888  0.96164  Biso   1.000  C
  C295     1.0000 0.34014  0.47377  0.99816  Biso   1.000  C
  C296     1.0000 0.33463  0.49125  0.06815  Biso   1.000  C
  H175     1.0000 0.36347  0.52053  0.09033  Biso   1.000  H
  C297     1.0000 0.28756  0.46621  0.10539  Biso   1.000  C
  H176     1.0000 0.28447  0.47853  0.15303  Biso   1.000  H
  C298     1.0000 0.24467  0.42337  0.07434  Biso   1.000  C
  C299     1.0000 0.24959  0.40603  0.00407  Biso   1.000  C
  H177     1.0000 0.22047  0.37703  0.98183  Biso   1.000  H
  C300     1.0000 0.29664  0.43093  0.96673  Biso   1.000  C
  H178     1.0000 0.29947  0.41873  0.91893  Biso   1.000  H
  C301     1.0000 0.19501  0.39471  0.11809  Biso   1.000  C
  C302     1.0000 0.37888  0.48287  0.81771  Biso   1.000  C
  C303     1.0000 0.39756  0.46163  0.76484  Biso   1.000  C
  H179     1.0000 0.42837  0.46033  0.77483  Biso   1.000  H
  C304     1.0000 0.37148  0.44242  0.69798  Biso   1.000  C
  H180     1.0000 0.38417  0.42763  0.66253  Biso   1.000  H
  C305     1.0000 0.32698  0.44479  0.68280  Biso   1.000  C
  C306     1.0000 0.30927  0.46783  0.73387  Biso   1.000  C
  H181     1.0000 0.27957  0.47083  0.72273  Biso   1.000  H
  C307     1.0000 0.33533  0.48654  0.80142  Biso   1.000  C
  H182     1.0000 0.32307  0.50193  0.83653  Biso   1.000  H
  C308     1.0000 0.29518  0.41881  0.61444  Biso   1.000  C
  Zn15     1.0000 0.19002  0.89421  0.14710  Biso   1.000  Zn
  N43      1.0000 0.22981  0.91953  0.24834  Biso   1.000  N
  N44      1.0000 0.12800  0.86285  0.22050  Biso   1.000  N
  N45      1.0000 0.10273  0.85805  0.33664  Biso   1.000  N
  H183     1.0000 0.10423  0.86207  0.38537  Biso   1.000  H
  O57      1.0000 0.82613  0.68629  0.42266  Biso   1.000  O
  O58      1.0000 0.85851  0.74547  0.51293  Biso   1.000  O
  O59      1.0000 0.97058  0.72202  0.91011  Biso   1.000  O
  O60      1.0000 0.92499  0.76032  0.93200  Biso   1.000  O
  C309     1.0000 0.28119  0.94851  0.25852  Biso   1.000  C
  H184     1.0000 0.30333  0.95757  0.21617  Biso   1.000  H
  C310     1.0000 0.30338  0.96574  0.32739  Biso   1.000  C
  H185     1.0000 0.34003  0.98647  0.33247  Biso   1.000  H
  C311     1.0000 0.27160  0.95235  0.38871  Biso   1.000  C
  H186     1.0000 0.28613  0.96347  0.43707  Biso   1.000  H
  C312     1.0000 0.21815  0.92253  0.37994  Biso   1.000  C
  H187     1.0000 0.19553  0.91317  0.42177  Biso   1.000  H
  C313     1.0000 0.19862  0.90681  0.30877  Biso   1.000  C
  C314     1.0000 0.14353  0.87591  0.29075  Biso   1.000  C
  C315     1.0000 0.07445  0.83577  0.22155  Biso   1.000  C
  C316     1.0000 0.05767  0.83222  0.29498  Biso   1.000  C
  C317     1.0000 0.00680  0.80711  0.33150  Biso   1.000  C
  C318     1.0000 0.00129  0.82459  0.40149  Biso   1.000  C
  H188     1.0000 0.03013  0.85387  0.42367  Biso   1.000  H
  C319     1.0000 0.95422  0.79955  0.43873  Biso   1.000  C
  H189     1.0000 0.95113  0.81187  0.48637  Biso   1.000  H
  C320     1.0000 0.91133  0.75671  0.40768  Biso   1.000  C
  C321     1.0000 0.91625  0.73937  0.33741  Biso   1.000  C
  H190     1.0000 0.88713  0.71037  0.31517  Biso   1.000  H
  C322     1.0000 0.96330  0.76427  0.30007  Biso   1.000  C
  H191     1.0000 0.96613  0.75207  0.25227  Biso   1.000  H
  C323     1.0000 0.86167  0.72805  0.45143  Biso   1.000  C
  C324     1.0000 0.04554  0.81621  0.15105  Biso   1.000  C
  C325     1.0000 0.06422  0.79497  0.09818  Biso   1.000  C
  H192     1.0000 0.09503  0.79367  0.10817  Biso   1.000  H
  C326     1.0000 0.03814  0.77576  0.03132  Biso   1.000  C
  H193     1.0000 0.05083  0.76097  0.99587  Biso   1.000  H
  C327     1.0000 0.99364  0.77813  0.01614  Biso   1.000  C
  C328     1.0000 0.97593  0.80117  0.06721  Biso   1.000  C
  H194     1.0000 0.94623  0.80417  0.05607  Biso   1.000  H
  C329     1.0000 0.00199  0.81988  0.13476  Biso   1.000  C
  H195     1.0000 0.98973  0.83527  0.16987  Biso   1.000  H
  C330     1.0000 0.96184  0.75215  0.94778  Biso   1.000  C
  Zn16     1.0000 0.77246  0.62915  0.48043  Biso   1.000  Zn
  N46      1.0000 0.74714  0.64362  0.58167  Biso   1.000  N
  N47      1.0000 0.80382  0.59849  0.55383  Biso   1.000  N
  N48      1.0000 0.80862  0.57802  0.66997  Biso   1.000  N
  H196     1.0000 0.80460  0.57550  0.71870  Biso   1.000  H
  O61      1.0000 0.98038  0.47318  0.75599  Biso   1.000  O
  O62      1.0000 0.92120  0.44638  0.84626  Biso   1.000  O
  O63      1.0000 0.94465  0.58190  0.24344  Biso   1.000  O
  O64      1.0000 0.90635  0.49801  0.26533  Biso   1.000  O
  C331     1.0000 0.71816  0.66602  0.59185  Biso   1.000  C
  H197     1.0000 0.70910  0.67910  0.54950  Biso   1.000  H
  C332     1.0000 0.70093  0.67098  0.66072  Biso   1.000  C
  H198     1.0000 0.68020  0.68690  0.66580  Biso   1.000  H
  C333     1.0000 0.71432  0.65259  0.72204  Biso   1.000  C
  H199     1.0000 0.70320  0.65600  0.77040  Biso   1.000  H
  C334     1.0000 0.74414  0.62896  0.71327  Biso   1.000  C
  H200     1.0000 0.75350  0.61570  0.75510  Biso   1.000  H
  C335     1.0000 0.75986  0.62515  0.64210  Biso   1.000  C
  C336     1.0000 0.79076  0.60096  0.62408  Biso   1.000  C
  C337     1.0000 0.83090  0.57202  0.55488  Biso   1.000  C
  C338     1.0000 0.83445  0.55879  0.62831  Biso   1.000  C
  C339     1.0000 0.85956  0.53303  0.66483  Biso   1.000  C
  C340     1.0000 0.84208  0.51004  0.73482  Biso   1.000  C
  H201     1.0000 0.81280  0.50960  0.75700  Biso   1.000  H
  C341     1.0000 0.86712  0.48801  0.77206  Biso   1.000  C
  H202     1.0000 0.85480  0.47260  0.81970  Biso   1.000  H
  C342     1.0000 0.90996  0.48796  0.74101  Biso   1.000  C
  C343     1.0000 0.92730  0.51022  0.67074  Biso   1.000  C
  H203     1.0000 0.95630  0.51010  0.64850  Biso   1.000  H
  C344     1.0000 0.90240  0.53237  0.63340  Biso   1.000  C
  H204     1.0000 0.91460  0.54740  0.58560  Biso   1.000  H
  C345     1.0000 0.93862  0.46696  0.78476  Biso   1.000  C
  C346     1.0000 0.85046  0.56267  0.48438  Biso   1.000  C
  C347     1.0000 0.87170  0.60259  0.43151  Biso   1.000  C
  H205     1.0000 0.87300  0.63470  0.44150  Biso   1.000  H
  C348     1.0000 0.89091  0.59572  0.36465  Biso   1.000  C
  H206     1.0000 0.90570  0.62320  0.32920  Biso   1.000  H
  C349     1.0000 0.88854  0.54885  0.34947  Biso   1.000  C
  C350     1.0000 0.86550  0.50810  0.40054  Biso   1.000  C
  H207     1.0000 0.86250  0.47540  0.38940  Biso   1.000  H
  C351     1.0000 0.84679  0.51545  0.46809  Biso   1.000  C
  H208     1.0000 0.83140  0.48780  0.50320  Biso   1.000  H
  C352     1.0000 0.91452  0.54303  0.28111  Biso   1.000  C
  Zn17     1.0000 0.43913  0.96248  0.81376  Biso   1.000  Zn
  N49      1.0000 0.41381  0.97695  0.91500  Biso   1.000  N
  N50      1.0000 0.47049  0.93182  0.88716  Biso   1.000  N
  N51      1.0000 0.47529  0.91135  0.00330  Biso   1.000  N
  H209     1.0000 0.47127  0.90883  0.05203  Biso   1.000  H
  O65      1.0000 0.64705  0.80651  0.08932  Biso   1.000  O
  O66      1.0000 0.58787  0.77971  0.17959  Biso   1.000  O
  O67      1.0000 0.61132  0.91523  0.57677  Biso   1.000  O
  O68      1.0000 0.57302  0.83134  0.59866  Biso   1.000  O
  C353     1.0000 0.38483  0.99935  0.92518  Biso   1.000  C
  H210     1.0000 0.37577  0.01243  0.88283  Biso   1.000  H
  C354     1.0000 0.36760  0.00431  0.99405  Biso   1.000  C
  H211     1.0000 0.34687  0.02023  0.99913  Biso   1.000  H
  C355     1.0000 0.38099  0.98592  0.05537  Biso   1.000  C
  H212     1.0000 0.36987  0.98933  0.10373  Biso   1.000  H
  C356     1.0000 0.41081  0.96229  0.04660  Biso   1.000  C
  H213     1.0000 0.42017  0.94903  0.08843  Biso   1.000  H
  C357     1.0000 0.42653  0.95848  0.97543  Biso   1.000  C
  C358     1.0000 0.45743  0.93429  0.95741  Biso   1.000  C
  C359     1.0000 0.49757  0.90535  0.88821  Biso   1.000  C
  C360     1.0000 0.50112  0.89212  0.96164  Biso   1.000  C
  C361     1.0000 0.52623  0.86636  0.99816  Biso   1.000  C
  C362     1.0000 0.50875  0.84337  0.06815  Biso   1.000  C
  H214     1.0000 0.47947  0.84293  0.09033  Biso   1.000  H
  C363     1.0000 0.53379  0.82134  0.10539  Biso   1.000  C
  H215     1.0000 0.52147  0.80593  0.15303  Biso   1.000  H
  C364     1.0000 0.57663  0.82129  0.07434  Biso   1.000  C
  C365     1.0000 0.59397  0.84355  0.00407  Biso   1.000  C
  H216     1.0000 0.62297  0.84343  0.98183  Biso   1.000  H
  C366     1.0000 0.56907  0.86570  0.96673  Biso   1.000  C
  H217     1.0000 0.58127  0.88073  0.91893  Biso   1.000  H
  C367     1.0000 0.60529  0.80029  0.11809  Biso   1.000  C
  C368     1.0000 0.51713  0.89600  0.81771  Biso   1.000  C
  C369     1.0000 0.53837  0.93592  0.76484  Biso   1.000  C
  H218     1.0000 0.53967  0.96803  0.77483  Biso   1.000  H
  C370     1.0000 0.55758  0.92905  0.69798  Biso   1.000  C
  H219     1.0000 0.57237  0.95653  0.66253  Biso   1.000  H
  C371     1.0000 0.55521  0.88218  0.68280  Biso   1.000  C
  C372     1.0000 0.53217  0.84143  0.73387  Biso   1.000  C
  H220     1.0000 0.52917  0.80873  0.72273  Biso   1.000  H
  C373     1.0000 0.51346  0.84878  0.80142  Biso   1.000  C
  H221     1.0000 0.49807  0.82113  0.83653  Biso   1.000  H
  C374     1.0000 0.58119  0.87636  0.61444  Biso   1.000  C
  Zn18     1.0000 0.10579  0.29582  0.14710  Biso   1.000  Zn
  N52      1.0000 0.08047  0.31029  0.24834  Biso   1.000  N
  N53      1.0000 0.13715  0.26516  0.22050  Biso   1.000  N
  N54      1.0000 0.14195  0.24469  0.33664  Biso   1.000  N
  H222     1.0000 0.13793  0.24217  0.38537  Biso   1.000  H
  O69      1.0000 0.31371  0.13985  0.42266  Biso   1.000  O
  O70      1.0000 0.25453  0.11305  0.51293  Biso   1.000  O
  O71      1.0000 0.27798  0.24857  0.91011  Biso   1.000  O
  O72      1.0000 0.23968  0.16468  0.93200  Biso   1.000  O
  C375     1.0000 0.05149  0.33269  0.25852  Biso   1.000  C
  H223     1.0000 0.04243  0.34577  0.21617  Biso   1.000  H
  C376     1.0000 0.03426  0.33765  0.32739  Biso   1.000  C
  H224     1.0000 0.01353  0.35357  0.33247  Biso   1.000  H
  C377     1.0000 0.04765  0.31926  0.38871  Biso   1.000  C
  H225     1.0000 0.03653  0.32267  0.43707  Biso   1.000  H
  C378     1.0000 0.07747  0.29563  0.37994  Biso   1.000  C
  H226     1.0000 0.08683  0.28237  0.42177  Biso   1.000  H
  C379     1.0000 0.09319  0.29182  0.30877  Biso   1.000  C
  C380     1.0000 0.12409  0.26763  0.29075  Biso   1.000  C
  C381     1.0000 0.16423  0.23869  0.22155  Biso   1.000  C
  C382     1.0000 0.16778  0.22546  0.29498  Biso   1.000  C
  C383     1.0000 0.19289  0.19970  0.33150  Biso   1.000  C
  C384     1.0000 0.17541  0.17671  0.40149  Biso   1.000  C
  H227     1.0000 0.14613  0.17627  0.42367  Biso   1.000  H
  C385     1.0000 0.20045  0.15468  0.43873  Biso   1.000  C
  H228     1.0000 0.18813  0.13927  0.48637  Biso   1.000  H
  C386     1.0000 0.24329  0.15463  0.40768  Biso   1.000  C
  C387     1.0000 0.26063  0.17689  0.33741  Biso   1.000  C
  H229     1.0000 0.28963  0.17677  0.31517  Biso   1.000  H
  C388     1.0000 0.23573  0.19904  0.30007  Biso   1.000  C
  H230     1.0000 0.24793  0.21407  0.25227  Biso   1.000  H
  C389     1.0000 0.27195  0.13363  0.45143  Biso   1.000  C
  C390     1.0000 0.18379  0.22934  0.15105  Biso   1.000  C
  C391     1.0000 0.20503  0.26926  0.09818  Biso   1.000  C
  H231     1.0000 0.20633  0.30137  0.10817  Biso   1.000  H
  C392     1.0000 0.22424  0.26239  0.03132  Biso   1.000  C
  H232     1.0000 0.23903  0.28987  0.99587  Biso   1.000  H
  C393     1.0000 0.22187  0.21552  0.01614  Biso   1.000  C
  C394     1.0000 0.19883  0.17477  0.06721  Biso   1.000  C
  H233     1.0000 0.19583  0.14207  0.05607  Biso   1.000  H
  C395     1.0000 0.18012  0.18212  0.13476  Biso   1.000  C
  H234     1.0000 0.16473  0.15447  0.16987  Biso   1.000  H
  C396     1.0000 0.24785  0.20970  0.94778  Biso   1.000  C
