data_image0
_cell_length_a       30.516
_cell_length_b       30.516
_cell_length_c       17.704
_cell_angle_alpha    90
_cell_angle_beta     90
_cell_angle_gamma    120

_symmetry_space_group_name_H-M    "P 1"
_symmetry_int_tables_number       1

loop_
  _symmetry_equiv_pos_as_xyz
  'x, y, z'

loop_
  _atom_site_label
  _atom_site_occupancy
  _atom_site_fract_x
  _atom_site_fract_y
  _atom_site_fract_z
  _atom_site_thermal_displace_type
  _atom_site_B_iso_or_equiv
  _atom_site_type_symbol
  Zn1      1.0000 0.63184  0.85363  0.52340  Biso   1.000  Zn
  N1       1.0000 0.63886  0.89247  0.42369  Biso   1.000  N
  N2       1.0000 0.60453  0.79395  0.44729  Biso   1.000  N
  N3       1.0000 0.58550  0.77118  0.32836  Biso   1.000  N
  H1       1.0000 0.58290  0.77350  0.27920  Biso   1.000  H
  O1       1.0000 0.47940  0.49953  0.24583  Biso   1.000  O
  O2       1.0000 0.45028  0.52959  0.15604  Biso   1.000  O
  O3       1.0000 0.58592  0.62749  0.74709  Biso   1.000  O
  O4       1.0000 0.50335  0.59083  0.73154  Biso   1.000  O
  C1       1.0000 0.65316  0.94156  0.41679  Biso   1.000  C
  H2       1.0000 0.66320  0.96220  0.46070  Biso   1.000  H
  C2       1.0000 0.65373  0.96320  0.34796  Biso   1.000  C
  H3       1.0000 0.66350  0.99800  0.34470  Biso   1.000  H
  C3       1.0000 0.63998  0.93350  0.28417  Biso   1.000  C
  H4       1.0000 0.64060  0.94780  0.23620  Biso   1.000  H
  C4       1.0000 0.62518  0.88272  0.29001  Biso   1.000  C
  H5       1.0000 0.61580  0.86170  0.24650  Biso   1.000  H
  C5       1.0000 0.62446  0.86342  0.36113  Biso   1.000  C
  C6       1.0000 0.60596  0.80996  0.37723  Biso   1.000  C
  C7       1.0000 0.58134  0.74194  0.44346  Biso   1.000  C
  C8       1.0000 0.56930  0.72705  0.36867  Biso   1.000  C
  C9       1.0000 0.54469  0.67782  0.33096  Biso   1.000  C
  C10      1.0000 0.51704  0.67074  0.26424  Biso   1.000  C
  H6       1.0000 0.51450  0.69810  0.24360  Biso   1.000  H
  C11      1.0000 0.49346  0.62419  0.22837  Biso   1.000  C
  H7       1.0000 0.47480  0.61990  0.18340  Biso   1.000  H
  C12      1.0000 0.49687  0.58366  0.25752  Biso   1.000  C
  C13      1.0000 0.52456  0.59066  0.32370  Biso   1.000  C
  H8       1.0000 0.52710  0.56330  0.34420  Biso   1.000  H
  C14      1.0000 0.54827  0.63708  0.35962  Biso   1.000  C
  H9       1.0000 0.56720  0.64130  0.40430  Biso   1.000  H
  C15      1.0000 0.47302  0.53395  0.21620  Biso   1.000  C
  C16      1.0000 0.57191  0.71190  0.51286  Biso   1.000  C
  C17      1.0000 0.60916  0.72848  0.56862  Biso   1.000  C
  H10      1.0000 0.64020  0.75920  0.56180  Biso   1.000  H
  C18      1.0000 0.60108  0.70036  0.63387  Biso   1.000  C
  H11      1.0000 0.62670  0.71180  0.67140  Biso   1.000  H
  C19      1.0000 0.55573  0.65562  0.64459  Biso   1.000  C
  C20      1.0000 0.51779  0.64004  0.59047  Biso   1.000  C
  H12      1.0000 0.48610  0.61030  0.59860  Biso   1.000  H
  C21      1.0000 0.52605  0.66777  0.52452  Biso   1.000  C
  H13      1.0000 0.50020  0.65650  0.48730  Biso   1.000  H
  C22      1.0000 0.54862  0.62344  0.71247  Biso   1.000  C
  Zn2      1.0000 0.29851  0.18696  0.85673  Biso   1.000  Zn
  N4       1.0000 0.30553  0.22580  0.75702  Biso   1.000  N
  N5       1.0000 0.27120  0.12728  0.78062  Biso   1.000  N
  N6       1.0000 0.25217  0.10451  0.66169  Biso   1.000  N
  H14      1.0000 0.24957  0.10683  0.61253  Biso   1.000  H
  O5       1.0000 0.14607  0.83286  0.57916  Biso   1.000  O
  O6       1.0000 0.11695  0.86292  0.48937  Biso   1.000  O
  O7       1.0000 0.25259  0.96082  0.08042  Biso   1.000  O
  O8       1.0000 0.17002  0.92416  0.06487  Biso   1.000  O
  C23      1.0000 0.31983  0.27489  0.75012  Biso   1.000  C
  H15      1.0000 0.32987  0.29553  0.79403  Biso   1.000  H
  C24      1.0000 0.32040  0.29653  0.68129  Biso   1.000  C
  H16      1.0000 0.33017  0.33133  0.67803  Biso   1.000  H
  C25      1.0000 0.30665  0.26683  0.61750  Biso   1.000  C
  H17      1.0000 0.30727  0.28113  0.56953  Biso   1.000  H
  C26      1.0000 0.29185  0.21605  0.62334  Biso   1.000  C
  H18      1.0000 0.28247  0.19503  0.57983  Biso   1.000  H
  C27      1.0000 0.29113  0.19675  0.69446  Biso   1.000  C
  C28      1.0000 0.27263  0.14329  0.71056  Biso   1.000  C
  C29      1.0000 0.24801  0.07527  0.77679  Biso   1.000  C
  C30      1.0000 0.23597  0.06038  0.70200  Biso   1.000  C
  C31      1.0000 0.21136  0.01115  0.66429  Biso   1.000  C
  C32      1.0000 0.18371  0.00407  0.59757  Biso   1.000  C
  H19      1.0000 0.18117  0.03143  0.57693  Biso   1.000  H
  C33      1.0000 0.16013  0.95752  0.56170  Biso   1.000  C
  H20      1.0000 0.14147  0.95323  0.51673  Biso   1.000  H
  C34      1.0000 0.16354  0.91699  0.59085  Biso   1.000  C
  C35      1.0000 0.19123  0.92399  0.65703  Biso   1.000  C
  H21      1.0000 0.19377  0.89663  0.67753  Biso   1.000  H
  C36      1.0000 0.21494  0.97041  0.69295  Biso   1.000  C
  H22      1.0000 0.23387  0.97463  0.73763  Biso   1.000  H
  C37      1.0000 0.13969  0.86728  0.54953  Biso   1.000  C
  C38      1.0000 0.23858  0.04523  0.84619  Biso   1.000  C
  C39      1.0000 0.27583  0.06181  0.90195  Biso   1.000  C
  H23      1.0000 0.30687  0.09253  0.89513  Biso   1.000  H
  C40      1.0000 0.26775  0.03369  0.96720  Biso   1.000  C
  H24      1.0000 0.29337  0.04513  0.00473  Biso   1.000  H
  C41      1.0000 0.22240  0.98895  0.97792  Biso   1.000  C
  C42      1.0000 0.18446  0.97337  0.92380  Biso   1.000  C
  H25      1.0000 0.15277  0.94363  0.93193  Biso   1.000  H
  C43      1.0000 0.19272  0.00110  0.85785  Biso   1.000  C
  H26      1.0000 0.16687  0.98983  0.82063  Biso   1.000  H
  C44      1.0000 0.21529  0.95677  0.04580  Biso   1.000  C
  Zn3      1.0000 0.96517  0.52030  0.19007  Biso   1.000  Zn
  N7       1.0000 0.97219  0.55914  0.09036  Biso   1.000  N
  N8       1.0000 0.93786  0.46062  0.11396  Biso   1.000  N
  N9       1.0000 0.91883  0.43785  0.99503  Biso   1.000  N
  H27      1.0000 0.91623  0.44017  0.94587  Biso   1.000  H
  O9       1.0000 0.81273  0.16620  0.91250  Biso   1.000  O
  O10      1.0000 0.78361  0.19626  0.82271  Biso   1.000  O
  O11      1.0000 0.91925  0.29416  0.41376  Biso   1.000  O
  O12      1.0000 0.83668  0.25750  0.39821  Biso   1.000  O
  C45      1.0000 0.98649  0.60823  0.08346  Biso   1.000  C
  H28      1.0000 0.99653  0.62887  0.12737  Biso   1.000  H
  C46      1.0000 0.98706  0.62987  0.01463  Biso   1.000  C
  H29      1.0000 0.99683  0.66467  0.01137  Biso   1.000  H
  C47      1.0000 0.97331  0.60017  0.95084  Biso   1.000  C
  H30      1.0000 0.97393  0.61447  0.90287  Biso   1.000  H
  C48      1.0000 0.95851  0.54939  0.95668  Biso   1.000  C
  H31      1.0000 0.94913  0.52837  0.91317  Biso   1.000  H
  C49      1.0000 0.95779  0.53009  0.02780  Biso   1.000  C
  C50      1.0000 0.93929  0.47663  0.04390  Biso   1.000  C
  C51      1.0000 0.91467  0.40861  0.11013  Biso   1.000  C
  C52      1.0000 0.90263  0.39372  0.03534  Biso   1.000  C
  C53      1.0000 0.87802  0.34449  0.99763  Biso   1.000  C
  C54      1.0000 0.85037  0.33741  0.93091  Biso   1.000  C
  H32      1.0000 0.84783  0.36477  0.91027  Biso   1.000  H
  C55      1.0000 0.82679  0.29086  0.89504  Biso   1.000  C
  H33      1.0000 0.80813  0.28657  0.85007  Biso   1.000  H
  C56      1.0000 0.83020  0.25033  0.92419  Biso   1.000  C
  C57      1.0000 0.85789  0.25733  0.99037  Biso   1.000  C
  H34      1.0000 0.86043  0.22997  0.01087  Biso   1.000  H
  C58      1.0000 0.88160  0.30375  0.02629  Biso   1.000  C
  H35      1.0000 0.90053  0.30797  0.07097  Biso   1.000  H
  C59      1.0000 0.80635  0.20062  0.88287  Biso   1.000  C
  C60      1.0000 0.90524  0.37857  0.17953  Biso   1.000  C
  C61      1.0000 0.94249  0.39515  0.23529  Biso   1.000  C
  H36      1.0000 0.97353  0.42587  0.22847  Biso   1.000  H
  C62      1.0000 0.93441  0.36703  0.30054  Biso   1.000  C
  H37      1.0000 0.96003  0.37847  0.33807  Biso   1.000  H
  C63      1.0000 0.88906  0.32229  0.31126  Biso   1.000  C
  C64      1.0000 0.85112  0.30671  0.25714  Biso   1.000  C
  H38      1.0000 0.81943  0.27697  0.26527  Biso   1.000  H
  C65      1.0000 0.85938  0.33444  0.19119  Biso   1.000  C
  H39      1.0000 0.83353  0.32317  0.15397  Biso   1.000  H
  C66      1.0000 0.88195  0.29011  0.37914  Biso   1.000  C
  Zn4      1.0000 0.14637  0.77821  0.52340  Biso   1.000  Zn
  N10      1.0000 0.10753  0.74639  0.42369  Biso   1.000  N
  N11      1.0000 0.20605  0.81058  0.44729  Biso   1.000  N
  N12      1.0000 0.22882  0.81432  0.32836  Biso   1.000  N
  H40      1.0000 0.22650  0.80940  0.27920  Biso   1.000  H
  O13      1.0000 0.50047  0.97987  0.24583  Biso   1.000  O
  O14      1.0000 0.47041  0.92069  0.15604  Biso   1.000  O
  O15      1.0000 0.37251  0.95843  0.74709  Biso   1.000  O
  O16      1.0000 0.40917  0.91252  0.73154  Biso   1.000  O
  C67      1.0000 0.05844  0.71160  0.41679  Biso   1.000  C
  H41      1.0000 0.03780  0.70100  0.46070  Biso   1.000  H
  C68      1.0000 0.03680  0.69053  0.34796  Biso   1.000  C
  H42      1.0000 0.00200  0.66550  0.34470  Biso   1.000  H
  C69      1.0000 0.06650  0.70648  0.28417  Biso   1.000  C
  H43      1.0000 0.05220  0.69280  0.23620  Biso   1.000  H
  C70      1.0000 0.11728  0.74246  0.29001  Biso   1.000  C
  H44      1.0000 0.13830  0.75410  0.24650  Biso   1.000  H
  C71      1.0000 0.13658  0.76104  0.36113  Biso   1.000  C
  C72      1.0000 0.19004  0.79600  0.37723  Biso   1.000  C
  C73      1.0000 0.25806  0.83940  0.44346  Biso   1.000  C
  C74      1.0000 0.27295  0.84225  0.36867  Biso   1.000  C
  C75      1.0000 0.32218  0.86687  0.33096  Biso   1.000  C
  C76      1.0000 0.32926  0.84630  0.26424  Biso   1.000  C
  H45      1.0000 0.30190  0.81640  0.24360  Biso   1.000  H
  C77      1.0000 0.37581  0.86927  0.22837  Biso   1.000  C
  H46      1.0000 0.38010  0.85490  0.18340  Biso   1.000  H
  C78      1.0000 0.41634  0.91321  0.25752  Biso   1.000  C
  C79      1.0000 0.40934  0.93390  0.32370  Biso   1.000  C
  H47      1.0000 0.43670  0.96380  0.34420  Biso   1.000  H
  C80      1.0000 0.36292  0.91119  0.35962  Biso   1.000  C
  H48      1.0000 0.35870  0.92590  0.40430  Biso   1.000  H
  C81      1.0000 0.46605  0.93907  0.21620  Biso   1.000  C
  C82      1.0000 0.28810  0.86001  0.51286  Biso   1.000  C
  C83      1.0000 0.27152  0.88068  0.56862  Biso   1.000  C
  H49      1.0000 0.24080  0.88100  0.56180  Biso   1.000  H
  C84      1.0000 0.29964  0.90072  0.63387  Biso   1.000  C
  H50      1.0000 0.28820  0.91490  0.67140  Biso   1.000  H
  C85      1.0000 0.34438  0.90011  0.64459  Biso   1.000  C
  C86      1.0000 0.35996  0.87775  0.59047  Biso   1.000  C
  H51      1.0000 0.38970  0.87580  0.59860  Biso   1.000  H
  C87      1.0000 0.33223  0.85828  0.52452  Biso   1.000  C
  H52      1.0000 0.34350  0.84370  0.48730  Biso   1.000  H
  C88      1.0000 0.37656  0.92518  0.71247  Biso   1.000  C
  Zn5      1.0000 0.81304  0.11154  0.85673  Biso   1.000  Zn
  N13      1.0000 0.77420  0.07972  0.75702  Biso   1.000  N
  N14      1.0000 0.87272  0.14391  0.78062  Biso   1.000  N
  N15      1.0000 0.89549  0.14765  0.66169  Biso   1.000  N
  H53      1.0000 0.89317  0.14273  0.61253  Biso   1.000  H
  O17      1.0000 0.16714  0.31320  0.57916  Biso   1.000  O
  O18      1.0000 0.13708  0.25402  0.48937  Biso   1.000  O
  O19      1.0000 0.03918  0.29176  0.08042  Biso   1.000  O
  O20      1.0000 0.07584  0.24585  0.06487  Biso   1.000  O
  C89      1.0000 0.72511  0.04493  0.75012  Biso   1.000  C
  H54      1.0000 0.70447  0.03433  0.79403  Biso   1.000  H
  C90      1.0000 0.70347  0.02386  0.68129  Biso   1.000  C
  H55      1.0000 0.66867  0.99883  0.67803  Biso   1.000  H
  C91      1.0000 0.73317  0.03981  0.61750  Biso   1.000  C
  H56      1.0000 0.71887  0.02613  0.56953  Biso   1.000  H
  C92      1.0000 0.78395  0.07579  0.62334  Biso   1.000  C
  H57      1.0000 0.80497  0.08743  0.57983  Biso   1.000  H
  C93      1.0000 0.80325  0.09437  0.69446  Biso   1.000  C
  C94      1.0000 0.85671  0.12933  0.71056  Biso   1.000  C
  C95      1.0000 0.92473  0.17273  0.77679  Biso   1.000  C
  C96      1.0000 0.93962  0.17558  0.70200  Biso   1.000  C
  C97      1.0000 0.98885  0.20020  0.66429  Biso   1.000  C
  C98      1.0000 0.99593  0.17963  0.59757  Biso   1.000  C
  H58      1.0000 0.96857  0.14973  0.57693  Biso   1.000  H
  C99      1.0000 0.04248  0.20260  0.56170  Biso   1.000  C
  H59      1.0000 0.04677  0.18823  0.51673  Biso   1.000  H
  C100     1.0000 0.08301  0.24654  0.59085  Biso   1.000  C
  C101     1.0000 0.07601  0.26723  0.65703  Biso   1.000  C
  H60      1.0000 0.10337  0.29713  0.67753  Biso   1.000  H
  C102     1.0000 0.02959  0.24452  0.69295  Biso   1.000  C
  H61      1.0000 0.02537  0.25923  0.73763  Biso   1.000  H
  C103     1.0000 0.13272  0.27240  0.54953  Biso   1.000  C
  C104     1.0000 0.95477  0.19334  0.84619  Biso   1.000  C
  C105     1.0000 0.93819  0.21401  0.90195  Biso   1.000  C
  H62      1.0000 0.90747  0.21433  0.89513  Biso   1.000  H
  C106     1.0000 0.96631  0.23405  0.96720  Biso   1.000  C
  H63      1.0000 0.95487  0.24823  0.00473  Biso   1.000  H
  C107     1.0000 0.01105  0.23344  0.97792  Biso   1.000  C
  C108     1.0000 0.02663  0.21108  0.92380  Biso   1.000  C
  H64      1.0000 0.05637  0.20913  0.93193  Biso   1.000  H
  C109     1.0000 0.99890  0.19161  0.85785  Biso   1.000  C
  H65      1.0000 0.01017  0.17703  0.82063  Biso   1.000  H
  C110     1.0000 0.04323  0.25851  0.04580  Biso   1.000  C
  Zn6      1.0000 0.47970  0.44488  0.19007  Biso   1.000  Zn
  N16      1.0000 0.44086  0.41306  0.09036  Biso   1.000  N
  N17      1.0000 0.53938  0.47725  0.11396  Biso   1.000  N
  N18      1.0000 0.56215  0.48099  0.99503  Biso   1.000  N
  H66      1.0000 0.55983  0.47607  0.94587  Biso   1.000  H
  O21      1.0000 0.83380  0.64654  0.91250  Biso   1.000  O
  O22      1.0000 0.80374  0.58736  0.82271  Biso   1.000  O
  O23      1.0000 0.70584  0.62510  0.41376  Biso   1.000  O
  O24      1.0000 0.74250  0.57919  0.39821  Biso   1.000  O
  C111     1.0000 0.39177  0.37827  0.08346  Biso   1.000  C
  H67      1.0000 0.37113  0.36767  0.12737  Biso   1.000  H
  C112     1.0000 0.37013  0.35720  0.01463  Biso   1.000  C
  H68      1.0000 0.33533  0.33217  0.01137  Biso   1.000  H
  C113     1.0000 0.39983  0.37315  0.95084  Biso   1.000  C
  H69      1.0000 0.38553  0.35947  0.90287  Biso   1.000  H
  C114     1.0000 0.45061  0.40913  0.95668  Biso   1.000  C
  H70      1.0000 0.47163  0.42077  0.91317  Biso   1.000  H
  C115     1.0000 0.46991  0.42771  0.02780  Biso   1.000  C
  C116     1.0000 0.52337  0.46267  0.04390  Biso   1.000  C
  C117     1.0000 0.59139  0.50607  0.11013  Biso   1.000  C
  C118     1.0000 0.60628  0.50892  0.03534  Biso   1.000  C
  C119     1.0000 0.65551  0.53354  0.99763  Biso   1.000  C
  C120     1.0000 0.66259  0.51297  0.93091  Biso   1.000  C
  H71      1.0000 0.63523  0.48307  0.91027  Biso   1.000  H
  C121     1.0000 0.70914  0.53594  0.89504  Biso   1.000  C
  H72      1.0000 0.71343  0.52157  0.85007  Biso   1.000  H
  C122     1.0000 0.74967  0.57988  0.92419  Biso   1.000  C
  C123     1.0000 0.74267  0.60057  0.99037  Biso   1.000  C
  H73      1.0000 0.77003  0.63047  0.01087  Biso   1.000  H
  C124     1.0000 0.69625  0.57786  0.02629  Biso   1.000  C
  H74      1.0000 0.69203  0.59257  0.07097  Biso   1.000  H
  C125     1.0000 0.79938  0.60574  0.88287  Biso   1.000  C
  C126     1.0000 0.62143  0.52668  0.17953  Biso   1.000  C
  C127     1.0000 0.60485  0.54735  0.23529  Biso   1.000  C
  H75      1.0000 0.57413  0.54767  0.22847  Biso   1.000  H
  C128     1.0000 0.63297  0.56739  0.30054  Biso   1.000  C
  H76      1.0000 0.62153  0.58157  0.33807  Biso   1.000  H
  C129     1.0000 0.67771  0.56678  0.31126  Biso   1.000  C
  C130     1.0000 0.69329  0.54442  0.25714  Biso   1.000  C
  H77      1.0000 0.72303  0.54247  0.26527  Biso   1.000  H
  C131     1.0000 0.66556  0.52495  0.19119  Biso   1.000  C
  H78      1.0000 0.67683  0.51037  0.15397  Biso   1.000  H
  C132     1.0000 0.70989  0.59185  0.37914  Biso   1.000  C
  Zn7      1.0000 0.22179  0.36816  0.52340  Biso   1.000  Zn
  N19      1.0000 0.25361  0.36114  0.42369  Biso   1.000  N
  N20      1.0000 0.18942  0.39547  0.44729  Biso   1.000  N
  N21      1.0000 0.18568  0.41450  0.32836  Biso   1.000  N
  H79      1.0000 0.19060  0.41710  0.27920  Biso   1.000  H
  O25      1.0000 0.02013  0.52060  0.24583  Biso   1.000  O
  O26      1.0000 0.07931  0.54972  0.15604  Biso   1.000  O
  O27      1.0000 0.04157  0.41408  0.74709  Biso   1.000  O
  O28      1.0000 0.08748  0.49665  0.73154  Biso   1.000  O
  C133     1.0000 0.28840  0.34684  0.41679  Biso   1.000  C
  H80      1.0000 0.29900  0.33680  0.46070  Biso   1.000  H
  C134     1.0000 0.30947  0.34627  0.34796  Biso   1.000  C
  H81      1.0000 0.33450  0.33650  0.34470  Biso   1.000  H
  C135     1.0000 0.29352  0.36002  0.28417  Biso   1.000  C
  H82      1.0000 0.30720  0.35940  0.23620  Biso   1.000  H
  C136     1.0000 0.25754  0.37482  0.29001  Biso   1.000  C
  H83      1.0000 0.24590  0.38420  0.24650  Biso   1.000  H
  C137     1.0000 0.23896  0.37554  0.36113  Biso   1.000  C
  C138     1.0000 0.20400  0.39404  0.37723  Biso   1.000  C
  C139     1.0000 0.16060  0.41866  0.44346  Biso   1.000  C
  C140     1.0000 0.15775  0.43070  0.36867  Biso   1.000  C
  C141     1.0000 0.13313  0.45531  0.33096  Biso   1.000  C
  C142     1.0000 0.15370  0.48296  0.26424  Biso   1.000  C
  H84      1.0000 0.18360  0.48550  0.24360  Biso   1.000  H
  C143     1.0000 0.13073  0.50654  0.22837  Biso   1.000  C
  H85      1.0000 0.14510  0.52520  0.18340  Biso   1.000  H
  C144     1.0000 0.08679  0.50313  0.25752  Biso   1.000  C
  C145     1.0000 0.06610  0.47544  0.32370  Biso   1.000  C
  H86      1.0000 0.03620  0.47290  0.34420  Biso   1.000  H
  C146     1.0000 0.08881  0.45173  0.35962  Biso   1.000  C
  H87      1.0000 0.07410  0.43280  0.40430  Biso   1.000  H
  C147     1.0000 0.06093  0.52698  0.21620  Biso   1.000  C
  C148     1.0000 0.13999  0.42809  0.51286  Biso   1.000  C
  C149     1.0000 0.11932  0.39084  0.56862  Biso   1.000  C
  H88      1.0000 0.11900  0.35980  0.56180  Biso   1.000  H
  C150     1.0000 0.09928  0.39892  0.63387  Biso   1.000  C
  H89      1.0000 0.08510  0.37330  0.67140  Biso   1.000  H
  C151     1.0000 0.09989  0.44427  0.64459  Biso   1.000  C
  C152     1.0000 0.12225  0.48221  0.59047  Biso   1.000  C
  H90      1.0000 0.12420  0.51390  0.59860  Biso   1.000  H
  C153     1.0000 0.14172  0.47395  0.52452  Biso   1.000  C
  H91      1.0000 0.15630  0.49980  0.48730  Biso   1.000  H
  C154     1.0000 0.07482  0.45138  0.71247  Biso   1.000  C
  Zn8      1.0000 0.88846  0.70149  0.85673  Biso   1.000  Zn
  N22      1.0000 0.92028  0.69447  0.75702  Biso   1.000  N
  N23      1.0000 0.85609  0.72880  0.78062  Biso   1.000  N
  N24      1.0000 0.85235  0.74783  0.66169  Biso   1.000  N
  H92      1.0000 0.85727  0.75043  0.61253  Biso   1.000  H
  O29      1.0000 0.68680  0.85393  0.57916  Biso   1.000  O
  O30      1.0000 0.74598  0.88305  0.48937  Biso   1.000  O
  O31      1.0000 0.70824  0.74741  0.08042  Biso   1.000  O
  O32      1.0000 0.75415  0.82998  0.06487  Biso   1.000  O
  C155     1.0000 0.95507  0.68017  0.75012  Biso   1.000  C
  H93      1.0000 0.96567  0.67013  0.79403  Biso   1.000  H
  C156     1.0000 0.97614  0.67960  0.68129  Biso   1.000  C
  H94      1.0000 0.00117  0.66983  0.67803  Biso   1.000  H
  C157     1.0000 0.96019  0.69335  0.61750  Biso   1.000  C
  H95      1.0000 0.97387  0.69273  0.56953  Biso   1.000  H
  C158     1.0000 0.92421  0.70815  0.62334  Biso   1.000  C
  H96      1.0000 0.91257  0.71753  0.57983  Biso   1.000  H
  C159     1.0000 0.90563  0.70887  0.69446  Biso   1.000  C
  C160     1.0000 0.87067  0.72737  0.71056  Biso   1.000  C
  C161     1.0000 0.82727  0.75199  0.77679  Biso   1.000  C
  C162     1.0000 0.82442  0.76403  0.70200  Biso   1.000  C
  C163     1.0000 0.79980  0.78864  0.66429  Biso   1.000  C
  C164     1.0000 0.82037  0.81629  0.59757  Biso   1.000  C
  H97      1.0000 0.85027  0.81883  0.57693  Biso   1.000  H
  C165     1.0000 0.79740  0.83987  0.56170  Biso   1.000  C
  H98      1.0000 0.81177  0.85853  0.51673  Biso   1.000  H
  C166     1.0000 0.75346  0.83646  0.59085  Biso   1.000  C
  C167     1.0000 0.73277  0.80877  0.65703  Biso   1.000  C
  H99      1.0000 0.70287  0.80623  0.67753  Biso   1.000  H
  C168     1.0000 0.75548  0.78506  0.69295  Biso   1.000  C
  H100     1.0000 0.74077  0.76613  0.73763  Biso   1.000  H
  C169     1.0000 0.72760  0.86031  0.54953  Biso   1.000  C
  C170     1.0000 0.80666  0.76142  0.84619  Biso   1.000  C
  C171     1.0000 0.78599  0.72417  0.90195  Biso   1.000  C
  H101     1.0000 0.78567  0.69313  0.89513  Biso   1.000  H
  C172     1.0000 0.76595  0.73225  0.96720  Biso   1.000  C
  H102     1.0000 0.75177  0.70663  0.00473  Biso   1.000  H
  C173     1.0000 0.76656  0.77760  0.97792  Biso   1.000  C
  C174     1.0000 0.78892  0.81554  0.92380  Biso   1.000  C
  H103     1.0000 0.79087  0.84723  0.93193  Biso   1.000  H
  C175     1.0000 0.80839  0.80728  0.85785  Biso   1.000  C
  H104     1.0000 0.82297  0.83313  0.82063  Biso   1.000  H
  C176     1.0000 0.74149  0.78471  0.04580  Biso   1.000  C
  Zn9      1.0000 0.55512  0.03483  0.19007  Biso   1.000  Zn
  N25      1.0000 0.58694  0.02781  0.09036  Biso   1.000  N
  N26      1.0000 0.52275  0.06214  0.11396  Biso   1.000  N
  N27      1.0000 0.51901  0.08117  0.99503  Biso   1.000  N
  H105     1.0000 0.52393  0.08377  0.94587  Biso   1.000  H
  O33      1.0000 0.35346  0.18727  0.91250  Biso   1.000  O
  O34      1.0000 0.41264  0.21639  0.82271  Biso   1.000  O
  O35      1.0000 0.37490  0.08075  0.41376  Biso   1.000  O
  O36      1.0000 0.42081  0.16332  0.39821  Biso   1.000  O
  C177     1.0000 0.62173  0.01351  0.08346  Biso   1.000  C
  H106     1.0000 0.63233  0.00347  0.12737  Biso   1.000  H
  C178     1.0000 0.64280  0.01294  0.01463  Biso   1.000  C
  H107     1.0000 0.66783  0.00317  0.01137  Biso   1.000  H
  C179     1.0000 0.62685  0.02669  0.95084  Biso   1.000  C
  H108     1.0000 0.64053  0.02607  0.90287  Biso   1.000  H
  C180     1.0000 0.59087  0.04149  0.95668  Biso   1.000  C
  H109     1.0000 0.57923  0.05087  0.91317  Biso   1.000  H
  C181     1.0000 0.57229  0.04221  0.02780  Biso   1.000  C
  C182     1.0000 0.53733  0.06071  0.04390  Biso   1.000  C
  C183     1.0000 0.49393  0.08533  0.11013  Biso   1.000  C
  C184     1.0000 0.49108  0.09737  0.03534  Biso   1.000  C
  C185     1.0000 0.46646  0.12198  0.99763  Biso   1.000  C
  C186     1.0000 0.48703  0.14963  0.93091  Biso   1.000  C
  H110     1.0000 0.51693  0.15217  0.91027  Biso   1.000  H
  C187     1.0000 0.46406  0.17321  0.89504  Biso   1.000  C
  H111     1.0000 0.47843  0.19187  0.85007  Biso   1.000  H
  C188     1.0000 0.42012  0.16980  0.92419  Biso   1.000  C
  C189     1.0000 0.39943  0.14211  0.99037  Biso   1.000  C
  H112     1.0000 0.36953  0.13957  0.01087  Biso   1.000  H
  C190     1.0000 0.42214  0.11840  0.02629  Biso   1.000  C
  H113     1.0000 0.40743  0.09947  0.07097  Biso   1.000  H
  C191     1.0000 0.39426  0.19365  0.88287  Biso   1.000  C
  C192     1.0000 0.47332  0.09476  0.17953  Biso   1.000  C
  C193     1.0000 0.45265  0.05751  0.23529  Biso   1.000  C
  H114     1.0000 0.45233  0.02647  0.22847  Biso   1.000  H
  C194     1.0000 0.43261  0.06559  0.30054  Biso   1.000  C
  H115     1.0000 0.41843  0.03997  0.33807  Biso   1.000  H
  C195     1.0000 0.43322  0.11094  0.31126  Biso   1.000  C
  C196     1.0000 0.45558  0.14888  0.25714  Biso   1.000  C
  H116     1.0000 0.45753  0.18057  0.26527  Biso   1.000  H
  C197     1.0000 0.47505  0.14062  0.19119  Biso   1.000  C
  H117     1.0000 0.48963  0.16647  0.15397  Biso   1.000  H
  C198     1.0000 0.40815  0.11805  0.37914  Biso   1.000  C
  Zn10     1.0000 0.36816  0.14637  0.47660  Biso   1.000  Zn
  N28      1.0000 0.36114  0.10753  0.57631  Biso   1.000  N
  N29      1.0000 0.39547  0.20605  0.55271  Biso   1.000  N
  N30      1.0000 0.41450  0.22882  0.67164  Biso   1.000  N
  H118     1.0000 0.41710  0.22650  0.72080  Biso   1.000  H
  O37      1.0000 0.52060  0.50047  0.75417  Biso   1.000  O
  O38      1.0000 0.54972  0.47041  0.84396  Biso   1.000  O
  O39      1.0000 0.41408  0.37251  0.25291  Biso   1.000  O
  O40      1.0000 0.49665  0.40917  0.26846  Biso   1.000  O
  C199     1.0000 0.34684  0.05844  0.58321  Biso   1.000  C
  H119     1.0000 0.33680  0.03780  0.53930  Biso   1.000  H
  C200     1.0000 0.34627  0.03680  0.65204  Biso   1.000  C
  H120     1.0000 0.33650  0.00200  0.65530  Biso   1.000  H
  C201     1.0000 0.36002  0.06650  0.71583  Biso   1.000  C
  H121     1.0000 0.35940  0.05220  0.76380  Biso   1.000  H
  C202     1.0000 0.37482  0.11728  0.70999  Biso   1.000  C
  H122     1.0000 0.38420  0.13830  0.75350  Biso   1.000  H
  C203     1.0000 0.37554  0.13658  0.63887  Biso   1.000  C
  C204     1.0000 0.39404  0.19004  0.62277  Biso   1.000  C
  C205     1.0000 0.41866  0.25806  0.55654  Biso   1.000  C
  C206     1.0000 0.43070  0.27295  0.63133  Biso   1.000  C
  C207     1.0000 0.45531  0.32218  0.66904  Biso   1.000  C
  C208     1.0000 0.48296  0.32926  0.73576  Biso   1.000  C
  H123     1.0000 0.48550  0.30190  0.75640  Biso   1.000  H
  C209     1.0000 0.50654  0.37581  0.77163  Biso   1.000  C
  H124     1.0000 0.52520  0.38010  0.81660  Biso   1.000  H
  C210     1.0000 0.50313  0.41634  0.74248  Biso   1.000  C
  C211     1.0000 0.47544  0.40934  0.67630  Biso   1.000  C
  H125     1.0000 0.47290  0.43670  0.65580  Biso   1.000  H
  C212     1.0000 0.45173  0.36292  0.64038  Biso   1.000  C
  H126     1.0000 0.43280  0.35870  0.59570  Biso   1.000  H
  C213     1.0000 0.52698  0.46605  0.78380  Biso   1.000  C
  C214     1.0000 0.42809  0.28810  0.48714  Biso   1.000  C
  C215     1.0000 0.39084  0.27152  0.43138  Biso   1.000  C
  H127     1.0000 0.35980  0.24080  0.43820  Biso   1.000  H
  C216     1.0000 0.39892  0.29964  0.36613  Biso   1.000  C
  H128     1.0000 0.37330  0.28820  0.32860  Biso   1.000  H
  C217     1.0000 0.44427  0.34438  0.35541  Biso   1.000  C
  C218     1.0000 0.48221  0.35996  0.40953  Biso   1.000  C
  H129     1.0000 0.51390  0.38970  0.40140  Biso   1.000  H
  C219     1.0000 0.47395  0.33223  0.47548  Biso   1.000  C
  H130     1.0000 0.49980  0.34350  0.51270  Biso   1.000  H
  C220     1.0000 0.45138  0.37656  0.28753  Biso   1.000  C
  Zn11     1.0000 0.03483  0.47970  0.80993  Biso   1.000  Zn
  N31      1.0000 0.02781  0.44086  0.90964  Biso   1.000  N
  N32      1.0000 0.06214  0.53938  0.88604  Biso   1.000  N
  N33      1.0000 0.08117  0.56215  0.00497  Biso   1.000  N
  H131     1.0000 0.08377  0.55983  0.05413  Biso   1.000  H
  O41      1.0000 0.18727  0.83380  0.08750  Biso   1.000  O
  O42      1.0000 0.21639  0.80374  0.17729  Biso   1.000  O
  O43      1.0000 0.08075  0.70584  0.58624  Biso   1.000  O
  O44      1.0000 0.16332  0.74250  0.60179  Biso   1.000  O
  C221     1.0000 0.01351  0.39177  0.91654  Biso   1.000  C
  H132     1.0000 0.00347  0.37113  0.87263  Biso   1.000  H
  C222     1.0000 0.01294  0.37013  0.98537  Biso   1.000  C
  H133     1.0000 0.00317  0.33533  0.98863  Biso   1.000  H
  C223     1.0000 0.02669  0.39983  0.04916  Biso   1.000  C
  H134     1.0000 0.02607  0.38553  0.09713  Biso   1.000  H
  C224     1.0000 0.04149  0.45061  0.04332  Biso   1.000  C
  H135     1.0000 0.05087  0.47163  0.08683  Biso   1.000  H
  C225     1.0000 0.04221  0.46991  0.97220  Biso   1.000  C
  C226     1.0000 0.06071  0.52337  0.95610  Biso   1.000  C
  C227     1.0000 0.08533  0.59139  0.88987  Biso   1.000  C
  C228     1.0000 0.09737  0.60628  0.96466  Biso   1.000  C
  C229     1.0000 0.12198  0.65551  0.00237  Biso   1.000  C
  C230     1.0000 0.14963  0.66259  0.06909  Biso   1.000  C
  H136     1.0000 0.15217  0.63523  0.08973  Biso   1.000  H
  C231     1.0000 0.17321  0.70914  0.10496  Biso   1.000  C
  H137     1.0000 0.19187  0.71343  0.14993  Biso   1.000  H
  C232     1.0000 0.16980  0.74967  0.07581  Biso   1.000  C
  C233     1.0000 0.14211  0.74267  0.00963  Biso   1.000  C
  H138     1.0000 0.13957  0.77003  0.98913  Biso   1.000  H
  C234     1.0000 0.11840  0.69625  0.97371  Biso   1.000  C
  H139     1.0000 0.09947  0.69203  0.92903  Biso   1.000  H
  C235     1.0000 0.19365  0.79938  0.11713  Biso   1.000  C
  C236     1.0000 0.09476  0.62143  0.82047  Biso   1.000  C
  C237     1.0000 0.05751  0.60485  0.76471  Biso   1.000  C
  H140     1.0000 0.02647  0.57413  0.77153  Biso   1.000  H
  C238     1.0000 0.06559  0.63297  0.69946  Biso   1.000  C
  H141     1.0000 0.03997  0.62153  0.66193  Biso   1.000  H
  C239     1.0000 0.11094  0.67771  0.68874  Biso   1.000  C
  C240     1.0000 0.14888  0.69329  0.74286  Biso   1.000  C
  H142     1.0000 0.18057  0.72303  0.73473  Biso   1.000  H
  C241     1.0000 0.14062  0.66556  0.80881  Biso   1.000  C
  H143     1.0000 0.16647  0.67683  0.84603  Biso   1.000  H
  C242     1.0000 0.11805  0.70989  0.62086  Biso   1.000  C
  Zn12     1.0000 0.70149  0.81304  0.14327  Biso   1.000  Zn
  N34      1.0000 0.69447  0.77420  0.24298  Biso   1.000  N
  N35      1.0000 0.72880  0.87272  0.21938  Biso   1.000  N
  N36      1.0000 0.74783  0.89549  0.33831  Biso   1.000  N
  H144     1.0000 0.75043  0.89317  0.38747  Biso   1.000  H
  O45      1.0000 0.85393  0.16714  0.42084  Biso   1.000  O
  O46      1.0000 0.88305  0.13708  0.51063  Biso   1.000  O
  O47      1.0000 0.74741  0.03918  0.91958  Biso   1.000  O
  O48      1.0000 0.82998  0.07584  0.93513  Biso   1.000  O
  C243     1.0000 0.68017  0.72511  0.24988  Biso   1.000  C
  H145     1.0000 0.67013  0.70447  0.20597  Biso   1.000  H
  C244     1.0000 0.67960  0.70347  0.31871  Biso   1.000  C
  H146     1.0000 0.66983  0.66867  0.32197  Biso   1.000  H
  C245     1.0000 0.69335  0.73317  0.38250  Biso   1.000  C
  H147     1.0000 0.69273  0.71887  0.43047  Biso   1.000  H
  C246     1.0000 0.70815  0.78395  0.37666  Biso   1.000  C
  H148     1.0000 0.71753  0.80497  0.42017  Biso   1.000  H
  C247     1.0000 0.70887  0.80325  0.30554  Biso   1.000  C
  C248     1.0000 0.72737  0.85671  0.28944  Biso   1.000  C
  C249     1.0000 0.75199  0.92473  0.22321  Biso   1.000  C
  C250     1.0000 0.76403  0.93962  0.29800  Biso   1.000  C
  C251     1.0000 0.78864  0.98885  0.33571  Biso   1.000  C
  C252     1.0000 0.81629  0.99593  0.40243  Biso   1.000  C
  H149     1.0000 0.81883  0.96857  0.42307  Biso   1.000  H
  C253     1.0000 0.83987  0.04248  0.43830  Biso   1.000  C
  H150     1.0000 0.85853  0.04677  0.48327  Biso   1.000  H
  C254     1.0000 0.83646  0.08301  0.40915  Biso   1.000  C
  C255     1.0000 0.80877  0.07601  0.34297  Biso   1.000  C
  H151     1.0000 0.80623  0.10337  0.32247  Biso   1.000  H
  C256     1.0000 0.78506  0.02959  0.30705  Biso   1.000  C
  H152     1.0000 0.76613  0.02537  0.26237  Biso   1.000  H
  C257     1.0000 0.86031  0.13272  0.45047  Biso   1.000  C
  C258     1.0000 0.76142  0.95477  0.15381  Biso   1.000  C
  C259     1.0000 0.72417  0.93819  0.09805  Biso   1.000  C
  H153     1.0000 0.69313  0.90747  0.10487  Biso   1.000  H
  C260     1.0000 0.73225  0.96631  0.03280  Biso   1.000  C
  H154     1.0000 0.70663  0.95487  0.99527  Biso   1.000  H
  C261     1.0000 0.77760  0.01105  0.02208  Biso   1.000  C
  C262     1.0000 0.81554  0.02663  0.07620  Biso   1.000  C
  H155     1.0000 0.84723  0.05637  0.06807  Biso   1.000  H
  C263     1.0000 0.80728  0.99890  0.14215  Biso   1.000  C
  H156     1.0000 0.83313  0.01017  0.17937  Biso   1.000  H
  C264     1.0000 0.78471  0.04323  0.95420  Biso   1.000  C
  Zn13     1.0000 0.85363  0.22179  0.47660  Biso   1.000  Zn
  N37      1.0000 0.89247  0.25361  0.57631  Biso   1.000  N
  N38      1.0000 0.79395  0.18942  0.55271  Biso   1.000  N
  N39      1.0000 0.77118  0.18568  0.67164  Biso   1.000  N
  H157     1.0000 0.77350  0.19060  0.72080  Biso   1.000  H
  O49      1.0000 0.49953  0.02013  0.75417  Biso   1.000  O
  O50      1.0000 0.52959  0.07931  0.84396  Biso   1.000  O
  O51      1.0000 0.62749  0.04157  0.25291  Biso   1.000  O
  O52      1.0000 0.59083  0.08748  0.26846  Biso   1.000  O
  C265     1.0000 0.94156  0.28840  0.58321  Biso   1.000  C
  H158     1.0000 0.96220  0.29900  0.53930  Biso   1.000  H
  C266     1.0000 0.96320  0.30947  0.65204  Biso   1.000  C
  H159     1.0000 0.99800  0.33450  0.65530  Biso   1.000  H
  C267     1.0000 0.93350  0.29352  0.71583  Biso   1.000  C
  H160     1.0000 0.94780  0.30720  0.76380  Biso   1.000  H
  C268     1.0000 0.88272  0.25754  0.70999  Biso   1.000  C
  H161     1.0000 0.86170  0.24590  0.75350  Biso   1.000  H
  C269     1.0000 0.86342  0.23896  0.63887  Biso   1.000  C
  C270     1.0000 0.80996  0.20400  0.62277  Biso   1.000  C
  C271     1.0000 0.74194  0.16060  0.55654  Biso   1.000  C
  C272     1.0000 0.72705  0.15775  0.63133  Biso   1.000  C
  C273     1.0000 0.67782  0.13313  0.66904  Biso   1.000  C
  C274     1.0000 0.67074  0.15370  0.73576  Biso   1.000  C
  H162     1.0000 0.69810  0.18360  0.75640  Biso   1.000  H
  C275     1.0000 0.62419  0.13073  0.77163  Biso   1.000  C
  H163     1.0000 0.61990  0.14510  0.81660  Biso   1.000  H
  C276     1.0000 0.58366  0.08679  0.74248  Biso   1.000  C
  C277     1.0000 0.59066  0.06610  0.67630  Biso   1.000  C
  H164     1.0000 0.56330  0.03620  0.65580  Biso   1.000  H
  C278     1.0000 0.63708  0.08881  0.64038  Biso   1.000  C
  H165     1.0000 0.64130  0.07410  0.59570  Biso   1.000  H
  C279     1.0000 0.53395  0.06093  0.78380  Biso   1.000  C
  C280     1.0000 0.71190  0.13999  0.48714  Biso   1.000  C
  C281     1.0000 0.72848  0.11932  0.43138  Biso   1.000  C
  H166     1.0000 0.75920  0.11900  0.43820  Biso   1.000  H
  C282     1.0000 0.70036  0.09928  0.36613  Biso   1.000  C
  H167     1.0000 0.71180  0.08510  0.32860  Biso   1.000  H
  C283     1.0000 0.65562  0.09989  0.35541  Biso   1.000  C
  C284     1.0000 0.64004  0.12225  0.40953  Biso   1.000  C
  H168     1.0000 0.61030  0.12420  0.40140  Biso   1.000  H
  C285     1.0000 0.66777  0.14172  0.47548  Biso   1.000  C
  H169     1.0000 0.65650  0.15630  0.51270  Biso   1.000  H
  C286     1.0000 0.62344  0.07482  0.28753  Biso   1.000  C
  Zn14     1.0000 0.52030  0.55512  0.80993  Biso   1.000  Zn
  N40      1.0000 0.55914  0.58694  0.90964  Biso   1.000  N
  N41      1.0000 0.46062  0.52275  0.88604  Biso   1.000  N
  N42      1.0000 0.43785  0.51901  0.00497  Biso   1.000  N
  H170     1.0000 0.44017  0.52393  0.05413  Biso   1.000  H
  O53      1.0000 0.16620  0.35346  0.08750  Biso   1.000  O
  O54      1.0000 0.19626  0.41264  0.17729  Biso   1.000  O
  O55      1.0000 0.29416  0.37490  0.58624  Biso   1.000  O
  O56      1.0000 0.25750  0.42081  0.60179  Biso   1.000  O
  C287     1.0000 0.60823  0.62173  0.91654  Biso   1.000  C
  H171     1.0000 0.62887  0.63233  0.87263  Biso   1.000  H
  C288     1.0000 0.62987  0.64280  0.98537  Biso   1.000  C
  H172     1.0000 0.66467  0.66783  0.98863  Biso   1.000  H
  C289     1.0000 0.60017  0.62685  0.04916  Biso   1.000  C
  H173     1.0000 0.61447  0.64053  0.09713  Biso   1.000  H
  C290     1.0000 0.54939  0.59087  0.04332  Biso   1.000  C
  H174     1.0000 0.52837  0.57923  0.08683  Biso   1.000  H
  C291     1.0000 0.53009  0.57229  0.97220  Biso   1.000  C
  C292     1.0000 0.47663  0.53733  0.95610  Biso   1.000  C
  C293     1.0000 0.40861  0.49393  0.88987  Biso   1.000  C
  C294     1.0000 0.39372  0.49108  0.96466  Biso   1.000  C
  C295     1.0000 0.34449  0.46646  0.00237  Biso   1.000  C
  C296     1.0000 0.33741  0.48703  0.06909  Biso   1.000  C
  H175     1.0000 0.36477  0.51693  0.08973  Biso   1.000  H
  C297     1.0000 0.29086  0.46406  0.10496  Biso   1.000  C
  H176     1.0000 0.28657  0.47843  0.14993  Biso   1.000  H
  C298     1.0000 0.25033  0.42012  0.07581  Biso   1.000  C
  C299     1.0000 0.25733  0.39943  0.00963  Biso   1.000  C
  H177     1.0000 0.22997  0.36953  0.98913  Biso   1.000  H
  C300     1.0000 0.30375  0.42214  0.97371  Biso   1.000  C
  H178     1.0000 0.30797  0.40743  0.92903  Biso   1.000  H
  C301     1.0000 0.20062  0.39426  0.11713  Biso   1.000  C
  C302     1.0000 0.37857  0.47332  0.82047  Biso   1.000  C
  C303     1.0000 0.39515  0.45265  0.76471  Biso   1.000  C
  H179     1.0000 0.42587  0.45233  0.77153  Biso   1.000  H
  C304     1.0000 0.36703  0.43261  0.69946  Biso   1.000  C
  H180     1.0000 0.37847  0.41843  0.66193  Biso   1.000  H
  C305     1.0000 0.32229  0.43322  0.68874  Biso   1.000  C
  C306     1.0000 0.30671  0.45558  0.74286  Biso   1.000  C
  H181     1.0000 0.27697  0.45753  0.73473  Biso   1.000  H
  C307     1.0000 0.33444  0.47505  0.80881  Biso   1.000  C
  H182     1.0000 0.32317  0.48963  0.84603  Biso   1.000  H
  C308     1.0000 0.29011  0.40815  0.62086  Biso   1.000  C
  Zn15     1.0000 0.18696  0.88846  0.14327  Biso   1.000  Zn
  N43      1.0000 0.22580  0.92028  0.24298  Biso   1.000  N
  N44      1.0000 0.12728  0.85609  0.21938  Biso   1.000  N
  N45      1.0000 0.10451  0.85235  0.33831  Biso   1.000  N
  H183     1.0000 0.10683  0.85727  0.38747  Biso   1.000  H
  O57      1.0000 0.83286  0.68680  0.42084  Biso   1.000  O
  O58      1.0000 0.86292  0.74598  0.51063  Biso   1.000  O
  O59      1.0000 0.96082  0.70824  0.91958  Biso   1.000  O
  O60      1.0000 0.92416  0.75415  0.93513  Biso   1.000  O
  C309     1.0000 0.27489  0.95507  0.24988  Biso   1.000  C
  H184     1.0000 0.29553  0.96567  0.20597  Biso   1.000  H
  C310     1.0000 0.29653  0.97614  0.31871  Biso   1.000  C
  H185     1.0000 0.33133  0.00117  0.32197  Biso   1.000  H
  C311     1.0000 0.26683  0.96019  0.38250  Biso   1.000  C
  H186     1.0000 0.28113  0.97387  0.43047  Biso   1.000  H
  C312     1.0000 0.21605  0.92421  0.37666  Biso   1.000  C
  H187     1.0000 0.19503  0.91257  0.42017  Biso   1.000  H
  C313     1.0000 0.19675  0.90563  0.30554  Biso   1.000  C
  C314     1.0000 0.14329  0.87067  0.28944  Biso   1.000  C
  C315     1.0000 0.07527  0.82727  0.22321  Biso   1.000  C
  C316     1.0000 0.06038  0.82442  0.29800  Biso   1.000  C
  C317     1.0000 0.01115  0.79980  0.33571  Biso   1.000  C
  C318     1.0000 0.00407  0.82037  0.40243  Biso   1.000  C
  H188     1.0000 0.03143  0.85027  0.42307  Biso   1.000  H
  C319     1.0000 0.95752  0.79740  0.43830  Biso   1.000  C
  H189     1.0000 0.95323  0.81177  0.48327  Biso   1.000  H
  C320     1.0000 0.91699  0.75346  0.40915  Biso   1.000  C
  C321     1.0000 0.92399  0.73277  0.34297  Biso   1.000  C
  H190     1.0000 0.89663  0.70287  0.32247  Biso   1.000  H
  C322     1.0000 0.97041  0.75548  0.30705  Biso   1.000  C
  H191     1.0000 0.97463  0.74077  0.26237  Biso   1.000  H
  C323     1.0000 0.86728  0.72760  0.45047  Biso   1.000  C
  C324     1.0000 0.04523  0.80666  0.15381  Biso   1.000  C
  C325     1.0000 0.06181  0.78599  0.09805  Biso   1.000  C
  H192     1.0000 0.09253  0.78567  0.10487  Biso   1.000  H
  C326     1.0000 0.03369  0.76595  0.03280  Biso   1.000  C
  H193     1.0000 0.04513  0.75177  0.99527  Biso   1.000  H
  C327     1.0000 0.98895  0.76656  0.02208  Biso   1.000  C
  C328     1.0000 0.97337  0.78892  0.07620  Biso   1.000  C
  H194     1.0000 0.94363  0.79087  0.06807  Biso   1.000  H
  C329     1.0000 0.00110  0.80839  0.14215  Biso   1.000  C
  H195     1.0000 0.98983  0.82297  0.17937  Biso   1.000  H
  C330     1.0000 0.95677  0.74149  0.95420  Biso   1.000  C
  Zn16     1.0000 0.77821  0.63184  0.47660  Biso   1.000  Zn
  N46      1.0000 0.74639  0.63886  0.57631  Biso   1.000  N
  N47      1.0000 0.81058  0.60453  0.55271  Biso   1.000  N
  N48      1.0000 0.81432  0.58550  0.67164  Biso   1.000  N
  H196     1.0000 0.80940  0.58290  0.72080  Biso   1.000  H
  O61      1.0000 0.97987  0.47940  0.75417  Biso   1.000  O
  O62      1.0000 0.92069  0.45028  0.84396  Biso   1.000  O
  O63      1.0000 0.95843  0.58592  0.25291  Biso   1.000  O
  O64      1.0000 0.91252  0.50335  0.26846  Biso   1.000  O
  C331     1.0000 0.71160  0.65316  0.58321  Biso   1.000  C
  H197     1.0000 0.70100  0.66320  0.53930  Biso   1.000  H
  C332     1.0000 0.69053  0.65373  0.65204  Biso   1.000  C
  H198     1.0000 0.66550  0.66350  0.65530  Biso   1.000  H
  C333     1.0000 0.70648  0.63998  0.71583  Biso   1.000  C
  H199     1.0000 0.69280  0.64060  0.76380  Biso   1.000  H
  C334     1.0000 0.74246  0.62518  0.70999  Biso   1.000  C
  H200     1.0000 0.75410  0.61580  0.75350  Biso   1.000  H
  C335     1.0000 0.76104  0.62446  0.63887  Biso   1.000  C
  C336     1.0000 0.79600  0.60596  0.62277  Biso   1.000  C
  C337     1.0000 0.83940  0.58134  0.55654  Biso   1.000  C
  C338     1.0000 0.84225  0.56930  0.63133  Biso   1.000  C
  C339     1.0000 0.86687  0.54469  0.66904  Biso   1.000  C
  C340     1.0000 0.84630  0.51704  0.73576  Biso   1.000  C
  H201     1.0000 0.81640  0.51450  0.75640  Biso   1.000  H
  C341     1.0000 0.86927  0.49346  0.77163  Biso   1.000  C
  H202     1.0000 0.85490  0.47480  0.81660  Biso   1.000  H
  C342     1.0000 0.91321  0.49687  0.74248  Biso   1.000  C
  C343     1.0000 0.93390  0.52456  0.67630  Biso   1.000  C
  H203     1.0000 0.96380  0.52710  0.65580  Biso   1.000  H
  C344     1.0000 0.91119  0.54827  0.64038  Biso   1.000  C
  H204     1.0000 0.92590  0.56720  0.59570  Biso   1.000  H
  C345     1.0000 0.93907  0.47302  0.78380  Biso   1.000  C
  C346     1.0000 0.86001  0.57191  0.48714  Biso   1.000  C
  C347     1.0000 0.88068  0.60916  0.43138  Biso   1.000  C
  H205     1.0000 0.88100  0.64020  0.43820  Biso   1.000  H
  C348     1.0000 0.90072  0.60108  0.36613  Biso   1.000  C
  H206     1.0000 0.91490  0.62670  0.32860  Biso   1.000  H
  C349     1.0000 0.90011  0.55573  0.35541  Biso   1.000  C
  C350     1.0000 0.87775  0.51779  0.40953  Biso   1.000  C
  H207     1.0000 0.87580  0.48610  0.40140  Biso   1.000  H
  C351     1.0000 0.85828  0.52605  0.47548  Biso   1.000  C
  H208     1.0000 0.84370  0.50020  0.51270  Biso   1.000  H
  C352     1.0000 0.92518  0.54862  0.28753  Biso   1.000  C
  Zn17     1.0000 0.44488  0.96517  0.80993  Biso   1.000  Zn
  N49      1.0000 0.41306  0.97219  0.90964  Biso   1.000  N
  N50      1.0000 0.47725  0.93786  0.88604  Biso   1.000  N
  N51      1.0000 0.48099  0.91883  0.00497  Biso   1.000  N
  H209     1.0000 0.47607  0.91623  0.05413  Biso   1.000  H
  O65      1.0000 0.64654  0.81273  0.08750  Biso   1.000  O
  O66      1.0000 0.58736  0.78361  0.17729  Biso   1.000  O
  O67      1.0000 0.62510  0.91925  0.58624  Biso   1.000  O
  O68      1.0000 0.57919  0.83668  0.60179  Biso   1.000  O
  C353     1.0000 0.37827  0.98649  0.91654  Biso   1.000  C
  H210     1.0000 0.36767  0.99653  0.87263  Biso   1.000  H
  C354     1.0000 0.35720  0.98706  0.98537  Biso   1.000  C
  H211     1.0000 0.33217  0.99683  0.98863  Biso   1.000  H
  C355     1.0000 0.37315  0.97331  0.04916  Biso   1.000  C
  H212     1.0000 0.35947  0.97393  0.09713  Biso   1.000  H
  C356     1.0000 0.40913  0.95851  0.04332  Biso   1.000  C
  H213     1.0000 0.42077  0.94913  0.08683  Biso   1.000  H
  C357     1.0000 0.42771  0.95779  0.97220  Biso   1.000  C
  C358     1.0000 0.46267  0.93929  0.95610  Biso   1.000  C
  C359     1.0000 0.50607  0.91467  0.88987  Biso   1.000  C
  C360     1.0000 0.50892  0.90263  0.96466  Biso   1.000  C
  C361     1.0000 0.53354  0.87802  0.00237  Biso   1.000  C
  C362     1.0000 0.51297  0.85037  0.06909  Biso   1.000  C
  H214     1.0000 0.48307  0.84783  0.08973  Biso   1.000  H
  C363     1.0000 0.53594  0.82679  0.10496  Biso   1.000  C
  H215     1.0000 0.52157  0.80813  0.14993  Biso   1.000  H
  C364     1.0000 0.57988  0.83020  0.07581  Biso   1.000  C
  C365     1.0000 0.60057  0.85789  0.00963  Biso   1.000  C
  H216     1.0000 0.63047  0.86043  0.98913  Biso   1.000  H
  C366     1.0000 0.57786  0.88160  0.97371  Biso   1.000  C
  H217     1.0000 0.59257  0.90053  0.92903  Biso   1.000  H
  C367     1.0000 0.60574  0.80635  0.11713  Biso   1.000  C
  C368     1.0000 0.52668  0.90524  0.82047  Biso   1.000  C
  C369     1.0000 0.54735  0.94249  0.76471  Biso   1.000  C
  H218     1.0000 0.54767  0.97353  0.77153  Biso   1.000  H
  C370     1.0000 0.56739  0.93441  0.69946  Biso   1.000  C
  H219     1.0000 0.58157  0.96003  0.66193  Biso   1.000  H
  C371     1.0000 0.56678  0.88906  0.68874  Biso   1.000  C
  C372     1.0000 0.54442  0.85112  0.74286  Biso   1.000  C
  H220     1.0000 0.54247  0.81943  0.73473  Biso   1.000  H
  C373     1.0000 0.52495  0.85938  0.80881  Biso   1.000  C
  H221     1.0000 0.51037  0.83353  0.84603  Biso   1.000  H
  C374     1.0000 0.59185  0.88195  0.62086  Biso   1.000  C
  Zn18     1.0000 0.11154  0.29851  0.14327  Biso   1.000  Zn
  N52      1.0000 0.07972  0.30553  0.24298  Biso   1.000  N
  N53      1.0000 0.14391  0.27120  0.21938  Biso   1.000  N
  N54      1.0000 0.14765  0.25217  0.33831  Biso   1.000  N
  H222     1.0000 0.14273  0.24957  0.38747  Biso   1.000  H
  O69      1.0000 0.31320  0.14607  0.42084  Biso   1.000  O
  O70      1.0000 0.25402  0.11695  0.51063  Biso   1.000  O
  O71      1.0000 0.29176  0.25259  0.91958  Biso   1.000  O
  O72      1.0000 0.24585  0.17002  0.93513  Biso   1.000  O
  C375     1.0000 0.04493  0.31983  0.24988  Biso   1.000  C
  H223     1.0000 0.03433  0.32987  0.20597  Biso   1.000  H
  C376     1.0000 0.02386  0.32040  0.31871  Biso   1.000  C
  H224     1.0000 0.99883  0.33017  0.32197  Biso   1.000  H
  C377     1.0000 0.03981  0.30665  0.38250  Biso   1.000  C
  H225     1.0000 0.02613  0.30727  0.43047  Biso   1.000  H
  C378     1.0000 0.07579  0.29185  0.37666  Biso   1.000  C
  H226     1.0000 0.08743  0.28247  0.42017  Biso   1.000  H
  C379     1.0000 0.09437  0.29113  0.30554  Biso   1.000  C
  C380     1.0000 0.12933  0.27263  0.28944  Biso   1.000  C
  C381     1.0000 0.17273  0.24801  0.22321  Biso   1.000  C
  C382     1.0000 0.17558  0.23597  0.29800  Biso   1.000  C
  C383     1.0000 0.20020  0.21136  0.33571  Biso   1.000  C
  C384     1.0000 0.17963  0.18371  0.40243  Biso   1.000  C
  H227     1.0000 0.14973  0.18117  0.42307  Biso   1.000  H
  C385     1.0000 0.20260  0.16013  0.43830  Biso   1.000  C
  H228     1.0000 0.18823  0.14147  0.48327  Biso   1.000  H
  C386     1.0000 0.24654  0.16354  0.40915  Biso   1.000  C
  C387     1.0000 0.26723  0.19123  0.34297  Biso   1.000  C
  H229     1.0000 0.29713  0.19377  0.32247  Biso   1.000  H
  C388     1.0000 0.24452  0.21494  0.30705  Biso   1.000  C
  H230     1.0000 0.25923  0.23387  0.26237  Biso   1.000  H
  C389     1.0000 0.27240  0.13969  0.45047  Biso   1.000  C
  C390     1.0000 0.19334  0.23858  0.15381  Biso   1.000  C
  C391     1.0000 0.21401  0.27583  0.09805  Biso   1.000  C
  H231     1.0000 0.21433  0.30687  0.10487  Biso   1.000  H
  C392     1.0000 0.23405  0.26775  0.03280  Biso   1.000  C
  H232     1.0000 0.24823  0.29337  0.99527  Biso   1.000  H
  C393     1.0000 0.23344  0.22240  0.02208  Biso   1.000  C
  C394     1.0000 0.21108  0.18446  0.07620  Biso   1.000  C
  H233     1.0000 0.20913  0.15277  0.06807  Biso   1.000  H
  C395     1.0000 0.19161  0.19272  0.14215  Biso   1.000  C
  H234     1.0000 0.17703  0.16687  0.17937  Biso   1.000  H
  C396     1.0000 0.25851  0.21529  0.95420  Biso   1.000  C
