data_OCUNAC_clean5b
_audit_creation_date              2014-07-02
_audit_creation_method            'Materials Studio'
_symmetry_space_group_name_H-M    'P1'
_symmetry_Int_Tables_number       1
_symmetry_cell_setting            triclinic
loop_
_symmetry_equiv_pos_as_xyz
  x,y,z
_cell_length_a                    62.8399
_cell_length_b                    62.8399
_cell_length_c                    62.8399
_cell_angle_alpha                 60.0000
_cell_angle_beta                  60.0000
_cell_angle_gamma                 60.0000
loop_
_atom_site_label
_atom_site_type_symbol
_atom_site_fract_x
_atom_site_fract_y
_atom_site_fract_z
_atom_site_U_iso_or_equiv
_atom_site_adp_type
_atom_site_occupancy
Cr1    Cr    0.11423   0.28384   0.65770   0.01267  Uiso   1.00
Cr2    Cr    0.30656   0.35963   0.53034   0.01267  Uiso   1.00
C1     C     0.42240   0.46092   0.54723   0.01267  Uiso   1.00
C2     C     0.36102   0.39955   0.51247   0.01267  Uiso   1.00
C3     C     0.37603   0.41455   0.50403   0.01267  Uiso   1.00
C4     C     0.31679   0.40521   0.42746   0.01267  Uiso   1.00
C5     C     0.31227   0.38220   0.47489   0.01267  Uiso   1.00
C6     C     0.31089   0.40641   0.45167   0.01267  Uiso   1.00
C7     C     0.30458   0.43068   0.45304   0.01267  Uiso   1.00
C8     C     0.18594   0.20837   0.64843   0.01267  Uiso   1.00
C9     C     0.15936   0.25305   0.62501   0.01267  Uiso   1.00
C10    C     0.18218   0.22795   0.62494   0.01267  Uiso   1.00
C11    C     0.20145   0.22390   0.60143   0.01267  Uiso   1.00
C12    C     0.16297   0.26799   0.70516   0.01267  Uiso   1.00
C13    C     0.14404   0.29961   0.66831   0.01267  Uiso   1.00
C14    C     0.15870   0.29240   0.68530   0.01267  Uiso   1.00
C15    C     0.17681   0.26152   0.72083   0.01267  Uiso   1.00
C16    C     0.20310   0.27199   0.73261   0.01267  Uiso   1.00
C17    C     0.18675   0.27927   0.71726   0.01267  Uiso   1.00
C18    C     0.16851   0.31016   0.68190   0.01267  Uiso   1.00
C19    C     0.18222   0.30374   0.69757   0.01267  Uiso   1.00
C20    C     0.28425   0.32264   0.62099   0.01267  Uiso   1.00
C21    C     0.27520   0.31363   0.64841   0.01267  Uiso   1.00
C22    C     0.32224   0.24194   0.53632   0.01267  Uiso   1.00
C23    C     0.34166   0.27304   0.52830   0.01267  Uiso   1.00
C24    C     0.33972   0.24672   0.53987   0.01267  Uiso   1.00
C25    C     0.31889   0.21750   0.54938   0.01267  Uiso   1.00
C26    C     0.07796   0.33257   0.66808   0.01267  Uiso   1.00
C27    C     0.33299   0.19747   0.56615   0.01267  Uiso   1.00
C28    C     0.35438   0.22638   0.55592   0.01267  Uiso   1.00
C29    C     0.35111   0.20213   0.56881   0.01267  Uiso   1.00
O1     O     0.42559   0.46103   0.50214   0.01267  Uiso   1.00
O2     O     0.33327   0.36883   0.52525   0.01267  Uiso   1.00
O3     O     0.40801   0.44352   0.48477   0.01267  Uiso   1.00
O4     O     0.30637   0.38370   0.49673   0.01267  Uiso   1.00
O5     O     0.36082   0.31969   0.47176   0.01267  Uiso   1.00
O6     O     0.14341   0.25626   0.64681   0.01267  Uiso   1.00
O7     O     0.09285   0.28098   0.64670   0.01267  Uiso   1.00
O8     O     0.13396   0.28390   0.67277   0.01267  Uiso   1.00
O9     O     0.14205   0.32149   0.65000   0.01267  Uiso   1.00
O10    O     0.20797   0.24927   0.74940   0.01267  Uiso   1.00
O11    O     0.21218   0.28867   0.72771   0.01267  Uiso   1.00
O12    O     0.30379   0.33926   0.56556   0.01267  Uiso   1.00
O13    O     0.25801   0.29346   0.70249   0.01267  Uiso   1.00
O14    O     0.33112   0.29016   0.51111   0.01267  Uiso   1.00
O15    O     0.27746   0.35332   0.53657   0.01267  Uiso   1.00
O16    O     0.08410   0.30855   0.67227   0.01267  Uiso   1.00
O17    O     0.15737   0.33907   0.59943   0.01267  Uiso   1.00
H1     H     0.40729   0.47622   0.53902   0.01267  Uiso   1.00
H2     H     0.34037   0.40917   0.51532   0.01267  Uiso   1.00
H3     H     0.36649   0.43529   0.50073   0.01267  Uiso   1.00
H4     H     0.32174   0.38695   0.42554   0.01267  Uiso   1.00
H5     H     0.29999   0.43236   0.47131   0.01267  Uiso   1.00
H6     H     0.17176   0.21061   0.66698   0.01267  Uiso   1.00
H7     H     0.19950   0.23842   0.58290   0.01267  Uiso   1.00
H8     H     0.15579   0.25374   0.70849   0.01267  Uiso   1.00
H9     H     0.17998   0.24241   0.73557   0.01267  Uiso   1.00
H10    H     0.16567   0.32917   0.66698   0.01267  Uiso   1.00
H11    H     0.18961   0.31797   0.69394   0.01267  Uiso   1.00
H12    H     0.27242   0.34107   0.61090   0.01267  Uiso   1.00
H13    H     0.25665   0.32549   0.65835   0.01267  Uiso   1.00
H14    H     0.31059   0.25730   0.52408   0.01267  Uiso   1.00
H15    H     0.30483   0.21452   0.54690   0.01267  Uiso   1.00
H16    H     0.36814   0.22928   0.55895   0.01267  Uiso   1.00
H17    H     0.36260   0.18711   0.58131   0.01267  Uiso   1.00
Cr3    Cr    0.28384   0.11423   0.94423   0.01267  Uiso   1.00
Cr4    Cr    0.35963   0.30656   0.80348   0.01267  Uiso   1.00
C30    C     0.46092   0.42240   0.56944   0.01267  Uiso   1.00
C31    C     0.39955   0.36102   0.72696   0.01267  Uiso   1.00
C32    C     0.41455   0.37603   0.70539   0.01267  Uiso   1.00
C33    C     0.40521   0.31679   0.85054   0.01267  Uiso   1.00
C34    C     0.38220   0.31227   0.83063   0.01267  Uiso   1.00
C35    C     0.40641   0.31089   0.83104   0.01267  Uiso   1.00
C36    C     0.43068   0.30458   0.81170   0.01267  Uiso   1.00
C37    C     0.20837   0.18594   0.95726   0.01267  Uiso   1.00
C38    C     0.25305   0.15936   0.96258   0.01267  Uiso   1.00
C39    C     0.22795   0.18218   0.96494   0.01267  Uiso   1.00
C40    C     0.22390   0.20145   0.97322   0.01267  Uiso   1.00
C41    C     0.26799   0.16297   0.86389   0.01267  Uiso   1.00
C42    C     0.29961   0.14404   0.88804   0.01267  Uiso   1.00
C43    C     0.29240   0.15870   0.86360   0.01267  Uiso   1.00
C44    C     0.26152   0.17681   0.84085   0.01267  Uiso   1.00
C45    C     0.27199   0.20310   0.79230   0.01267  Uiso   1.00
C46    C     0.27927   0.18675   0.81672   0.01267  Uiso   1.00
C47    C     0.31016   0.16851   0.83943   0.01267  Uiso   1.00
C48    C     0.30374   0.18222   0.81647   0.01267  Uiso   1.00
C49    C     0.32264   0.28425   0.77212   0.01267  Uiso   1.00
C50    C     0.31363   0.27520   0.76276   0.01267  Uiso   1.00
C51    C     0.24194   0.32224   0.89950   0.01267  Uiso   1.00
C52    C     0.27304   0.34166   0.85700   0.01267  Uiso   1.00
C53    C     0.24672   0.33972   0.87369   0.01267  Uiso   1.00
C54    C     0.21750   0.31889   0.91423   0.01267  Uiso   1.00
C55    C     0.33257   0.07796   0.92138   0.01267  Uiso   1.00
C56    C     0.19747   0.33299   0.90339   0.01267  Uiso   1.00
C57    C     0.22638   0.35438   0.86331   0.01267  Uiso   1.00
C58    C     0.20213   0.35111   0.87794   0.01267  Uiso   1.00
O18    O     0.46103   0.42559   0.61124   0.01267  Uiso   1.00
O19    O     0.36883   0.33327   0.77265   0.01267  Uiso   1.00
O20    O     0.44352   0.40801   0.66370   0.01267  Uiso   1.00
O21    O     0.38370   0.30637   0.81320   0.01267  Uiso   1.00
O22    O     0.31969   0.36082   0.84773   0.01267  Uiso   1.00
O23    O     0.25626   0.14341   0.95352   0.01267  Uiso   1.00
O24    O     0.28098   0.09285   0.97946   0.01267  Uiso   1.00
O25    O     0.28390   0.13396   0.90937   0.01267  Uiso   1.00
O26    O     0.32149   0.14205   0.88647   0.01267  Uiso   1.00
O27    O     0.24927   0.20797   0.79336   0.01267  Uiso   1.00
O28    O     0.28867   0.21218   0.77143   0.01267  Uiso   1.00
O29    O     0.33926   0.30379   0.79140   0.01267  Uiso   1.00
O30    O     0.29346   0.25801   0.74604   0.01267  Uiso   1.00
O31    O     0.29016   0.33112   0.86762   0.01267  Uiso   1.00
O32    O     0.35332   0.27746   0.83264   0.01267  Uiso   1.00
O33    O     0.30855   0.08410   0.93508   0.01267  Uiso   1.00
O34    O     0.33907   0.15737   0.90414   0.01267  Uiso   1.00
H18    H     0.47622   0.40729   0.57747   0.01267  Uiso   1.00
H19    H     0.40917   0.34037   0.73515   0.01267  Uiso   1.00
H20    H     0.43529   0.36649   0.69749   0.01267  Uiso   1.00
H21    H     0.38695   0.32174   0.86577   0.01267  Uiso   1.00
H22    H     0.43236   0.29999   0.79634   0.01267  Uiso   1.00
H23    H     0.21061   0.17176   0.95064   0.01267  Uiso   1.00
H24    H     0.23842   0.19950   0.97918   0.01267  Uiso   1.00
H25    H     0.25374   0.15579   0.88199   0.01267  Uiso   1.00
H26    H     0.24241   0.17998   0.84203   0.01267  Uiso   1.00
H27    H     0.32917   0.16567   0.83819   0.01267  Uiso   1.00
H28    H     0.31797   0.18961   0.79849   0.01267  Uiso   1.00
H29    H     0.34107   0.27242   0.77561   0.01267  Uiso   1.00
H30    H     0.32549   0.25665   0.75951   0.01267  Uiso   1.00
H31    H     0.25730   0.31059   0.90802   0.01267  Uiso   1.00
H32    H     0.21452   0.30483   0.93376   0.01267  Uiso   1.00
H33    H     0.22928   0.36814   0.84363   0.01267  Uiso   1.00
H34    H     0.18711   0.36260   0.86898   0.01267  Uiso   1.00
Cr5    Cr    0.65770   0.94423   0.11423   0.01267  Uiso   1.00
Cr6    Cr    0.53034   0.80348   0.30656   0.01267  Uiso   1.00
C59    C     0.54723   0.56944   0.42240   0.01267  Uiso   1.00
C60    C     0.51247   0.72696   0.36102   0.01267  Uiso   1.00
C61    C     0.50403   0.70539   0.37603   0.01267  Uiso   1.00
C62    C     0.42746   0.85054   0.31679   0.01267  Uiso   1.00
C63    C     0.47489   0.83063   0.31227   0.01267  Uiso   1.00
C64    C     0.45167   0.83104   0.31089   0.01267  Uiso   1.00
C65    C     0.45304   0.81170   0.30458   0.01267  Uiso   1.00
C66    C     0.64843   0.95726   0.18594   0.01267  Uiso   1.00
C67    C     0.62501   0.96258   0.15936   0.01267  Uiso   1.00
C68    C     0.62494   0.96494   0.18218   0.01267  Uiso   1.00
C69    C     0.60143   0.97322   0.20145   0.01267  Uiso   1.00
C70    C     0.70516   0.86389   0.16297   0.01267  Uiso   1.00
C71    C     0.66831   0.88804   0.14404   0.01267  Uiso   1.00
C72    C     0.68530   0.86360   0.15870   0.01267  Uiso   1.00
C73    C     0.72083   0.84085   0.17681   0.01267  Uiso   1.00
C74    C     0.73261   0.79230   0.20310   0.01267  Uiso   1.00
C75    C     0.71726   0.81672   0.18675   0.01267  Uiso   1.00
C76    C     0.68190   0.83943   0.16851   0.01267  Uiso   1.00
C77    C     0.69757   0.81647   0.18222   0.01267  Uiso   1.00
C78    C     0.62099   0.77212   0.28425   0.01267  Uiso   1.00
C79    C     0.64841   0.76276   0.27520   0.01267  Uiso   1.00
C80    C     0.53632   0.89950   0.32224   0.01267  Uiso   1.00
C81    C     0.52830   0.85700   0.34166   0.01267  Uiso   1.00
C82    C     0.53987   0.87369   0.33972   0.01267  Uiso   1.00
C83    C     0.54938   0.91423   0.31889   0.01267  Uiso   1.00
C84    C     0.66808   0.92138   0.07796   0.01267  Uiso   1.00
C85    C     0.56615   0.90339   0.33299   0.01267  Uiso   1.00
C86    C     0.55592   0.86331   0.35438   0.01267  Uiso   1.00
C87    C     0.56881   0.87794   0.35111   0.01267  Uiso   1.00
O35    O     0.50214   0.61124   0.42559   0.01267  Uiso   1.00
O36    O     0.52525   0.77265   0.33327   0.01267  Uiso   1.00
O37    O     0.48477   0.66370   0.40801   0.01267  Uiso   1.00
O38    O     0.49673   0.81320   0.30637   0.01267  Uiso   1.00
O39    O     0.47176   0.84773   0.36082   0.01267  Uiso   1.00
O40    O     0.64681   0.95352   0.14341   0.01267  Uiso   1.00
O41    O     0.64670   0.97946   0.09285   0.01267  Uiso   1.00
O42    O     0.67277   0.90937   0.13396   0.01267  Uiso   1.00
O43    O     0.65000   0.88647   0.14205   0.01267  Uiso   1.00
O44    O     0.74940   0.79336   0.20797   0.01267  Uiso   1.00
O45    O     0.72771   0.77143   0.21218   0.01267  Uiso   1.00
O46    O     0.56556   0.79140   0.30379   0.01267  Uiso   1.00
O47    O     0.70249   0.74604   0.25801   0.01267  Uiso   1.00
O48    O     0.51111   0.86762   0.33112   0.01267  Uiso   1.00
O49    O     0.53657   0.83264   0.27746   0.01267  Uiso   1.00
O50    O     0.67227   0.93508   0.08410   0.01267  Uiso   1.00
O51    O     0.59943   0.90414   0.15737   0.01267  Uiso   1.00
H35    H     0.53902   0.57747   0.40729   0.01267  Uiso   1.00
H36    H     0.51532   0.73515   0.34037   0.01267  Uiso   1.00
H37    H     0.50073   0.69749   0.36649   0.01267  Uiso   1.00
H38    H     0.42554   0.86577   0.32174   0.01267  Uiso   1.00
H39    H     0.47131   0.79634   0.29999   0.01267  Uiso   1.00
H40    H     0.66698   0.95064   0.17176   0.01267  Uiso   1.00
H41    H     0.58290   0.97918   0.19950   0.01267  Uiso   1.00
H42    H     0.70849   0.88199   0.15579   0.01267  Uiso   1.00
H43    H     0.73557   0.84203   0.17998   0.01267  Uiso   1.00
H44    H     0.66698   0.83819   0.16567   0.01267  Uiso   1.00
H45    H     0.69394   0.79849   0.18961   0.01267  Uiso   1.00
H46    H     0.61090   0.77561   0.27242   0.01267  Uiso   1.00
H47    H     0.65835   0.75951   0.25665   0.01267  Uiso   1.00
H48    H     0.52408   0.90802   0.31059   0.01267  Uiso   1.00
H49    H     0.54690   0.93376   0.30483   0.01267  Uiso   1.00
H50    H     0.55895   0.84363   0.36814   0.01267  Uiso   1.00
H51    H     0.58131   0.86898   0.36260   0.01267  Uiso   1.00
Cr7    Cr    0.94423   0.65770   0.28384   0.01267  Uiso   1.00
Cr8    Cr    0.80348   0.53034   0.35963   0.01267  Uiso   1.00
C88    C     0.56944   0.54723   0.46092   0.01267  Uiso   1.00
C89    C     0.72696   0.51247   0.39955   0.01267  Uiso   1.00
C90    C     0.70539   0.50403   0.41455   0.01267  Uiso   1.00
C91    C     0.85054   0.42746   0.40521   0.01267  Uiso   1.00
C92    C     0.83063   0.47489   0.38220   0.01267  Uiso   1.00
C93    C     0.83104   0.45167   0.40641   0.01267  Uiso   1.00
C94    C     0.81170   0.45304   0.43068   0.01267  Uiso   1.00
C95    C     0.95726   0.64843   0.20837   0.01267  Uiso   1.00
C96    C     0.96258   0.62501   0.25305   0.01267  Uiso   1.00
C97    C     0.96494   0.62494   0.22795   0.01267  Uiso   1.00
C98    C     0.97322   0.60143   0.22390   0.01267  Uiso   1.00
C99    C     0.86389   0.70516   0.26799   0.01267  Uiso   1.00
C100   C     0.88804   0.66831   0.29961   0.01267  Uiso   1.00
C101   C     0.86360   0.68530   0.29240   0.01267  Uiso   1.00
C102   C     0.84085   0.72083   0.26152   0.01267  Uiso   1.00
C103   C     0.79230   0.73261   0.27199   0.01267  Uiso   1.00
C104   C     0.81672   0.71726   0.27927   0.01267  Uiso   1.00
C105   C     0.83943   0.68190   0.31016   0.01267  Uiso   1.00
C106   C     0.81647   0.69757   0.30374   0.01267  Uiso   1.00
C107   C     0.77212   0.62099   0.32264   0.01267  Uiso   1.00
C108   C     0.76276   0.64841   0.31363   0.01267  Uiso   1.00
C109   C     0.89950   0.53632   0.24194   0.01267  Uiso   1.00
C110   C     0.85700   0.52830   0.27304   0.01267  Uiso   1.00
C111   C     0.87369   0.53987   0.24672   0.01267  Uiso   1.00
C112   C     0.91423   0.54938   0.21750   0.01267  Uiso   1.00
C113   C     0.92138   0.66808   0.33257   0.01267  Uiso   1.00
C114   C     0.90339   0.56615   0.19747   0.01267  Uiso   1.00
C115   C     0.86331   0.55592   0.22638   0.01267  Uiso   1.00
C116   C     0.87794   0.56881   0.20213   0.01267  Uiso   1.00
O52    O     0.61124   0.50214   0.46103   0.01267  Uiso   1.00
O53    O     0.77265   0.52525   0.36883   0.01267  Uiso   1.00
O54    O     0.66370   0.48477   0.44352   0.01267  Uiso   1.00
O55    O     0.81320   0.49673   0.38370   0.01267  Uiso   1.00
O56    O     0.84773   0.47176   0.31969   0.01267  Uiso   1.00
O57    O     0.95352   0.64681   0.25626   0.01267  Uiso   1.00
O58    O     0.97946   0.64670   0.28098   0.01267  Uiso   1.00
O59    O     0.90937   0.67277   0.28390   0.01267  Uiso   1.00
O60    O     0.88647   0.65000   0.32149   0.01267  Uiso   1.00
O61    O     0.79336   0.74940   0.24927   0.01267  Uiso   1.00
O62    O     0.77143   0.72771   0.28867   0.01267  Uiso   1.00
O63    O     0.79140   0.56556   0.33926   0.01267  Uiso   1.00
O64    O     0.74604   0.70249   0.29346   0.01267  Uiso   1.00
O65    O     0.86762   0.51111   0.29016   0.01267  Uiso   1.00
O66    O     0.83264   0.53657   0.35332   0.01267  Uiso   1.00
O67    O     0.93508   0.67227   0.30855   0.01267  Uiso   1.00
O68    O     0.90414   0.59943   0.33907   0.01267  Uiso   1.00
H52    H     0.57747   0.53902   0.47622   0.01267  Uiso   1.00
H53    H     0.73515   0.51532   0.40917   0.01267  Uiso   1.00
H54    H     0.69749   0.50073   0.43529   0.01267  Uiso   1.00
H55    H     0.86577   0.42554   0.38695   0.01267  Uiso   1.00
H56    H     0.79634   0.47131   0.43236   0.01267  Uiso   1.00
H57    H     0.95064   0.66698   0.21061   0.01267  Uiso   1.00
H58    H     0.97918   0.58290   0.23842   0.01267  Uiso   1.00
H59    H     0.88199   0.70849   0.25374   0.01267  Uiso   1.00
H60    H     0.84203   0.73557   0.24241   0.01267  Uiso   1.00
H61    H     0.83819   0.66698   0.32917   0.01267  Uiso   1.00
H62    H     0.79849   0.69394   0.31797   0.01267  Uiso   1.00
H63    H     0.77561   0.61090   0.34107   0.01267  Uiso   1.00
H64    H     0.75951   0.65835   0.32549   0.01267  Uiso   1.00
H65    H     0.90802   0.52408   0.25730   0.01267  Uiso   1.00
H66    H     0.93376   0.54690   0.21452   0.01267  Uiso   1.00
H67    H     0.84363   0.55895   0.22928   0.01267  Uiso   1.00
H68    H     0.86898   0.58131   0.18711   0.01267  Uiso   1.00
Cr9    Cr    0.65770   0.11423   0.28384   0.01267  Uiso   1.00
Cr10   Cr    0.53034   0.30656   0.35963   0.01267  Uiso   1.00
C117   C     0.54723   0.42240   0.46092   0.01267  Uiso   1.00
C118   C     0.51247   0.36102   0.39955   0.01267  Uiso   1.00
C119   C     0.50403   0.37603   0.41455   0.01267  Uiso   1.00
C120   C     0.42746   0.31679   0.40521   0.01267  Uiso   1.00
C121   C     0.47489   0.31227   0.38220   0.01267  Uiso   1.00
C122   C     0.45167   0.31089   0.40641   0.01267  Uiso   1.00
C123   C     0.45304   0.30458   0.43068   0.01267  Uiso   1.00
C124   C     0.64843   0.18594   0.20837   0.01267  Uiso   1.00
C125   C     0.62501   0.15936   0.25305   0.01267  Uiso   1.00
C126   C     0.62494   0.18218   0.22795   0.01267  Uiso   1.00
C127   C     0.60143   0.20145   0.22390   0.01267  Uiso   1.00
C128   C     0.70516   0.16297   0.26799   0.01267  Uiso   1.00
C129   C     0.66831   0.14404   0.29961   0.01267  Uiso   1.00
C130   C     0.68530   0.15870   0.29240   0.01267  Uiso   1.00
C131   C     0.72083   0.17681   0.26152   0.01267  Uiso   1.00
C132   C     0.73261   0.20310   0.27199   0.01267  Uiso   1.00
C133   C     0.71726   0.18675   0.27927   0.01267  Uiso   1.00
C134   C     0.68190   0.16851   0.31016   0.01267  Uiso   1.00
C135   C     0.69757   0.18222   0.30374   0.01267  Uiso   1.00
C136   C     0.62099   0.28425   0.32264   0.01267  Uiso   1.00
C137   C     0.64841   0.27520   0.31363   0.01267  Uiso   1.00
C138   C     0.53632   0.32224   0.24194   0.01267  Uiso   1.00
C139   C     0.52830   0.34166   0.27304   0.01267  Uiso   1.00
C140   C     0.53987   0.33972   0.24672   0.01267  Uiso   1.00
C141   C     0.54938   0.31889   0.21750   0.01267  Uiso   1.00
C142   C     0.66808   0.07796   0.33257   0.01267  Uiso   1.00
C143   C     0.56615   0.33299   0.19747   0.01267  Uiso   1.00
C144   C     0.55592   0.35438   0.22638   0.01267  Uiso   1.00
C145   C     0.56881   0.35111   0.20213   0.01267  Uiso   1.00
O69    O     0.50214   0.42559   0.46103   0.01267  Uiso   1.00
O70    O     0.52525   0.33327   0.36883   0.01267  Uiso   1.00
O71    O     0.48477   0.40801   0.44352   0.01267  Uiso   1.00
O72    O     0.49673   0.30637   0.38370   0.01267  Uiso   1.00
O73    O     0.47176   0.36082   0.31969   0.01267  Uiso   1.00
O74    O     0.64681   0.14341   0.25626   0.01267  Uiso   1.00
O75    O     0.64670   0.09285   0.28098   0.01267  Uiso   1.00
O76    O     0.67277   0.13396   0.28390   0.01267  Uiso   1.00
O77    O     0.65000   0.14205   0.32149   0.01267  Uiso   1.00
O78    O     0.74940   0.20797   0.24927   0.01267  Uiso   1.00
O79    O     0.72771   0.21218   0.28867   0.01267  Uiso   1.00
O80    O     0.56556   0.30379   0.33926   0.01267  Uiso   1.00
O81    O     0.70249   0.25801   0.29346   0.01267  Uiso   1.00
O82    O     0.51111   0.33112   0.29016   0.01267  Uiso   1.00
O83    O     0.53657   0.27746   0.35332   0.01267  Uiso   1.00
O84    O     0.67227   0.08410   0.30855   0.01267  Uiso   1.00
O85    O     0.59943   0.15737   0.33907   0.01267  Uiso   1.00
H69    H     0.53902   0.40729   0.47622   0.01267  Uiso   1.00
H70    H     0.51532   0.34037   0.40917   0.01267  Uiso   1.00
H71    H     0.50073   0.36649   0.43529   0.01267  Uiso   1.00
H72    H     0.42554   0.32174   0.38695   0.01267  Uiso   1.00
H73    H     0.47131   0.29999   0.43236   0.01267  Uiso   1.00
H74    H     0.66698   0.17176   0.21061   0.01267  Uiso   1.00
H75    H     0.58290   0.19950   0.23842   0.01267  Uiso   1.00
H76    H     0.70849   0.15579   0.25374   0.01267  Uiso   1.00
H77    H     0.73557   0.17998   0.24241   0.01267  Uiso   1.00
H78    H     0.66698   0.16567   0.32917   0.01267  Uiso   1.00
H79    H     0.69394   0.18961   0.31797   0.01267  Uiso   1.00
H80    H     0.61090   0.27242   0.34107   0.01267  Uiso   1.00
H81    H     0.65835   0.25665   0.32549   0.01267  Uiso   1.00
H82    H     0.52408   0.31059   0.25730   0.01267  Uiso   1.00
H83    H     0.54690   0.30483   0.21452   0.01267  Uiso   1.00
H84    H     0.55895   0.36814   0.22928   0.01267  Uiso   1.00
H85    H     0.58131   0.36260   0.18711   0.01267  Uiso   1.00
Cr11   Cr    0.94423   0.28384   0.11423   0.01267  Uiso   1.00
Cr12   Cr    0.80348   0.35963   0.30656   0.01267  Uiso   1.00
C146   C     0.56944   0.46092   0.42240   0.01267  Uiso   1.00
C147   C     0.72696   0.39955   0.36102   0.01267  Uiso   1.00
C148   C     0.70539   0.41455   0.37603   0.01267  Uiso   1.00
C149   C     0.85054   0.40521   0.31679   0.01267  Uiso   1.00
C150   C     0.83063   0.38220   0.31227   0.01267  Uiso   1.00
C151   C     0.83104   0.40641   0.31089   0.01267  Uiso   1.00
C152   C     0.81170   0.43068   0.30458   0.01267  Uiso   1.00
C153   C     0.95726   0.20837   0.18594   0.01267  Uiso   1.00
C154   C     0.96258   0.25305   0.15936   0.01267  Uiso   1.00
C155   C     0.96494   0.22795   0.18218   0.01267  Uiso   1.00
C156   C     0.97322   0.22390   0.20145   0.01267  Uiso   1.00
C157   C     0.86389   0.26799   0.16297   0.01267  Uiso   1.00
C158   C     0.88804   0.29961   0.14404   0.01267  Uiso   1.00
C159   C     0.86360   0.29240   0.15870   0.01267  Uiso   1.00
C160   C     0.84085   0.26152   0.17681   0.01267  Uiso   1.00
C161   C     0.79230   0.27199   0.20310   0.01267  Uiso   1.00
C162   C     0.81672   0.27927   0.18675   0.01267  Uiso   1.00
C163   C     0.83943   0.31016   0.16851   0.01267  Uiso   1.00
C164   C     0.81647   0.30374   0.18222   0.01267  Uiso   1.00
C165   C     0.77212   0.32264   0.28425   0.01267  Uiso   1.00
C166   C     0.76276   0.31363   0.27520   0.01267  Uiso   1.00
C167   C     0.89950   0.24194   0.32224   0.01267  Uiso   1.00
C168   C     0.85700   0.27304   0.34166   0.01267  Uiso   1.00
C169   C     0.87369   0.24672   0.33972   0.01267  Uiso   1.00
C170   C     0.91423   0.21750   0.31889   0.01267  Uiso   1.00
C171   C     0.92138   0.33257   0.07796   0.01267  Uiso   1.00
C172   C     0.90339   0.19747   0.33299   0.01267  Uiso   1.00
C173   C     0.86331   0.22638   0.35438   0.01267  Uiso   1.00
C174   C     0.87794   0.20213   0.35111   0.01267  Uiso   1.00
O86    O     0.61124   0.46103   0.42559   0.01267  Uiso   1.00
O87    O     0.77265   0.36883   0.33327   0.01267  Uiso   1.00
O88    O     0.66370   0.44352   0.40801   0.01267  Uiso   1.00
O89    O     0.81320   0.38370   0.30637   0.01267  Uiso   1.00
O90    O     0.84773   0.31969   0.36082   0.01267  Uiso   1.00
O91    O     0.95352   0.25626   0.14341   0.01267  Uiso   1.00
O92    O     0.97946   0.28098   0.09285   0.01267  Uiso   1.00
O93    O     0.90937   0.28390   0.13396   0.01267  Uiso   1.00
O94    O     0.88647   0.32149   0.14205   0.01267  Uiso   1.00
O95    O     0.79336   0.24927   0.20797   0.01267  Uiso   1.00
O96    O     0.77143   0.28867   0.21218   0.01267  Uiso   1.00
O97    O     0.79140   0.33926   0.30379   0.01267  Uiso   1.00
O98    O     0.74604   0.29346   0.25801   0.01267  Uiso   1.00
O99    O     0.86762   0.29016   0.33112   0.01267  Uiso   1.00
O100   O     0.83264   0.35332   0.27746   0.01267  Uiso   1.00
O101   O     0.93508   0.30855   0.08410   0.01267  Uiso   1.00
O102   O     0.90414   0.33907   0.15737   0.01267  Uiso   1.00
H86    H     0.57747   0.47622   0.40729   0.01267  Uiso   1.00
H87    H     0.73515   0.40917   0.34037   0.01267  Uiso   1.00
H88    H     0.69749   0.43529   0.36649   0.01267  Uiso   1.00
H89    H     0.86577   0.38695   0.32174   0.01267  Uiso   1.00
H90    H     0.79634   0.43236   0.29999   0.01267  Uiso   1.00
H91    H     0.95064   0.21061   0.17176   0.01267  Uiso   1.00
H92    H     0.97918   0.23842   0.19950   0.01267  Uiso   1.00
H93    H     0.88199   0.25374   0.15579   0.01267  Uiso   1.00
H94    H     0.84203   0.24241   0.17998   0.01267  Uiso   1.00
H95    H     0.83819   0.32917   0.16567   0.01267  Uiso   1.00
H96    H     0.79849   0.31797   0.18961   0.01267  Uiso   1.00
H97    H     0.77561   0.34107   0.27242   0.01267  Uiso   1.00
H98    H     0.75951   0.32549   0.25665   0.01267  Uiso   1.00
H99    H     0.90802   0.25730   0.31059   0.01267  Uiso   1.00
H100   H     0.93376   0.21452   0.30483   0.01267  Uiso   1.00
H101   H     0.84363   0.22928   0.36814   0.01267  Uiso   1.00
H102   H     0.86898   0.18711   0.36260   0.01267  Uiso   1.00
Cr13   Cr    0.11423   0.65770   0.94423   0.01267  Uiso   1.00
Cr14   Cr    0.30656   0.53034   0.80348   0.01267  Uiso   1.00
C175   C     0.42240   0.54723   0.56944   0.01267  Uiso   1.00
C176   C     0.36102   0.51247   0.72696   0.01267  Uiso   1.00
C177   C     0.37603   0.50403   0.70539   0.01267  Uiso   1.00
C178   C     0.31679   0.42746   0.85054   0.01267  Uiso   1.00
C179   C     0.31227   0.47489   0.83063   0.01267  Uiso   1.00
C180   C     0.31089   0.45167   0.83104   0.01267  Uiso   1.00
C181   C     0.30458   0.45304   0.81170   0.01267  Uiso   1.00
C182   C     0.18594   0.64843   0.95726   0.01267  Uiso   1.00
C183   C     0.15936   0.62501   0.96258   0.01267  Uiso   1.00
C184   C     0.18218   0.62494   0.96494   0.01267  Uiso   1.00
C185   C     0.20145   0.60143   0.97322   0.01267  Uiso   1.00
C186   C     0.16297   0.70516   0.86389   0.01267  Uiso   1.00
C187   C     0.14404   0.66831   0.88804   0.01267  Uiso   1.00
C188   C     0.15870   0.68530   0.86360   0.01267  Uiso   1.00
C189   C     0.17681   0.72083   0.84085   0.01267  Uiso   1.00
C190   C     0.20310   0.73261   0.79230   0.01267  Uiso   1.00
C191   C     0.18675   0.71726   0.81672   0.01267  Uiso   1.00
C192   C     0.16851   0.68190   0.83943   0.01267  Uiso   1.00
C193   C     0.18222   0.69757   0.81647   0.01267  Uiso   1.00
C194   C     0.28425   0.62099   0.77212   0.01267  Uiso   1.00
C195   C     0.27520   0.64841   0.76276   0.01267  Uiso   1.00
C196   C     0.32224   0.53632   0.89950   0.01267  Uiso   1.00
C197   C     0.34166   0.52830   0.85700   0.01267  Uiso   1.00
C198   C     0.33972   0.53987   0.87369   0.01267  Uiso   1.00
C199   C     0.31889   0.54938   0.91423   0.01267  Uiso   1.00
C200   C     0.07796   0.66808   0.92138   0.01267  Uiso   1.00
C201   C     0.33299   0.56615   0.90339   0.01267  Uiso   1.00
C202   C     0.35438   0.55592   0.86331   0.01267  Uiso   1.00
C203   C     0.35111   0.56881   0.87794   0.01267  Uiso   1.00
O103   O     0.42559   0.50214   0.61124   0.01267  Uiso   1.00
O104   O     0.33327   0.52525   0.77265   0.01267  Uiso   1.00
O105   O     0.40801   0.48477   0.66370   0.01267  Uiso   1.00
O106   O     0.30637   0.49673   0.81320   0.01267  Uiso   1.00
O107   O     0.36082   0.47176   0.84773   0.01267  Uiso   1.00
O108   O     0.14341   0.64681   0.95352   0.01267  Uiso   1.00
O109   O     0.09285   0.64670   0.97946   0.01267  Uiso   1.00
O110   O     0.13396   0.67277   0.90937   0.01267  Uiso   1.00
O111   O     0.14205   0.65000   0.88647   0.01267  Uiso   1.00
O112   O     0.20797   0.74940   0.79336   0.01267  Uiso   1.00
O113   O     0.21218   0.72771   0.77143   0.01267  Uiso   1.00
O114   O     0.30379   0.56556   0.79140   0.01267  Uiso   1.00
O115   O     0.25801   0.70249   0.74604   0.01267  Uiso   1.00
O116   O     0.33112   0.51111   0.86762   0.01267  Uiso   1.00
O117   O     0.27746   0.53657   0.83264   0.01267  Uiso   1.00
O118   O     0.08410   0.67227   0.93508   0.01267  Uiso   1.00
O119   O     0.15737   0.59943   0.90414   0.01267  Uiso   1.00
H103   H     0.40729   0.53902   0.57747   0.01267  Uiso   1.00
H104   H     0.34037   0.51532   0.73515   0.01267  Uiso   1.00
H105   H     0.36649   0.50073   0.69749   0.01267  Uiso   1.00
H106   H     0.32174   0.42554   0.86577   0.01267  Uiso   1.00
H107   H     0.29999   0.47131   0.79634   0.01267  Uiso   1.00
H108   H     0.17176   0.66698   0.95064   0.01267  Uiso   1.00
H109   H     0.19950   0.58290   0.97918   0.01267  Uiso   1.00
H110   H     0.15579   0.70849   0.88199   0.01267  Uiso   1.00
H111   H     0.17998   0.73557   0.84203   0.01267  Uiso   1.00
H112   H     0.16567   0.66698   0.83819   0.01267  Uiso   1.00
H113   H     0.18961   0.69394   0.79849   0.01267  Uiso   1.00
H114   H     0.27242   0.61090   0.77561   0.01267  Uiso   1.00
H115   H     0.25665   0.65835   0.75951   0.01267  Uiso   1.00
H116   H     0.31059   0.52408   0.90802   0.01267  Uiso   1.00
H117   H     0.30483   0.54690   0.93376   0.01267  Uiso   1.00
H118   H     0.36814   0.55895   0.84363   0.01267  Uiso   1.00
H119   H     0.36260   0.58131   0.86898   0.01267  Uiso   1.00
Cr15   Cr    0.28384   0.94423   0.65770   0.01267  Uiso   1.00
Cr16   Cr    0.35963   0.80348   0.53034   0.01267  Uiso   1.00
C204   C     0.46092   0.56944   0.54723   0.01267  Uiso   1.00
C205   C     0.39955   0.72696   0.51247   0.01267  Uiso   1.00
C206   C     0.41455   0.70539   0.50403   0.01267  Uiso   1.00
C207   C     0.40521   0.85054   0.42746   0.01267  Uiso   1.00
C208   C     0.38220   0.83063   0.47489   0.01267  Uiso   1.00
C209   C     0.40641   0.83104   0.45167   0.01267  Uiso   1.00
C210   C     0.43068   0.81170   0.45304   0.01267  Uiso   1.00
C211   C     0.20837   0.95726   0.64843   0.01267  Uiso   1.00
C212   C     0.25305   0.96258   0.62501   0.01267  Uiso   1.00
C213   C     0.22795   0.96494   0.62494   0.01267  Uiso   1.00
C214   C     0.22390   0.97322   0.60143   0.01267  Uiso   1.00
C215   C     0.26799   0.86389   0.70516   0.01267  Uiso   1.00
C216   C     0.29961   0.88804   0.66831   0.01267  Uiso   1.00
C217   C     0.29240   0.86360   0.68530   0.01267  Uiso   1.00
C218   C     0.26152   0.84085   0.72083   0.01267  Uiso   1.00
C219   C     0.27199   0.79230   0.73261   0.01267  Uiso   1.00
C220   C     0.27927   0.81672   0.71726   0.01267  Uiso   1.00
C221   C     0.31016   0.83943   0.68190   0.01267  Uiso   1.00
C222   C     0.30374   0.81647   0.69757   0.01267  Uiso   1.00
C223   C     0.32264   0.77212   0.62099   0.01267  Uiso   1.00
C224   C     0.31363   0.76276   0.64841   0.01267  Uiso   1.00
C225   C     0.24194   0.89950   0.53632   0.01267  Uiso   1.00
C226   C     0.27304   0.85700   0.52830   0.01267  Uiso   1.00
C227   C     0.24672   0.87369   0.53987   0.01267  Uiso   1.00
C228   C     0.21750   0.91423   0.54938   0.01267  Uiso   1.00
C229   C     0.33257   0.92138   0.66808   0.01267  Uiso   1.00
C230   C     0.19747   0.90339   0.56615   0.01267  Uiso   1.00
C231   C     0.22638   0.86331   0.55592   0.01267  Uiso   1.00
C232   C     0.20213   0.87794   0.56881   0.01267  Uiso   1.00
O120   O     0.46103   0.61124   0.50214   0.01267  Uiso   1.00
O121   O     0.36883   0.77265   0.52525   0.01267  Uiso   1.00
O122   O     0.44352   0.66370   0.48477   0.01267  Uiso   1.00
O123   O     0.38370   0.81320   0.49673   0.01267  Uiso   1.00
O124   O     0.31969   0.84773   0.47176   0.01267  Uiso   1.00
O125   O     0.25626   0.95352   0.64681   0.01267  Uiso   1.00
O126   O     0.28098   0.97946   0.64670   0.01267  Uiso   1.00
O127   O     0.28390   0.90937   0.67277   0.01267  Uiso   1.00
O128   O     0.32149   0.88647   0.65000   0.01267  Uiso   1.00
O129   O     0.24927   0.79336   0.74940   0.01267  Uiso   1.00
O130   O     0.28867   0.77143   0.72771   0.01267  Uiso   1.00
O131   O     0.33926   0.79140   0.56556   0.01267  Uiso   1.00
O132   O     0.29346   0.74604   0.70249   0.01267  Uiso   1.00
O133   O     0.29016   0.86762   0.51111   0.01267  Uiso   1.00
O134   O     0.35332   0.83264   0.53657   0.01267  Uiso   1.00
O135   O     0.30855   0.93508   0.67227   0.01267  Uiso   1.00
O136   O     0.33907   0.90414   0.59943   0.01267  Uiso   1.00
H120   H     0.47622   0.57747   0.53902   0.01267  Uiso   1.00
H121   H     0.40917   0.73515   0.51532   0.01267  Uiso   1.00
H122   H     0.43529   0.69749   0.50073   0.01267  Uiso   1.00
H123   H     0.38695   0.86577   0.42554   0.01267  Uiso   1.00
H124   H     0.43236   0.79634   0.47131   0.01267  Uiso   1.00
H125   H     0.21061   0.95064   0.66698   0.01267  Uiso   1.00
H126   H     0.23842   0.97918   0.58290   0.01267  Uiso   1.00
H127   H     0.25374   0.88199   0.70849   0.01267  Uiso   1.00
H128   H     0.24241   0.84203   0.73557   0.01267  Uiso   1.00
H129   H     0.32917   0.83819   0.66698   0.01267  Uiso   1.00
H130   H     0.31797   0.79849   0.69394   0.01267  Uiso   1.00
H131   H     0.34107   0.77561   0.61090   0.01267  Uiso   1.00
H132   H     0.32549   0.75951   0.65835   0.01267  Uiso   1.00
H133   H     0.25730   0.90802   0.52408   0.01267  Uiso   1.00
H134   H     0.21452   0.93376   0.54690   0.01267  Uiso   1.00
H135   H     0.22928   0.84363   0.55895   0.01267  Uiso   1.00
H136   H     0.18711   0.86898   0.58131   0.01267  Uiso   1.00
Cr17   Cr    0.28384   0.65770   0.11423   0.01267  Uiso   1.00
Cr18   Cr    0.35963   0.53034   0.30656   0.01267  Uiso   1.00
C233   C     0.46092   0.54723   0.42240   0.01267  Uiso   1.00
C234   C     0.39955   0.51247   0.36102   0.01267  Uiso   1.00
C235   C     0.41455   0.50403   0.37603   0.01267  Uiso   1.00
C236   C     0.40521   0.42746   0.31679   0.01267  Uiso   1.00
C237   C     0.38220   0.47489   0.31227   0.01267  Uiso   1.00
C238   C     0.40641   0.45167   0.31089   0.01267  Uiso   1.00
C239   C     0.43068   0.45304   0.30458   0.01267  Uiso   1.00
C240   C     0.20837   0.64843   0.18594   0.01267  Uiso   1.00
C241   C     0.25305   0.62501   0.15936   0.01267  Uiso   1.00
C242   C     0.22795   0.62494   0.18218   0.01267  Uiso   1.00
C243   C     0.22390   0.60143   0.20145   0.01267  Uiso   1.00
C244   C     0.26799   0.70516   0.16297   0.01267  Uiso   1.00
C245   C     0.29961   0.66831   0.14404   0.01267  Uiso   1.00
C246   C     0.29240   0.68530   0.15870   0.01267  Uiso   1.00
C247   C     0.26152   0.72083   0.17681   0.01267  Uiso   1.00
C248   C     0.27199   0.73261   0.20310   0.01267  Uiso   1.00
C249   C     0.27927   0.71726   0.18675   0.01267  Uiso   1.00
C250   C     0.31016   0.68190   0.16851   0.01267  Uiso   1.00
C251   C     0.30374   0.69757   0.18222   0.01267  Uiso   1.00
C252   C     0.32264   0.62099   0.28425   0.01267  Uiso   1.00
C253   C     0.31363   0.64841   0.27520   0.01267  Uiso   1.00
C254   C     0.24194   0.53632   0.32224   0.01267  Uiso   1.00
C255   C     0.27304   0.52830   0.34166   0.01267  Uiso   1.00
C256   C     0.24672   0.53987   0.33972   0.01267  Uiso   1.00
C257   C     0.21750   0.54938   0.31889   0.01267  Uiso   1.00
C258   C     0.33257   0.66808   0.07796   0.01267  Uiso   1.00
C259   C     0.19747   0.56615   0.33299   0.01267  Uiso   1.00
C260   C     0.22638   0.55592   0.35438   0.01267  Uiso   1.00
C261   C     0.20213   0.56881   0.35111   0.01267  Uiso   1.00
O137   O     0.46103   0.50214   0.42559   0.01267  Uiso   1.00
O138   O     0.36883   0.52525   0.33327   0.01267  Uiso   1.00
O139   O     0.44352   0.48477   0.40801   0.01267  Uiso   1.00
O140   O     0.38370   0.49673   0.30637   0.01267  Uiso   1.00
O141   O     0.31969   0.47176   0.36082   0.01267  Uiso   1.00
O142   O     0.25626   0.64681   0.14341   0.01267  Uiso   1.00
O143   O     0.28098   0.64670   0.09285   0.01267  Uiso   1.00
O144   O     0.28390   0.67277   0.13396   0.01267  Uiso   1.00
O145   O     0.32149   0.65000   0.14205   0.01267  Uiso   1.00
O146   O     0.24927   0.74940   0.20797   0.01267  Uiso   1.00
O147   O     0.28867   0.72771   0.21218   0.01267  Uiso   1.00
O148   O     0.33926   0.56556   0.30379   0.01267  Uiso   1.00
O149   O     0.29346   0.70249   0.25801   0.01267  Uiso   1.00
O150   O     0.29016   0.51111   0.33112   0.01267  Uiso   1.00
O151   O     0.35332   0.53657   0.27746   0.01267  Uiso   1.00
O152   O     0.30855   0.67227   0.08410   0.01267  Uiso   1.00
O153   O     0.33907   0.59943   0.15737   0.01267  Uiso   1.00
H137   H     0.47622   0.53902   0.40729   0.01267  Uiso   1.00
H138   H     0.40917   0.51532   0.34037   0.01267  Uiso   1.00
H139   H     0.43529   0.50073   0.36649   0.01267  Uiso   1.00
H140   H     0.38695   0.42554   0.32174   0.01267  Uiso   1.00
H141   H     0.43236   0.47131   0.29999   0.01267  Uiso   1.00
H142   H     0.21061   0.66698   0.17176   0.01267  Uiso   1.00
H143   H     0.23842   0.58290   0.19950   0.01267  Uiso   1.00
H144   H     0.25374   0.70849   0.15579   0.01267  Uiso   1.00
H145   H     0.24241   0.73557   0.17998   0.01267  Uiso   1.00
H146   H     0.32917   0.66698   0.16567   0.01267  Uiso   1.00
H147   H     0.31797   0.69394   0.18961   0.01267  Uiso   1.00
H148   H     0.34107   0.61090   0.27242   0.01267  Uiso   1.00
H149   H     0.32549   0.65835   0.25665   0.01267  Uiso   1.00
H150   H     0.25730   0.52408   0.31059   0.01267  Uiso   1.00
H151   H     0.21452   0.54690   0.30483   0.01267  Uiso   1.00
H152   H     0.22928   0.55895   0.36814   0.01267  Uiso   1.00
H153   H     0.18711   0.58131   0.36260   0.01267  Uiso   1.00
Cr19   Cr    0.11423   0.94423   0.28384   0.01267  Uiso   1.00
Cr20   Cr    0.30656   0.80348   0.35963   0.01267  Uiso   1.00
C262   C     0.42240   0.56944   0.46092   0.01267  Uiso   1.00
C263   C     0.36102   0.72696   0.39955   0.01267  Uiso   1.00
C264   C     0.37603   0.70539   0.41455   0.01267  Uiso   1.00
C265   C     0.31679   0.85054   0.40521   0.01267  Uiso   1.00
C266   C     0.31227   0.83063   0.38220   0.01267  Uiso   1.00
C267   C     0.31089   0.83104   0.40641   0.01267  Uiso   1.00
C268   C     0.30458   0.81170   0.43068   0.01267  Uiso   1.00
C269   C     0.18594   0.95726   0.20837   0.01267  Uiso   1.00
C270   C     0.15936   0.96258   0.25305   0.01267  Uiso   1.00
C271   C     0.18218   0.96494   0.22795   0.01267  Uiso   1.00
C272   C     0.20145   0.97322   0.22390   0.01267  Uiso   1.00
C273   C     0.16297   0.86389   0.26799   0.01267  Uiso   1.00
C274   C     0.14404   0.88804   0.29961   0.01267  Uiso   1.00
C275   C     0.15870   0.86360   0.29240   0.01267  Uiso   1.00
C276   C     0.17681   0.84085   0.26152   0.01267  Uiso   1.00
C277   C     0.20310   0.79230   0.27199   0.01267  Uiso   1.00
C278   C     0.18675   0.81672   0.27927   0.01267  Uiso   1.00
C279   C     0.16851   0.83943   0.31016   0.01267  Uiso   1.00
C280   C     0.18222   0.81647   0.30374   0.01267  Uiso   1.00
C281   C     0.28425   0.77212   0.32264   0.01267  Uiso   1.00
C282   C     0.27520   0.76276   0.31363   0.01267  Uiso   1.00
C283   C     0.32224   0.89950   0.24194   0.01267  Uiso   1.00
C284   C     0.34166   0.85700   0.27304   0.01267  Uiso   1.00
C285   C     0.33972   0.87369   0.24672   0.01267  Uiso   1.00
C286   C     0.31889   0.91423   0.21750   0.01267  Uiso   1.00
C287   C     0.07796   0.92138   0.33257   0.01267  Uiso   1.00
C288   C     0.33299   0.90339   0.19747   0.01267  Uiso   1.00
C289   C     0.35438   0.86331   0.22638   0.01267  Uiso   1.00
C290   C     0.35111   0.87794   0.20213   0.01267  Uiso   1.00
O154   O     0.42559   0.61124   0.46103   0.01267  Uiso   1.00
O155   O     0.33327   0.77265   0.36883   0.01267  Uiso   1.00
O156   O     0.40801   0.66370   0.44352   0.01267  Uiso   1.00
O157   O     0.30637   0.81320   0.38370   0.01267  Uiso   1.00
O158   O     0.36082   0.84773   0.31969   0.01267  Uiso   1.00
O159   O     0.14341   0.95352   0.25626   0.01267  Uiso   1.00
O160   O     0.09285   0.97946   0.28098   0.01267  Uiso   1.00
O161   O     0.13396   0.90937   0.28390   0.01267  Uiso   1.00
O162   O     0.14205   0.88647   0.32149   0.01267  Uiso   1.00
O163   O     0.20797   0.79336   0.24927   0.01267  Uiso   1.00
O164   O     0.21218   0.77143   0.28867   0.01267  Uiso   1.00
O165   O     0.30379   0.79140   0.33926   0.01267  Uiso   1.00
O166   O     0.25801   0.74604   0.29346   0.01267  Uiso   1.00
O167   O     0.33112   0.86762   0.29016   0.01267  Uiso   1.00
O168   O     0.27746   0.83264   0.35332   0.01267  Uiso   1.00
O169   O     0.08410   0.93508   0.30855   0.01267  Uiso   1.00
O170   O     0.15737   0.90414   0.33907   0.01267  Uiso   1.00
H154   H     0.40729   0.57747   0.47622   0.01267  Uiso   1.00
H155   H     0.34037   0.73515   0.40917   0.01267  Uiso   1.00
H156   H     0.36649   0.69749   0.43529   0.01267  Uiso   1.00
H157   H     0.32174   0.86577   0.38695   0.01267  Uiso   1.00
H158   H     0.29999   0.79634   0.43236   0.01267  Uiso   1.00
H159   H     0.17176   0.95064   0.21061   0.01267  Uiso   1.00
H160   H     0.19950   0.97918   0.23842   0.01267  Uiso   1.00
H161   H     0.15579   0.88199   0.25374   0.01267  Uiso   1.00
H162   H     0.17998   0.84203   0.24241   0.01267  Uiso   1.00
H163   H     0.16567   0.83819   0.32917   0.01267  Uiso   1.00
H164   H     0.18961   0.79849   0.31797   0.01267  Uiso   1.00
H165   H     0.27242   0.77561   0.34107   0.01267  Uiso   1.00
H166   H     0.25665   0.75951   0.32549   0.01267  Uiso   1.00
H167   H     0.31059   0.90802   0.25730   0.01267  Uiso   1.00
H168   H     0.30483   0.93376   0.21452   0.01267  Uiso   1.00
H169   H     0.36814   0.84363   0.22928   0.01267  Uiso   1.00
H170   H     0.36260   0.86898   0.18711   0.01267  Uiso   1.00
Cr21   Cr    0.94423   0.11423   0.65770   0.01267  Uiso   1.00
Cr22   Cr    0.80348   0.30656   0.53034   0.01267  Uiso   1.00
C291   C     0.56944   0.42240   0.54723   0.01267  Uiso   1.00
C292   C     0.72696   0.36102   0.51247   0.01267  Uiso   1.00
C293   C     0.70539   0.37603   0.50403   0.01267  Uiso   1.00
C294   C     0.85054   0.31679   0.42746   0.01267  Uiso   1.00
C295   C     0.83063   0.31227   0.47489   0.01267  Uiso   1.00
C296   C     0.83104   0.31089   0.45167   0.01267  Uiso   1.00
C297   C     0.81170   0.30458   0.45304   0.01267  Uiso   1.00
C298   C     0.95726   0.18594   0.64843   0.01267  Uiso   1.00
C299   C     0.96258   0.15936   0.62501   0.01267  Uiso   1.00
C300   C     0.96494   0.18218   0.62494   0.01267  Uiso   1.00
C301   C     0.97322   0.20145   0.60143   0.01267  Uiso   1.00
C302   C     0.86389   0.16297   0.70516   0.01267  Uiso   1.00
C303   C     0.88804   0.14404   0.66831   0.01267  Uiso   1.00
C304   C     0.86360   0.15870   0.68530   0.01267  Uiso   1.00
C305   C     0.84085   0.17681   0.72083   0.01267  Uiso   1.00
C306   C     0.79230   0.20310   0.73261   0.01267  Uiso   1.00
C307   C     0.81672   0.18675   0.71726   0.01267  Uiso   1.00
C308   C     0.83943   0.16851   0.68190   0.01267  Uiso   1.00
C309   C     0.81647   0.18222   0.69757   0.01267  Uiso   1.00
C310   C     0.77212   0.28425   0.62099   0.01267  Uiso   1.00
C311   C     0.76276   0.27520   0.64841   0.01267  Uiso   1.00
C312   C     0.89950   0.32224   0.53632   0.01267  Uiso   1.00
C313   C     0.85700   0.34166   0.52830   0.01267  Uiso   1.00
C314   C     0.87369   0.33972   0.53987   0.01267  Uiso   1.00
C315   C     0.91423   0.31889   0.54938   0.01267  Uiso   1.00
C316   C     0.92138   0.07796   0.66808   0.01267  Uiso   1.00
C317   C     0.90339   0.33299   0.56615   0.01267  Uiso   1.00
C318   C     0.86331   0.35438   0.55592   0.01267  Uiso   1.00
C319   C     0.87794   0.35111   0.56881   0.01267  Uiso   1.00
O171   O     0.61124   0.42559   0.50214   0.01267  Uiso   1.00
O172   O     0.77265   0.33327   0.52525   0.01267  Uiso   1.00
O173   O     0.66370   0.40801   0.48477   0.01267  Uiso   1.00
O174   O     0.81320   0.30637   0.49673   0.01267  Uiso   1.00
O175   O     0.84773   0.36082   0.47176   0.01267  Uiso   1.00
O176   O     0.95352   0.14341   0.64681   0.01267  Uiso   1.00
O177   O     0.97946   0.09285   0.64670   0.01267  Uiso   1.00
O178   O     0.90937   0.13396   0.67277   0.01267  Uiso   1.00
O179   O     0.88647   0.14205   0.65000   0.01267  Uiso   1.00
O180   O     0.79336   0.20797   0.74940   0.01267  Uiso   1.00
O181   O     0.77143   0.21218   0.72771   0.01267  Uiso   1.00
O182   O     0.79140   0.30379   0.56556   0.01267  Uiso   1.00
O183   O     0.74604   0.25801   0.70249   0.01267  Uiso   1.00
O184   O     0.86762   0.33112   0.51111   0.01267  Uiso   1.00
O185   O     0.83264   0.27746   0.53657   0.01267  Uiso   1.00
O186   O     0.93508   0.08410   0.67227   0.01267  Uiso   1.00
O187   O     0.90414   0.15737   0.59943   0.01267  Uiso   1.00
H171   H     0.57747   0.40729   0.53902   0.01267  Uiso   1.00
H172   H     0.73515   0.34037   0.51532   0.01267  Uiso   1.00
H173   H     0.69749   0.36649   0.50073   0.01267  Uiso   1.00
H174   H     0.86577   0.32174   0.42554   0.01267  Uiso   1.00
H175   H     0.79634   0.29999   0.47131   0.01267  Uiso   1.00
H176   H     0.95064   0.17176   0.66698   0.01267  Uiso   1.00
H177   H     0.97918   0.19950   0.58290   0.01267  Uiso   1.00
H178   H     0.88199   0.15579   0.70849   0.01267  Uiso   1.00
H179   H     0.84203   0.17998   0.73557   0.01267  Uiso   1.00
H180   H     0.83819   0.16567   0.66698   0.01267  Uiso   1.00
H181   H     0.79849   0.18961   0.69394   0.01267  Uiso   1.00
H182   H     0.77561   0.27242   0.61090   0.01267  Uiso   1.00
H183   H     0.75951   0.25665   0.65835   0.01267  Uiso   1.00
H184   H     0.90802   0.31059   0.52408   0.01267  Uiso   1.00
H185   H     0.93376   0.30483   0.54690   0.01267  Uiso   1.00
H186   H     0.84363   0.36814   0.55895   0.01267  Uiso   1.00
H187   H     0.86898   0.36260   0.58131   0.01267  Uiso   1.00
Cr23   Cr    0.65770   0.28384   0.94423   0.01267  Uiso   1.00
Cr24   Cr    0.53034   0.35963   0.80348   0.01267  Uiso   1.00
C320   C     0.54723   0.46092   0.56944   0.01267  Uiso   1.00
C321   C     0.51247   0.39955   0.72696   0.01267  Uiso   1.00
C322   C     0.50403   0.41455   0.70539   0.01267  Uiso   1.00
C323   C     0.42746   0.40521   0.85054   0.01267  Uiso   1.00
C324   C     0.47489   0.38220   0.83063   0.01267  Uiso   1.00
C325   C     0.45167   0.40641   0.83104   0.01267  Uiso   1.00
C326   C     0.45304   0.43068   0.81170   0.01267  Uiso   1.00
C327   C     0.64843   0.20837   0.95726   0.01267  Uiso   1.00
C328   C     0.62501   0.25305   0.96258   0.01267  Uiso   1.00
C329   C     0.62494   0.22795   0.96494   0.01267  Uiso   1.00
C330   C     0.60143   0.22390   0.97322   0.01267  Uiso   1.00
C331   C     0.70516   0.26799   0.86389   0.01267  Uiso   1.00
C332   C     0.66831   0.29961   0.88804   0.01267  Uiso   1.00
C333   C     0.68530   0.29240   0.86360   0.01267  Uiso   1.00
C334   C     0.72083   0.26152   0.84085   0.01267  Uiso   1.00
C335   C     0.73261   0.27199   0.79230   0.01267  Uiso   1.00
C336   C     0.71726   0.27927   0.81672   0.01267  Uiso   1.00
C337   C     0.68190   0.31016   0.83943   0.01267  Uiso   1.00
C338   C     0.69757   0.30374   0.81647   0.01267  Uiso   1.00
C339   C     0.62099   0.32264   0.77212   0.01267  Uiso   1.00
C340   C     0.64841   0.31363   0.76276   0.01267  Uiso   1.00
C341   C     0.53632   0.24194   0.89950   0.01267  Uiso   1.00
C342   C     0.52830   0.27304   0.85700   0.01267  Uiso   1.00
C343   C     0.53987   0.24672   0.87369   0.01267  Uiso   1.00
C344   C     0.54938   0.21750   0.91423   0.01267  Uiso   1.00
C345   C     0.66808   0.33257   0.92138   0.01267  Uiso   1.00
C346   C     0.56615   0.19747   0.90339   0.01267  Uiso   1.00
C347   C     0.55592   0.22638   0.86331   0.01267  Uiso   1.00
C348   C     0.56881   0.20213   0.87794   0.01267  Uiso   1.00
O188   O     0.50214   0.46103   0.61124   0.01267  Uiso   1.00
O189   O     0.52525   0.36883   0.77265   0.01267  Uiso   1.00
O190   O     0.48477   0.44352   0.66370   0.01267  Uiso   1.00
O191   O     0.49673   0.38370   0.81320   0.01267  Uiso   1.00
O192   O     0.47176   0.31969   0.84773   0.01267  Uiso   1.00
O193   O     0.64681   0.25626   0.95352   0.01267  Uiso   1.00
O194   O     0.64670   0.28098   0.97946   0.01267  Uiso   1.00
O195   O     0.67277   0.28390   0.90937   0.01267  Uiso   1.00
O196   O     0.65000   0.32149   0.88647   0.01267  Uiso   1.00
O197   O     0.74940   0.24927   0.79336   0.01267  Uiso   1.00
O198   O     0.72771   0.28867   0.77143   0.01267  Uiso   1.00
O199   O     0.56556   0.33926   0.79140   0.01267  Uiso   1.00
O200   O     0.70249   0.29346   0.74604   0.01267  Uiso   1.00
O201   O     0.51111   0.29016   0.86762   0.01267  Uiso   1.00
O202   O     0.53657   0.35332   0.83264   0.01267  Uiso   1.00
O203   O     0.67227   0.30855   0.93508   0.01267  Uiso   1.00
O204   O     0.59943   0.33907   0.90414   0.01267  Uiso   1.00
H188   H     0.53902   0.47622   0.57747   0.01267  Uiso   1.00
H189   H     0.51532   0.40917   0.73515   0.01267  Uiso   1.00
H190   H     0.50073   0.43529   0.69749   0.01267  Uiso   1.00
H191   H     0.42554   0.38695   0.86577   0.01267  Uiso   1.00
H192   H     0.47131   0.43236   0.79634   0.01267  Uiso   1.00
H193   H     0.66698   0.21061   0.95064   0.01267  Uiso   1.00
H194   H     0.58290   0.23842   0.97918   0.01267  Uiso   1.00
H195   H     0.70849   0.25374   0.88199   0.01267  Uiso   1.00
H196   H     0.73557   0.24241   0.84203   0.01267  Uiso   1.00
H197   H     0.66698   0.32917   0.83819   0.01267  Uiso   1.00
H198   H     0.69394   0.31797   0.79849   0.01267  Uiso   1.00
H199   H     0.61090   0.34107   0.77561   0.01267  Uiso   1.00
H200   H     0.65835   0.32549   0.75951   0.01267  Uiso   1.00
H201   H     0.52408   0.25730   0.90802   0.01267  Uiso   1.00
H202   H     0.54690   0.21452   0.93376   0.01267  Uiso   1.00
H203   H     0.55895   0.22928   0.84363   0.01267  Uiso   1.00
H204   H     0.58131   0.18711   0.86898   0.01267  Uiso   1.00
Cr25   Cr    0.13577   0.96616   0.30577   0.01267  Uiso   1.00
Cr26   Cr    0.94344   0.89037   0.44652   0.01267  Uiso   1.00
C349   C     0.82760   0.78908   0.68056   0.01267  Uiso   1.00
C350   C     0.88898   0.85045   0.52304   0.01267  Uiso   1.00
C351   C     0.87397   0.83545   0.54461   0.01267  Uiso   1.00
C352   C     0.93321   0.84479   0.39946   0.01267  Uiso   1.00
C353   C     0.93773   0.86780   0.41937   0.01267  Uiso   1.00
C354   C     0.93911   0.84359   0.41896   0.01267  Uiso   1.00
C355   C     0.94542   0.81932   0.43830   0.01267  Uiso   1.00
C356   C     0.06406   0.04163   0.29274   0.01267  Uiso   1.00
C357   C     0.09064   0.99695   0.28742   0.01267  Uiso   1.00
C358   C     0.06782   0.02205   0.28506   0.01267  Uiso   1.00
C359   C     0.04855   0.02610   0.27678   0.01267  Uiso   1.00
C360   C     0.08703   0.98201   0.38611   0.01267  Uiso   1.00
C361   C     0.10596   0.95039   0.36196   0.01267  Uiso   1.00
C362   C     0.09130   0.95760   0.38640   0.01267  Uiso   1.00
C363   C     0.07319   0.98848   0.40915   0.01267  Uiso   1.00
C364   C     0.04690   0.97801   0.45770   0.01267  Uiso   1.00
C365   C     0.06325   0.97073   0.43328   0.01267  Uiso   1.00
C366   C     0.08149   0.93984   0.41057   0.01267  Uiso   1.00
C367   C     0.06778   0.94626   0.43353   0.01267  Uiso   1.00
C368   C     0.96575   0.92736   0.47788   0.01267  Uiso   1.00
C369   C     0.97480   0.93637   0.48724   0.01267  Uiso   1.00
C370   C     0.92776   0.00806   0.35050   0.01267  Uiso   1.00
C371   C     0.90834   0.97696   0.39300   0.01267  Uiso   1.00
C372   C     0.91028   0.00328   0.37631   0.01267  Uiso   1.00
C373   C     0.93111   0.03250   0.33577   0.01267  Uiso   1.00
C374   C     0.17204   0.91743   0.32862   0.01267  Uiso   1.00
C375   C     0.91701   0.05253   0.34661   0.01267  Uiso   1.00
C376   C     0.89562   0.02362   0.38669   0.01267  Uiso   1.00
C377   C     0.89889   0.04787   0.37206   0.01267  Uiso   1.00
O205   O     0.82441   0.78897   0.63876   0.01267  Uiso   1.00
O206   O     0.91673   0.88117   0.47735   0.01267  Uiso   1.00
O207   O     0.84199   0.80648   0.58630   0.01267  Uiso   1.00
O208   O     0.94363   0.86630   0.43680   0.01267  Uiso   1.00
O209   O     0.88918   0.93031   0.40227   0.01267  Uiso   1.00
O210   O     0.10659   0.99374   0.29648   0.01267  Uiso   1.00
O211   O     0.15715   0.96902   0.27054   0.01267  Uiso   1.00
O212   O     0.11604   0.96610   0.34063   0.01267  Uiso   1.00
O213   O     0.10795   0.92851   0.36353   0.01267  Uiso   1.00
O214   O     0.04203   0.00073   0.45664   0.01267  Uiso   1.00
O215   O     0.03782   0.96133   0.47857   0.01267  Uiso   1.00
O216   O     0.94621   0.91074   0.45860   0.01267  Uiso   1.00
O217   O     0.99199   0.95654   0.50396   0.01267  Uiso   1.00
O218   O     0.91888   0.95984   0.38238   0.01267  Uiso   1.00
O219   O     0.97254   0.89668   0.41736   0.01267  Uiso   1.00
O220   O     0.16590   0.94145   0.31492   0.01267  Uiso   1.00
O221   O     0.09263   0.91093   0.34586   0.01267  Uiso   1.00
H205   H     0.84271   0.77378   0.67253   0.01267  Uiso   1.00
H206   H     0.90963   0.84083   0.51485   0.01267  Uiso   1.00
H207   H     0.88351   0.81471   0.55251   0.01267  Uiso   1.00
H208   H     0.92826   0.86305   0.38423   0.01267  Uiso   1.00
H209   H     0.95001   0.81764   0.45366   0.01267  Uiso   1.00
H210   H     0.07824   0.03939   0.29936   0.01267  Uiso   1.00
H211   H     0.05050   0.01158   0.27082   0.01267  Uiso   1.00
H212   H     0.09421   0.99626   0.36801   0.01267  Uiso   1.00
H213   H     0.07002   0.00759   0.40797   0.01267  Uiso   1.00
H214   H     0.08433   0.92083   0.41181   0.01267  Uiso   1.00
H215   H     0.06039   0.93203   0.45151   0.01267  Uiso   1.00
H216   H     0.97758   0.90893   0.47439   0.01267  Uiso   1.00
H217   H     0.99335   0.92451   0.49049   0.01267  Uiso   1.00
H218   H     0.93941   0.99270   0.34198   0.01267  Uiso   1.00
H219   H     0.94517   0.03548   0.31624   0.01267  Uiso   1.00
H220   H     0.88186   0.02072   0.40637   0.01267  Uiso   1.00
H221   H     0.88740   0.06289   0.38102   0.01267  Uiso   1.00
Cr27   Cr    0.96616   0.13577   0.59230   0.01267  Uiso   1.00
Cr28   Cr    0.89037   0.94344   0.71966   0.01267  Uiso   1.00
C378   C     0.78908   0.82760   0.70277   0.01267  Uiso   1.00
C379   C     0.85045   0.88898   0.73753   0.01267  Uiso   1.00
C380   C     0.83545   0.87397   0.74597   0.01267  Uiso   1.00
C381   C     0.84479   0.93321   0.82254   0.01267  Uiso   1.00
C382   C     0.86780   0.93773   0.77511   0.01267  Uiso   1.00
C383   C     0.84359   0.93911   0.79833   0.01267  Uiso   1.00
C384   C     0.81932   0.94542   0.79696   0.01267  Uiso   1.00
C385   C     0.04163   0.06406   0.60157   0.01267  Uiso   1.00
C386   C     0.99695   0.09064   0.62499   0.01267  Uiso   1.00
C387   C     0.02205   0.06782   0.62506   0.01267  Uiso   1.00
C388   C     0.02610   0.04855   0.64857   0.01267  Uiso   1.00
C389   C     0.98201   0.08703   0.54484   0.01267  Uiso   1.00
C390   C     0.95039   0.10596   0.58169   0.01267  Uiso   1.00
C391   C     0.95760   0.09130   0.56470   0.01267  Uiso   1.00
C392   C     0.98848   0.07319   0.52917   0.01267  Uiso   1.00
C393   C     0.97801   0.04690   0.51739   0.01267  Uiso   1.00
C394   C     0.97073   0.06325   0.53274   0.01267  Uiso   1.00
C395   C     0.93984   0.08149   0.56810   0.01267  Uiso   1.00
C396   C     0.94626   0.06778   0.55243   0.01267  Uiso   1.00
C397   C     0.92736   0.96575   0.62901   0.01267  Uiso   1.00
C398   C     0.93637   0.97480   0.60159   0.01267  Uiso   1.00
C399   C     0.00806   0.92776   0.71368   0.01267  Uiso   1.00
C400   C     0.97696   0.90834   0.72170   0.01267  Uiso   1.00
C401   C     0.00328   0.91028   0.71013   0.01267  Uiso   1.00
C402   C     0.03250   0.93111   0.70062   0.01267  Uiso   1.00
C403   C     0.91743   0.17204   0.58192   0.01267  Uiso   1.00
C404   C     0.05253   0.91701   0.68385   0.01267  Uiso   1.00
C405   C     0.02362   0.89562   0.69408   0.01267  Uiso   1.00
C406   C     0.04787   0.89889   0.68119   0.01267  Uiso   1.00
O222   O     0.78897   0.82441   0.74786   0.01267  Uiso   1.00
O223   O     0.88117   0.91673   0.72475   0.01267  Uiso   1.00
O224   O     0.80648   0.84199   0.76523   0.01267  Uiso   1.00
O225   O     0.86630   0.94363   0.75327   0.01267  Uiso   1.00
O226   O     0.93031   0.88918   0.77824   0.01267  Uiso   1.00
O227   O     0.99374   0.10659   0.60319   0.01267  Uiso   1.00
O228   O     0.96902   0.15715   0.60330   0.01267  Uiso   1.00
O229   O     0.96610   0.11604   0.57723   0.01267  Uiso   1.00
O230   O     0.92851   0.10795   0.60000   0.01267  Uiso   1.00
O231   O     0.00073   0.04203   0.50060   0.01267  Uiso   1.00
O232   O     0.96133   0.03782   0.52229   0.01267  Uiso   1.00
O233   O     0.91074   0.94621   0.68444   0.01267  Uiso   1.00
O234   O     0.95654   0.99199   0.54751   0.01267  Uiso   1.00
O235   O     0.95984   0.91888   0.73889   0.01267  Uiso   1.00
O236   O     0.89668   0.97254   0.71343   0.01267  Uiso   1.00
O237   O     0.94145   0.16590   0.57773   0.01267  Uiso   1.00
O238   O     0.91093   0.09263   0.65057   0.01267  Uiso   1.00
H222   H     0.77378   0.84271   0.71098   0.01267  Uiso   1.00
H223   H     0.84083   0.90963   0.73468   0.01267  Uiso   1.00
H224   H     0.81471   0.88351   0.74927   0.01267  Uiso   1.00
H225   H     0.86305   0.92826   0.82446   0.01267  Uiso   1.00
H226   H     0.81764   0.95001   0.77869   0.01267  Uiso   1.00
H227   H     0.03939   0.07824   0.58302   0.01267  Uiso   1.00
H228   H     0.01158   0.05050   0.66710   0.01267  Uiso   1.00
H229   H     0.99626   0.09421   0.54151   0.01267  Uiso   1.00
H230   H     0.00759   0.07002   0.51443   0.01267  Uiso   1.00
H231   H     0.92083   0.08433   0.58302   0.01267  Uiso   1.00
H232   H     0.93203   0.06039   0.55606   0.01267  Uiso   1.00
H233   H     0.90893   0.97758   0.63910   0.01267  Uiso   1.00
H234   H     0.92451   0.99335   0.59165   0.01267  Uiso   1.00
H235   H     0.99270   0.93941   0.72592   0.01267  Uiso   1.00
H236   H     0.03548   0.94517   0.70310   0.01267  Uiso   1.00
H237   H     0.02072   0.88186   0.69105   0.01267  Uiso   1.00
H238   H     0.06289   0.88740   0.66869   0.01267  Uiso   1.00
Cr29   Cr    0.59230   0.30577   0.96616   0.01267  Uiso   1.00
Cr30   Cr    0.71966   0.44652   0.89037   0.01267  Uiso   1.00
C407   C     0.70277   0.68056   0.78908   0.01267  Uiso   1.00
C408   C     0.73753   0.52304   0.85045   0.01267  Uiso   1.00
C409   C     0.74597   0.54461   0.83545   0.01267  Uiso   1.00
C410   C     0.82254   0.39946   0.84479   0.01267  Uiso   1.00
C411   C     0.77511   0.41937   0.86780   0.01267  Uiso   1.00
C412   C     0.79833   0.41896   0.84359   0.01267  Uiso   1.00
C413   C     0.79696   0.43830   0.81932   0.01267  Uiso   1.00
C414   C     0.60157   0.29274   0.04163   0.01267  Uiso   1.00
C415   C     0.62499   0.28742   0.99695   0.01267  Uiso   1.00
C416   C     0.62506   0.28506   0.02205   0.01267  Uiso   1.00
C417   C     0.64857   0.27678   0.02610   0.01267  Uiso   1.00
C418   C     0.54484   0.38611   0.98201   0.01267  Uiso   1.00
C419   C     0.58169   0.36196   0.95039   0.01267  Uiso   1.00
C420   C     0.56470   0.38640   0.95760   0.01267  Uiso   1.00
C421   C     0.52917   0.40915   0.98848   0.01267  Uiso   1.00
C422   C     0.51739   0.45770   0.97801   0.01267  Uiso   1.00
C423   C     0.53274   0.43328   0.97073   0.01267  Uiso   1.00
C424   C     0.56810   0.41057   0.93984   0.01267  Uiso   1.00
C425   C     0.55243   0.43353   0.94626   0.01267  Uiso   1.00
C426   C     0.62901   0.47788   0.92736   0.01267  Uiso   1.00
C427   C     0.60159   0.48724   0.93637   0.01267  Uiso   1.00
C428   C     0.71368   0.35050   0.00806   0.01267  Uiso   1.00
C429   C     0.72170   0.39300   0.97696   0.01267  Uiso   1.00
C430   C     0.71013   0.37631   0.00328   0.01267  Uiso   1.00
C431   C     0.70062   0.33577   0.03250   0.01267  Uiso   1.00
C432   C     0.58192   0.32862   0.91743   0.01267  Uiso   1.00
C433   C     0.68385   0.34661   0.05253   0.01267  Uiso   1.00
C434   C     0.69408   0.38669   0.02362   0.01267  Uiso   1.00
C435   C     0.68119   0.37206   0.04787   0.01267  Uiso   1.00
O239   O     0.74786   0.63876   0.78897   0.01267  Uiso   1.00
O240   O     0.72475   0.47735   0.88117   0.01267  Uiso   1.00
O241   O     0.76523   0.58630   0.80648   0.01267  Uiso   1.00
O242   O     0.75327   0.43680   0.86630   0.01267  Uiso   1.00
O243   O     0.77824   0.40227   0.93031   0.01267  Uiso   1.00
O244   O     0.60319   0.29648   0.99374   0.01267  Uiso   1.00
O245   O     0.60330   0.27054   0.96902   0.01267  Uiso   1.00
O246   O     0.57723   0.34063   0.96610   0.01267  Uiso   1.00
O247   O     0.60000   0.36353   0.92851   0.01267  Uiso   1.00
O248   O     0.50060   0.45664   0.00073   0.01267  Uiso   1.00
O249   O     0.52229   0.47857   0.96133   0.01267  Uiso   1.00
O250   O     0.68444   0.45860   0.91074   0.01267  Uiso   1.00
O251   O     0.54751   0.50396   0.95654   0.01267  Uiso   1.00
O252   O     0.73889   0.38238   0.95984   0.01267  Uiso   1.00
O253   O     0.71343   0.41736   0.89668   0.01267  Uiso   1.00
O254   O     0.57773   0.31492   0.94145   0.01267  Uiso   1.00
O255   O     0.65057   0.34586   0.91093   0.01267  Uiso   1.00
H239   H     0.71098   0.67253   0.77378   0.01267  Uiso   1.00
H240   H     0.73468   0.51485   0.84083   0.01267  Uiso   1.00
H241   H     0.74927   0.55251   0.81471   0.01267  Uiso   1.00
H242   H     0.82446   0.38423   0.86305   0.01267  Uiso   1.00
H243   H     0.77869   0.45366   0.81764   0.01267  Uiso   1.00
H244   H     0.58302   0.29936   0.03939   0.01267  Uiso   1.00
H245   H     0.66710   0.27082   0.01158   0.01267  Uiso   1.00
H246   H     0.54151   0.36801   0.99626   0.01267  Uiso   1.00
H247   H     0.51443   0.40797   0.00759   0.01267  Uiso   1.00
H248   H     0.58302   0.41181   0.92083   0.01267  Uiso   1.00
H249   H     0.55606   0.45151   0.93203   0.01267  Uiso   1.00
H250   H     0.63910   0.47439   0.90893   0.01267  Uiso   1.00
H251   H     0.59165   0.49049   0.92451   0.01267  Uiso   1.00
H252   H     0.72592   0.34198   0.99270   0.01267  Uiso   1.00
H253   H     0.70310   0.31624   0.03548   0.01267  Uiso   1.00
H254   H     0.69105   0.40637   0.02072   0.01267  Uiso   1.00
H255   H     0.66869   0.38102   0.06289   0.01267  Uiso   1.00
Cr31   Cr    0.30577   0.59230   0.13577   0.01267  Uiso   1.00
Cr32   Cr    0.44652   0.71966   0.94344   0.01267  Uiso   1.00
C436   C     0.68056   0.70277   0.82760   0.01267  Uiso   1.00
C437   C     0.52304   0.73753   0.88898   0.01267  Uiso   1.00
C438   C     0.54461   0.74597   0.87397   0.01267  Uiso   1.00
C439   C     0.39946   0.82254   0.93321   0.01267  Uiso   1.00
C440   C     0.41937   0.77511   0.93773   0.01267  Uiso   1.00
C441   C     0.41896   0.79833   0.93911   0.01267  Uiso   1.00
C442   C     0.43830   0.79696   0.94542   0.01267  Uiso   1.00
C443   C     0.29274   0.60157   0.06406   0.01267  Uiso   1.00
C444   C     0.28742   0.62499   0.09064   0.01267  Uiso   1.00
C445   C     0.28506   0.62506   0.06782   0.01267  Uiso   1.00
C446   C     0.27678   0.64857   0.04855   0.01267  Uiso   1.00
C447   C     0.38611   0.54484   0.08703   0.01267  Uiso   1.00
C448   C     0.36196   0.58169   0.10596   0.01267  Uiso   1.00
C449   C     0.38640   0.56470   0.09130   0.01267  Uiso   1.00
C450   C     0.40915   0.52917   0.07319   0.01267  Uiso   1.00
C451   C     0.45770   0.51739   0.04690   0.01267  Uiso   1.00
C452   C     0.43328   0.53274   0.06325   0.01267  Uiso   1.00
C453   C     0.41057   0.56810   0.08149   0.01267  Uiso   1.00
C454   C     0.43353   0.55243   0.06778   0.01267  Uiso   1.00
C455   C     0.47788   0.62901   0.96575   0.01267  Uiso   1.00
C456   C     0.48724   0.60159   0.97480   0.01267  Uiso   1.00
C457   C     0.35050   0.71368   0.92776   0.01267  Uiso   1.00
C458   C     0.39300   0.72170   0.90834   0.01267  Uiso   1.00
C459   C     0.37631   0.71013   0.91028   0.01267  Uiso   1.00
C460   C     0.33577   0.70062   0.93111   0.01267  Uiso   1.00
C461   C     0.32862   0.58192   0.17204   0.01267  Uiso   1.00
C462   C     0.34661   0.68385   0.91701   0.01267  Uiso   1.00
C463   C     0.38669   0.69408   0.89562   0.01267  Uiso   1.00
C464   C     0.37206   0.68119   0.89889   0.01267  Uiso   1.00
O256   O     0.63876   0.74786   0.82441   0.01267  Uiso   1.00
O257   O     0.47735   0.72475   0.91673   0.01267  Uiso   1.00
O258   O     0.58630   0.76523   0.84199   0.01267  Uiso   1.00
O259   O     0.43680   0.75327   0.94363   0.01267  Uiso   1.00
O260   O     0.40227   0.77824   0.88918   0.01267  Uiso   1.00
O261   O     0.29648   0.60319   0.10659   0.01267  Uiso   1.00
O262   O     0.27054   0.60330   0.15715   0.01267  Uiso   1.00
O263   O     0.34063   0.57723   0.11604   0.01267  Uiso   1.00
O264   O     0.36353   0.60000   0.10795   0.01267  Uiso   1.00
O265   O     0.45664   0.50060   0.04203   0.01267  Uiso   1.00
O266   O     0.47857   0.52229   0.03782   0.01267  Uiso   1.00
O267   O     0.45860   0.68444   0.94621   0.01267  Uiso   1.00
O268   O     0.50396   0.54751   0.99199   0.01267  Uiso   1.00
O269   O     0.38238   0.73889   0.91888   0.01267  Uiso   1.00
O270   O     0.41736   0.71343   0.97254   0.01267  Uiso   1.00
O271   O     0.31492   0.57773   0.16590   0.01267  Uiso   1.00
O272   O     0.34586   0.65057   0.09263   0.01267  Uiso   1.00
H256   H     0.67253   0.71098   0.84271   0.01267  Uiso   1.00
H257   H     0.51485   0.73468   0.90963   0.01267  Uiso   1.00
H258   H     0.55251   0.74927   0.88351   0.01267  Uiso   1.00
H259   H     0.38423   0.82446   0.92826   0.01267  Uiso   1.00
H260   H     0.45366   0.77869   0.95001   0.01267  Uiso   1.00
H261   H     0.29936   0.58302   0.07824   0.01267  Uiso   1.00
H262   H     0.27082   0.66710   0.05050   0.01267  Uiso   1.00
H263   H     0.36801   0.54151   0.09421   0.01267  Uiso   1.00
H264   H     0.40797   0.51443   0.07002   0.01267  Uiso   1.00
H265   H     0.41181   0.58302   0.08433   0.01267  Uiso   1.00
H266   H     0.45151   0.55606   0.06039   0.01267  Uiso   1.00
H267   H     0.47439   0.63910   0.97758   0.01267  Uiso   1.00
H268   H     0.49049   0.59165   0.99335   0.01267  Uiso   1.00
H269   H     0.34198   0.72592   0.93941   0.01267  Uiso   1.00
H270   H     0.31624   0.70310   0.94517   0.01267  Uiso   1.00
H271   H     0.40637   0.69105   0.88186   0.01267  Uiso   1.00
H272   H     0.38102   0.66869   0.88740   0.01267  Uiso   1.00
Cr33   Cr    0.59230   0.13577   0.30577   0.01267  Uiso   1.00
Cr34   Cr    0.71966   0.94344   0.44652   0.01267  Uiso   1.00
C465   C     0.70277   0.82760   0.68056   0.01267  Uiso   1.00
C466   C     0.73753   0.88898   0.52304   0.01267  Uiso   1.00
C467   C     0.74597   0.87397   0.54461   0.01267  Uiso   1.00
C468   C     0.82254   0.93321   0.39946   0.01267  Uiso   1.00
C469   C     0.77511   0.93773   0.41937   0.01267  Uiso   1.00
C470   C     0.79833   0.93911   0.41896   0.01267  Uiso   1.00
C471   C     0.79696   0.94542   0.43830   0.01267  Uiso   1.00
C472   C     0.60157   0.06406   0.29274   0.01267  Uiso   1.00
C473   C     0.62499   0.09064   0.28742   0.01267  Uiso   1.00
C474   C     0.62506   0.06782   0.28506   0.01267  Uiso   1.00
C475   C     0.64857   0.04855   0.27678   0.01267  Uiso   1.00
C476   C     0.54484   0.08703   0.38611   0.01267  Uiso   1.00
C477   C     0.58169   0.10596   0.36196   0.01267  Uiso   1.00
C478   C     0.56470   0.09130   0.38640   0.01267  Uiso   1.00
C479   C     0.52917   0.07319   0.40915   0.01267  Uiso   1.00
C480   C     0.51739   0.04690   0.45770   0.01267  Uiso   1.00
C481   C     0.53274   0.06325   0.43328   0.01267  Uiso   1.00
C482   C     0.56810   0.08149   0.41057   0.01267  Uiso   1.00
C483   C     0.55243   0.06778   0.43353   0.01267  Uiso   1.00
C484   C     0.62901   0.96575   0.47788   0.01267  Uiso   1.00
C485   C     0.60159   0.97480   0.48724   0.01267  Uiso   1.00
C486   C     0.71368   0.92776   0.35050   0.01267  Uiso   1.00
C487   C     0.72170   0.90834   0.39300   0.01267  Uiso   1.00
C488   C     0.71013   0.91028   0.37631   0.01267  Uiso   1.00
C489   C     0.70062   0.93111   0.33577   0.01267  Uiso   1.00
C490   C     0.58192   0.17204   0.32862   0.01267  Uiso   1.00
C491   C     0.68385   0.91701   0.34661   0.01267  Uiso   1.00
C492   C     0.69408   0.89562   0.38669   0.01267  Uiso   1.00
C493   C     0.68119   0.89889   0.37206   0.01267  Uiso   1.00
O273   O     0.74786   0.82441   0.63876   0.01267  Uiso   1.00
O274   O     0.72475   0.91673   0.47735   0.01267  Uiso   1.00
O275   O     0.76523   0.84199   0.58630   0.01267  Uiso   1.00
O276   O     0.75327   0.94363   0.43680   0.01267  Uiso   1.00
O277   O     0.77824   0.88918   0.40227   0.01267  Uiso   1.00
O278   O     0.60319   0.10659   0.29648   0.01267  Uiso   1.00
O279   O     0.60330   0.15715   0.27054   0.01267  Uiso   1.00
O280   O     0.57723   0.11604   0.34063   0.01267  Uiso   1.00
O281   O     0.60000   0.10795   0.36353   0.01267  Uiso   1.00
O282   O     0.50060   0.04203   0.45664   0.01267  Uiso   1.00
O283   O     0.52229   0.03782   0.47857   0.01267  Uiso   1.00
O284   O     0.68444   0.94621   0.45860   0.01267  Uiso   1.00
O285   O     0.54751   0.99199   0.50396   0.01267  Uiso   1.00
O286   O     0.73889   0.91888   0.38238   0.01267  Uiso   1.00
O287   O     0.71343   0.97254   0.41736   0.01267  Uiso   1.00
O288   O     0.57773   0.16590   0.31492   0.01267  Uiso   1.00
O289   O     0.65057   0.09263   0.34586   0.01267  Uiso   1.00
H273   H     0.71098   0.84271   0.67253   0.01267  Uiso   1.00
H274   H     0.73468   0.90963   0.51485   0.01267  Uiso   1.00
H275   H     0.74927   0.88351   0.55251   0.01267  Uiso   1.00
H276   H     0.82446   0.92826   0.38423   0.01267  Uiso   1.00
H277   H     0.77869   0.95001   0.45366   0.01267  Uiso   1.00
H278   H     0.58302   0.07824   0.29936   0.01267  Uiso   1.00
H279   H     0.66710   0.05050   0.27082   0.01267  Uiso   1.00
H280   H     0.54151   0.09421   0.36801   0.01267  Uiso   1.00
H281   H     0.51443   0.07002   0.40797   0.01267  Uiso   1.00
H282   H     0.58302   0.08433   0.41181   0.01267  Uiso   1.00
H283   H     0.55606   0.06039   0.45151   0.01267  Uiso   1.00
H284   H     0.63910   0.97758   0.47439   0.01267  Uiso   1.00
H285   H     0.59165   0.99335   0.49049   0.01267  Uiso   1.00
H286   H     0.72592   0.93941   0.34198   0.01267  Uiso   1.00
H287   H     0.70310   0.94517   0.31624   0.01267  Uiso   1.00
H288   H     0.69105   0.88186   0.40637   0.01267  Uiso   1.00
H289   H     0.66869   0.88740   0.38102   0.01267  Uiso   1.00
Cr35   Cr    0.30577   0.96616   0.59230   0.01267  Uiso   1.00
Cr36   Cr    0.44652   0.89037   0.71966   0.01267  Uiso   1.00
C494   C     0.68056   0.78908   0.70277   0.01267  Uiso   1.00
C495   C     0.52304   0.85045   0.73753   0.01267  Uiso   1.00
C496   C     0.54461   0.83545   0.74597   0.01267  Uiso   1.00
C497   C     0.39946   0.84479   0.82254   0.01267  Uiso   1.00
C498   C     0.41937   0.86780   0.77511   0.01267  Uiso   1.00
C499   C     0.41896   0.84359   0.79833   0.01267  Uiso   1.00
C500   C     0.43830   0.81932   0.79696   0.01267  Uiso   1.00
C501   C     0.29274   0.04163   0.60157   0.01267  Uiso   1.00
C502   C     0.28742   0.99695   0.62499   0.01267  Uiso   1.00
C503   C     0.28506   0.02205   0.62506   0.01267  Uiso   1.00
C504   C     0.27678   0.02610   0.64857   0.01267  Uiso   1.00
C505   C     0.38611   0.98201   0.54484   0.01267  Uiso   1.00
C506   C     0.36196   0.95039   0.58169   0.01267  Uiso   1.00
C507   C     0.38640   0.95760   0.56470   0.01267  Uiso   1.00
C508   C     0.40915   0.98848   0.52917   0.01267  Uiso   1.00
C509   C     0.45770   0.97801   0.51739   0.01267  Uiso   1.00
C510   C     0.43328   0.97073   0.53274   0.01267  Uiso   1.00
C511   C     0.41057   0.93984   0.56810   0.01267  Uiso   1.00
C512   C     0.43353   0.94626   0.55243   0.01267  Uiso   1.00
C513   C     0.47788   0.92736   0.62901   0.01267  Uiso   1.00
C514   C     0.48724   0.93637   0.60159   0.01267  Uiso   1.00
C515   C     0.35050   0.00806   0.71368   0.01267  Uiso   1.00
C516   C     0.39300   0.97696   0.72170   0.01267  Uiso   1.00
C517   C     0.37631   0.00328   0.71013   0.01267  Uiso   1.00
C518   C     0.33577   0.03250   0.70062   0.01267  Uiso   1.00
C519   C     0.32862   0.91743   0.58192   0.01267  Uiso   1.00
C520   C     0.34661   0.05253   0.68385   0.01267  Uiso   1.00
C521   C     0.38669   0.02362   0.69408   0.01267  Uiso   1.00
C522   C     0.37206   0.04787   0.68119   0.01267  Uiso   1.00
O290   O     0.63876   0.78897   0.74786   0.01267  Uiso   1.00
O291   O     0.47735   0.88117   0.72475   0.01267  Uiso   1.00
O292   O     0.58630   0.80648   0.76523   0.01267  Uiso   1.00
O293   O     0.43680   0.86630   0.75327   0.01267  Uiso   1.00
O294   O     0.40227   0.93031   0.77824   0.01267  Uiso   1.00
O295   O     0.29648   0.99374   0.60319   0.01267  Uiso   1.00
O296   O     0.27054   0.96902   0.60330   0.01267  Uiso   1.00
O297   O     0.34063   0.96610   0.57723   0.01267  Uiso   1.00
O298   O     0.36353   0.92851   0.60000   0.01267  Uiso   1.00
O299   O     0.45664   0.00073   0.50060   0.01267  Uiso   1.00
O300   O     0.47857   0.96133   0.52229   0.01267  Uiso   1.00
O301   O     0.45860   0.91074   0.68444   0.01267  Uiso   1.00
O302   O     0.50396   0.95654   0.54751   0.01267  Uiso   1.00
O303   O     0.38238   0.95984   0.73889   0.01267  Uiso   1.00
O304   O     0.41736   0.89668   0.71343   0.01267  Uiso   1.00
O305   O     0.31492   0.94145   0.57773   0.01267  Uiso   1.00
O306   O     0.34586   0.91093   0.65057   0.01267  Uiso   1.00
H290   H     0.67253   0.77378   0.71098   0.01267  Uiso   1.00
H291   H     0.51485   0.84083   0.73468   0.01267  Uiso   1.00
H292   H     0.55251   0.81471   0.74927   0.01267  Uiso   1.00
H293   H     0.38423   0.86305   0.82446   0.01267  Uiso   1.00
H294   H     0.45366   0.81764   0.77869   0.01267  Uiso   1.00
H295   H     0.29936   0.03939   0.58302   0.01267  Uiso   1.00
H296   H     0.27082   0.01158   0.66710   0.01267  Uiso   1.00
H297   H     0.36801   0.99626   0.54151   0.01267  Uiso   1.00
H298   H     0.40797   0.00759   0.51443   0.01267  Uiso   1.00
H299   H     0.41181   0.92083   0.58302   0.01267  Uiso   1.00
H300   H     0.45151   0.93203   0.55606   0.01267  Uiso   1.00
H301   H     0.47439   0.90893   0.63910   0.01267  Uiso   1.00
H302   H     0.49049   0.92451   0.59165   0.01267  Uiso   1.00
H303   H     0.34198   0.99270   0.72592   0.01267  Uiso   1.00
H304   H     0.31624   0.03548   0.70310   0.01267  Uiso   1.00
H305   H     0.40637   0.02072   0.69105   0.01267  Uiso   1.00
H306   H     0.38102   0.06289   0.66869   0.01267  Uiso   1.00
Cr37   Cr    0.13577   0.59230   0.96616   0.01267  Uiso   1.00
Cr38   Cr    0.94344   0.71966   0.89037   0.01267  Uiso   1.00
C523   C     0.82760   0.70277   0.78908   0.01267  Uiso   1.00
C524   C     0.88898   0.73753   0.85045   0.01267  Uiso   1.00
C525   C     0.87397   0.74597   0.83545   0.01267  Uiso   1.00
C526   C     0.93321   0.82254   0.84479   0.01267  Uiso   1.00
C527   C     0.93773   0.77511   0.86780   0.01267  Uiso   1.00
C528   C     0.93911   0.79833   0.84359   0.01267  Uiso   1.00
C529   C     0.94542   0.79696   0.81932   0.01267  Uiso   1.00
C530   C     0.06406   0.60157   0.04163   0.01267  Uiso   1.00
C531   C     0.09064   0.62499   0.99695   0.01267  Uiso   1.00
C532   C     0.06782   0.62506   0.02205   0.01267  Uiso   1.00
C533   C     0.04855   0.64857   0.02610   0.01267  Uiso   1.00
C534   C     0.08703   0.54484   0.98201   0.01267  Uiso   1.00
C535   C     0.10596   0.58169   0.95039   0.01267  Uiso   1.00
C536   C     0.09130   0.56470   0.95760   0.01267  Uiso   1.00
C537   C     0.07319   0.52917   0.98848   0.01267  Uiso   1.00
C538   C     0.04690   0.51739   0.97801   0.01267  Uiso   1.00
C539   C     0.06325   0.53274   0.97073   0.01267  Uiso   1.00
C540   C     0.08149   0.56810   0.93984   0.01267  Uiso   1.00
C541   C     0.06778   0.55243   0.94626   0.01267  Uiso   1.00
C542   C     0.96575   0.62901   0.92736   0.01267  Uiso   1.00
C543   C     0.97480   0.60159   0.93637   0.01267  Uiso   1.00
C544   C     0.92776   0.71368   0.00806   0.01267  Uiso   1.00
C545   C     0.90834   0.72170   0.97696   0.01267  Uiso   1.00
C546   C     0.91028   0.71013   0.00328   0.01267  Uiso   1.00
C547   C     0.93111   0.70062   0.03250   0.01267  Uiso   1.00
C548   C     0.17204   0.58192   0.91743   0.01267  Uiso   1.00
C549   C     0.91701   0.68385   0.05253   0.01267  Uiso   1.00
C550   C     0.89562   0.69408   0.02362   0.01267  Uiso   1.00
C551   C     0.89889   0.68119   0.04787   0.01267  Uiso   1.00
O307   O     0.82441   0.74786   0.78897   0.01267  Uiso   1.00
O308   O     0.91673   0.72475   0.88117   0.01267  Uiso   1.00
O309   O     0.84199   0.76523   0.80648   0.01267  Uiso   1.00
O310   O     0.94363   0.75327   0.86630   0.01267  Uiso   1.00
O311   O     0.88918   0.77824   0.93031   0.01267  Uiso   1.00
O312   O     0.10659   0.60319   0.99374   0.01267  Uiso   1.00
O313   O     0.15715   0.60330   0.96902   0.01267  Uiso   1.00
O314   O     0.11604   0.57723   0.96610   0.01267  Uiso   1.00
O315   O     0.10795   0.60000   0.92851   0.01267  Uiso   1.00
O316   O     0.04203   0.50060   0.00073   0.01267  Uiso   1.00
O317   O     0.03782   0.52229   0.96133   0.01267  Uiso   1.00
O318   O     0.94621   0.68444   0.91074   0.01267  Uiso   1.00
O319   O     0.99199   0.54751   0.95654   0.01267  Uiso   1.00
O320   O     0.91888   0.73889   0.95984   0.01267  Uiso   1.00
O321   O     0.97254   0.71343   0.89668   0.01267  Uiso   1.00
O322   O     0.16590   0.57773   0.94145   0.01267  Uiso   1.00
O323   O     0.09263   0.65057   0.91093   0.01267  Uiso   1.00
H307   H     0.84271   0.71098   0.77378   0.01267  Uiso   1.00
H308   H     0.90963   0.73468   0.84083   0.01267  Uiso   1.00
H309   H     0.88351   0.74927   0.81471   0.01267  Uiso   1.00
H310   H     0.92826   0.82446   0.86305   0.01267  Uiso   1.00
H311   H     0.95001   0.77869   0.81764   0.01267  Uiso   1.00
H312   H     0.07824   0.58302   0.03939   0.01267  Uiso   1.00
H313   H     0.05050   0.66710   0.01158   0.01267  Uiso   1.00
H314   H     0.09421   0.54151   0.99626   0.01267  Uiso   1.00
H315   H     0.07002   0.51443   0.00759   0.01267  Uiso   1.00
H316   H     0.08433   0.58302   0.92083   0.01267  Uiso   1.00
H317   H     0.06039   0.55606   0.93203   0.01267  Uiso   1.00
H318   H     0.97758   0.63910   0.90893   0.01267  Uiso   1.00
H319   H     0.99335   0.59165   0.92451   0.01267  Uiso   1.00
H320   H     0.93941   0.72592   0.99270   0.01267  Uiso   1.00
H321   H     0.94517   0.70310   0.03548   0.01267  Uiso   1.00
H322   H     0.88186   0.69105   0.02072   0.01267  Uiso   1.00
H323   H     0.88740   0.66869   0.06289   0.01267  Uiso   1.00
Cr39   Cr    0.96616   0.30577   0.13577   0.01267  Uiso   1.00
Cr40   Cr    0.89037   0.44652   0.94344   0.01267  Uiso   1.00
C552   C     0.78908   0.68056   0.82760   0.01267  Uiso   1.00
C553   C     0.85045   0.52304   0.88898   0.01267  Uiso   1.00
C554   C     0.83545   0.54461   0.87397   0.01267  Uiso   1.00
C555   C     0.84479   0.39946   0.93321   0.01267  Uiso   1.00
C556   C     0.86780   0.41937   0.93773   0.01267  Uiso   1.00
C557   C     0.84359   0.41896   0.93911   0.01267  Uiso   1.00
C558   C     0.81932   0.43830   0.94542   0.01267  Uiso   1.00
C559   C     0.04163   0.29274   0.06406   0.01267  Uiso   1.00
C560   C     0.99695   0.28742   0.09064   0.01267  Uiso   1.00
C561   C     0.02205   0.28506   0.06782   0.01267  Uiso   1.00
C562   C     0.02610   0.27678   0.04855   0.01267  Uiso   1.00
C563   C     0.98201   0.38611   0.08703   0.01267  Uiso   1.00
C564   C     0.95039   0.36196   0.10596   0.01267  Uiso   1.00
C565   C     0.95760   0.38640   0.09130   0.01267  Uiso   1.00
C566   C     0.98848   0.40915   0.07319   0.01267  Uiso   1.00
C567   C     0.97801   0.45770   0.04690   0.01267  Uiso   1.00
C568   C     0.97073   0.43328   0.06325   0.01267  Uiso   1.00
C569   C     0.93984   0.41057   0.08149   0.01267  Uiso   1.00
C570   C     0.94626   0.43353   0.06778   0.01267  Uiso   1.00
C571   C     0.92736   0.47788   0.96575   0.01267  Uiso   1.00
C572   C     0.93637   0.48724   0.97480   0.01267  Uiso   1.00
C573   C     0.00806   0.35050   0.92776   0.01267  Uiso   1.00
C574   C     0.97696   0.39300   0.90834   0.01267  Uiso   1.00
C575   C     0.00328   0.37631   0.91028   0.01267  Uiso   1.00
C576   C     0.03250   0.33577   0.93111   0.01267  Uiso   1.00
C577   C     0.91743   0.32862   0.17204   0.01267  Uiso   1.00
C578   C     0.05253   0.34661   0.91701   0.01267  Uiso   1.00
C579   C     0.02362   0.38669   0.89562   0.01267  Uiso   1.00
C580   C     0.04787   0.37206   0.89889   0.01267  Uiso   1.00
O324   O     0.78897   0.63876   0.82441   0.01267  Uiso   1.00
O325   O     0.88117   0.47735   0.91673   0.01267  Uiso   1.00
O326   O     0.80648   0.58630   0.84199   0.01267  Uiso   1.00
O327   O     0.86630   0.43680   0.94363   0.01267  Uiso   1.00
O328   O     0.93031   0.40227   0.88918   0.01267  Uiso   1.00
O329   O     0.99374   0.29648   0.10659   0.01267  Uiso   1.00
O330   O     0.96902   0.27054   0.15715   0.01267  Uiso   1.00
O331   O     0.96610   0.34063   0.11604   0.01267  Uiso   1.00
O332   O     0.92851   0.36353   0.10795   0.01267  Uiso   1.00
O333   O     0.00073   0.45664   0.04203   0.01267  Uiso   1.00
O334   O     0.96133   0.47857   0.03782   0.01267  Uiso   1.00
O335   O     0.91074   0.45860   0.94621   0.01267  Uiso   1.00
O336   O     0.95654   0.50396   0.99199   0.01267  Uiso   1.00
O337   O     0.95984   0.38238   0.91888   0.01267  Uiso   1.00
O338   O     0.89668   0.41736   0.97254   0.01267  Uiso   1.00
O339   O     0.94145   0.31492   0.16590   0.01267  Uiso   1.00
O340   O     0.91093   0.34586   0.09263   0.01267  Uiso   1.00
H324   H     0.77378   0.67253   0.84271   0.01267  Uiso   1.00
H325   H     0.84083   0.51485   0.90963   0.01267  Uiso   1.00
H326   H     0.81471   0.55251   0.88351   0.01267  Uiso   1.00
H327   H     0.86305   0.38423   0.92826   0.01267  Uiso   1.00
H328   H     0.81764   0.45366   0.95001   0.01267  Uiso   1.00
H329   H     0.03939   0.29936   0.07824   0.01267  Uiso   1.00
H330   H     0.01158   0.27082   0.05050   0.01267  Uiso   1.00
H331   H     0.99626   0.36801   0.09421   0.01267  Uiso   1.00
H332   H     0.00759   0.40797   0.07002   0.01267  Uiso   1.00
H333   H     0.92083   0.41181   0.08433   0.01267  Uiso   1.00
H334   H     0.93203   0.45151   0.06039   0.01267  Uiso   1.00
H335   H     0.90893   0.47439   0.97758   0.01267  Uiso   1.00
H336   H     0.92451   0.49049   0.99335   0.01267  Uiso   1.00
H337   H     0.99270   0.34198   0.93941   0.01267  Uiso   1.00
H338   H     0.03548   0.31624   0.94517   0.01267  Uiso   1.00
H339   H     0.02072   0.40637   0.88186   0.01267  Uiso   1.00
H340   H     0.06289   0.38102   0.88740   0.01267  Uiso   1.00
Cr41   Cr    0.96616   0.59230   0.30577   0.01267  Uiso   1.00
Cr42   Cr    0.89037   0.71966   0.44652   0.01267  Uiso   1.00
C581   C     0.78908   0.70277   0.68056   0.01267  Uiso   1.00
C582   C     0.85045   0.73753   0.52304   0.01267  Uiso   1.00
C583   C     0.83545   0.74597   0.54461   0.01267  Uiso   1.00
C584   C     0.84479   0.82254   0.39946   0.01267  Uiso   1.00
C585   C     0.86780   0.77511   0.41937   0.01267  Uiso   1.00
C586   C     0.84359   0.79833   0.41896   0.01267  Uiso   1.00
C587   C     0.81932   0.79696   0.43830   0.01267  Uiso   1.00
C588   C     0.04163   0.60157   0.29274   0.01267  Uiso   1.00
C589   C     0.99695   0.62499   0.28742   0.01267  Uiso   1.00
C590   C     0.02205   0.62506   0.28506   0.01267  Uiso   1.00
C591   C     0.02610   0.64857   0.27678   0.01267  Uiso   1.00
C592   C     0.98201   0.54484   0.38611   0.01267  Uiso   1.00
C593   C     0.95039   0.58169   0.36196   0.01267  Uiso   1.00
C594   C     0.95760   0.56470   0.38640   0.01267  Uiso   1.00
C595   C     0.98848   0.52917   0.40915   0.01267  Uiso   1.00
C596   C     0.97801   0.51739   0.45770   0.01267  Uiso   1.00
C597   C     0.97073   0.53274   0.43328   0.01267  Uiso   1.00
C598   C     0.93984   0.56810   0.41057   0.01267  Uiso   1.00
C599   C     0.94626   0.55243   0.43353   0.01267  Uiso   1.00
C600   C     0.92736   0.62901   0.47788   0.01267  Uiso   1.00
C601   C     0.93637   0.60159   0.48724   0.01267  Uiso   1.00
C602   C     0.00806   0.71368   0.35050   0.01267  Uiso   1.00
C603   C     0.97696   0.72170   0.39300   0.01267  Uiso   1.00
C604   C     0.00328   0.71013   0.37631   0.01267  Uiso   1.00
C605   C     0.03250   0.70062   0.33577   0.01267  Uiso   1.00
C606   C     0.91743   0.58192   0.32862   0.01267  Uiso   1.00
C607   C     0.05253   0.68385   0.34661   0.01267  Uiso   1.00
C608   C     0.02362   0.69408   0.38669   0.01267  Uiso   1.00
C609   C     0.04787   0.68119   0.37206   0.01267  Uiso   1.00
O341   O     0.78897   0.74786   0.63876   0.01267  Uiso   1.00
O342   O     0.88117   0.72475   0.47735   0.01267  Uiso   1.00
O343   O     0.80648   0.76523   0.58630   0.01267  Uiso   1.00
O344   O     0.86630   0.75327   0.43680   0.01267  Uiso   1.00
O345   O     0.93031   0.77824   0.40227   0.01267  Uiso   1.00
O346   O     0.99374   0.60319   0.29648   0.01267  Uiso   1.00
O347   O     0.96902   0.60330   0.27054   0.01267  Uiso   1.00
O348   O     0.96610   0.57723   0.34063   0.01267  Uiso   1.00
O349   O     0.92851   0.60000   0.36353   0.01267  Uiso   1.00
O350   O     0.00073   0.50060   0.45664   0.01267  Uiso   1.00
O351   O     0.96133   0.52229   0.47857   0.01267  Uiso   1.00
O352   O     0.91074   0.68444   0.45860   0.01267  Uiso   1.00
O353   O     0.95654   0.54751   0.50396   0.01267  Uiso   1.00
O354   O     0.95984   0.73889   0.38238   0.01267  Uiso   1.00
O355   O     0.89668   0.71343   0.41736   0.01267  Uiso   1.00
O356   O     0.94145   0.57773   0.31492   0.01267  Uiso   1.00
O357   O     0.91093   0.65057   0.34586   0.01267  Uiso   1.00
H341   H     0.77378   0.71098   0.67253   0.01267  Uiso   1.00
H342   H     0.84083   0.73468   0.51485   0.01267  Uiso   1.00
H343   H     0.81471   0.74927   0.55251   0.01267  Uiso   1.00
H344   H     0.86305   0.82446   0.38423   0.01267  Uiso   1.00
H345   H     0.81764   0.77869   0.45366   0.01267  Uiso   1.00
H346   H     0.03939   0.58302   0.29936   0.01267  Uiso   1.00
H347   H     0.01158   0.66710   0.27082   0.01267  Uiso   1.00
H348   H     0.99626   0.54151   0.36801   0.01267  Uiso   1.00
H349   H     0.00759   0.51443   0.40797   0.01267  Uiso   1.00
H350   H     0.92083   0.58302   0.41181   0.01267  Uiso   1.00
H351   H     0.93203   0.55606   0.45151   0.01267  Uiso   1.00
H352   H     0.90893   0.63910   0.47439   0.01267  Uiso   1.00
H353   H     0.92451   0.59165   0.49049   0.01267  Uiso   1.00
H354   H     0.99270   0.72592   0.34198   0.01267  Uiso   1.00
H355   H     0.03548   0.70310   0.31624   0.01267  Uiso   1.00
H356   H     0.02072   0.69105   0.40637   0.01267  Uiso   1.00
H357   H     0.06289   0.66869   0.38102   0.01267  Uiso   1.00
Cr43   Cr    0.13577   0.30577   0.59230   0.01267  Uiso   1.00
Cr44   Cr    0.94344   0.44652   0.71966   0.01267  Uiso   1.00
C610   C     0.82760   0.68056   0.70277   0.01267  Uiso   1.00
C611   C     0.88898   0.52304   0.73753   0.01267  Uiso   1.00
C612   C     0.87397   0.54461   0.74597   0.01267  Uiso   1.00
C613   C     0.93321   0.39946   0.82254   0.01267  Uiso   1.00
C614   C     0.93773   0.41937   0.77511   0.01267  Uiso   1.00
C615   C     0.93911   0.41896   0.79833   0.01267  Uiso   1.00
C616   C     0.94542   0.43830   0.79696   0.01267  Uiso   1.00
C617   C     0.06406   0.29274   0.60157   0.01267  Uiso   1.00
C618   C     0.09064   0.28742   0.62499   0.01267  Uiso   1.00
C619   C     0.06782   0.28506   0.62506   0.01267  Uiso   1.00
C620   C     0.04855   0.27678   0.64857   0.01267  Uiso   1.00
C621   C     0.08703   0.38611   0.54484   0.01267  Uiso   1.00
C622   C     0.10596   0.36196   0.58169   0.01267  Uiso   1.00
C623   C     0.09130   0.38640   0.56470   0.01267  Uiso   1.00
C624   C     0.07319   0.40915   0.52917   0.01267  Uiso   1.00
C625   C     0.04690   0.45770   0.51739   0.01267  Uiso   1.00
C626   C     0.06325   0.43328   0.53274   0.01267  Uiso   1.00
C627   C     0.08149   0.41057   0.56810   0.01267  Uiso   1.00
C628   C     0.06778   0.43353   0.55243   0.01267  Uiso   1.00
C629   C     0.96575   0.47788   0.62901   0.01267  Uiso   1.00
C630   C     0.97480   0.48724   0.60159   0.01267  Uiso   1.00
C631   C     0.92776   0.35050   0.71368   0.01267  Uiso   1.00
C632   C     0.90834   0.39300   0.72170   0.01267  Uiso   1.00
C633   C     0.91028   0.37631   0.71013   0.01267  Uiso   1.00
C634   C     0.93111   0.33577   0.70062   0.01267  Uiso   1.00
C635   C     0.17204   0.32862   0.58192   0.01267  Uiso   1.00
C636   C     0.91701   0.34661   0.68385   0.01267  Uiso   1.00
C637   C     0.89562   0.38669   0.69408   0.01267  Uiso   1.00
C638   C     0.89889   0.37206   0.68119   0.01267  Uiso   1.00
O358   O     0.82441   0.63876   0.74786   0.01267  Uiso   1.00
O359   O     0.91673   0.47735   0.72475   0.01267  Uiso   1.00
O360   O     0.84199   0.58630   0.76523   0.01267  Uiso   1.00
O361   O     0.94363   0.43680   0.75327   0.01267  Uiso   1.00
O362   O     0.88918   0.40227   0.77824   0.01267  Uiso   1.00
O363   O     0.10659   0.29648   0.60319   0.01267  Uiso   1.00
O364   O     0.15715   0.27054   0.60330   0.01267  Uiso   1.00
O365   O     0.11604   0.34063   0.57723   0.01267  Uiso   1.00
O366   O     0.10795   0.36353   0.60000   0.01267  Uiso   1.00
O367   O     0.04203   0.45664   0.50060   0.01267  Uiso   1.00
O368   O     0.03782   0.47857   0.52229   0.01267  Uiso   1.00
O369   O     0.94621   0.45860   0.68444   0.01267  Uiso   1.00
O370   O     0.99199   0.50396   0.54751   0.01267  Uiso   1.00
O371   O     0.91888   0.38238   0.73889   0.01267  Uiso   1.00
O372   O     0.97254   0.41736   0.71343   0.01267  Uiso   1.00
O373   O     0.16590   0.31492   0.57773   0.01267  Uiso   1.00
O374   O     0.09263   0.34586   0.65057   0.01267  Uiso   1.00
H358   H     0.84271   0.67253   0.71098   0.01267  Uiso   1.00
H359   H     0.90963   0.51485   0.73468   0.01267  Uiso   1.00
H360   H     0.88351   0.55251   0.74927   0.01267  Uiso   1.00
H361   H     0.92826   0.38423   0.82446   0.01267  Uiso   1.00
H362   H     0.95001   0.45366   0.77869   0.01267  Uiso   1.00
H363   H     0.07824   0.29936   0.58302   0.01267  Uiso   1.00
H364   H     0.05050   0.27082   0.66710   0.01267  Uiso   1.00
H365   H     0.09421   0.36801   0.54151   0.01267  Uiso   1.00
H366   H     0.07002   0.40797   0.51443   0.01267  Uiso   1.00
H367   H     0.08433   0.41181   0.58302   0.01267  Uiso   1.00
H368   H     0.06039   0.45151   0.55606   0.01267  Uiso   1.00
H369   H     0.97758   0.47439   0.63910   0.01267  Uiso   1.00
H370   H     0.99335   0.49049   0.59165   0.01267  Uiso   1.00
H371   H     0.93941   0.34198   0.72592   0.01267  Uiso   1.00
H372   H     0.94517   0.31624   0.70310   0.01267  Uiso   1.00
H373   H     0.88186   0.40637   0.69105   0.01267  Uiso   1.00
H374   H     0.88740   0.38102   0.66869   0.01267  Uiso   1.00
Cr45   Cr    0.30577   0.13577   0.96616   0.01267  Uiso   1.00
Cr46   Cr    0.44652   0.94344   0.89037   0.01267  Uiso   1.00
C639   C     0.68056   0.82760   0.78908   0.01267  Uiso   1.00
C640   C     0.52304   0.88898   0.85045   0.01267  Uiso   1.00
C641   C     0.54461   0.87397   0.83545   0.01267  Uiso   1.00
C642   C     0.39946   0.93321   0.84479   0.01267  Uiso   1.00
C643   C     0.41937   0.93773   0.86780   0.01267  Uiso   1.00
C644   C     0.41896   0.93911   0.84359   0.01267  Uiso   1.00
C645   C     0.43830   0.94542   0.81932   0.01267  Uiso   1.00
C646   C     0.29274   0.06406   0.04163   0.01267  Uiso   1.00
C647   C     0.28742   0.09064   0.99695   0.01267  Uiso   1.00
C648   C     0.28506   0.06782   0.02205   0.01267  Uiso   1.00
C649   C     0.27678   0.04855   0.02610   0.01267  Uiso   1.00
C650   C     0.38611   0.08703   0.98201   0.01267  Uiso   1.00
C651   C     0.36196   0.10596   0.95039   0.01267  Uiso   1.00
C652   C     0.38640   0.09130   0.95760   0.01267  Uiso   1.00
C653   C     0.40915   0.07319   0.98848   0.01267  Uiso   1.00
C654   C     0.45770   0.04690   0.97801   0.01267  Uiso   1.00
C655   C     0.43328   0.06325   0.97073   0.01267  Uiso   1.00
C656   C     0.41057   0.08149   0.93984   0.01267  Uiso   1.00
C657   C     0.43353   0.06778   0.94626   0.01267  Uiso   1.00
C658   C     0.47788   0.96575   0.92736   0.01267  Uiso   1.00
C659   C     0.48724   0.97480   0.93637   0.01267  Uiso   1.00
C660   C     0.35050   0.92776   0.00806   0.01267  Uiso   1.00
C661   C     0.39300   0.90834   0.97696   0.01267  Uiso   1.00
C662   C     0.37631   0.91028   0.00328   0.01267  Uiso   1.00
C663   C     0.33577   0.93111   0.03250   0.01267  Uiso   1.00
C664   C     0.32862   0.17204   0.91743   0.01267  Uiso   1.00
C665   C     0.34661   0.91701   0.05253   0.01267  Uiso   1.00
C666   C     0.38669   0.89562   0.02362   0.01267  Uiso   1.00
C667   C     0.37206   0.89889   0.04787   0.01267  Uiso   1.00
O375   O     0.63876   0.82441   0.78897   0.01267  Uiso   1.00
O376   O     0.47735   0.91673   0.88117   0.01267  Uiso   1.00
O377   O     0.58630   0.84199   0.80648   0.01267  Uiso   1.00
O378   O     0.43680   0.94363   0.86630   0.01267  Uiso   1.00
O379   O     0.40227   0.88918   0.93031   0.01267  Uiso   1.00
O380   O     0.29648   0.10659   0.99374   0.01267  Uiso   1.00
O381   O     0.27054   0.15715   0.96902   0.01267  Uiso   1.00
O382   O     0.34063   0.11604   0.96610   0.01267  Uiso   1.00
O383   O     0.36353   0.10795   0.92851   0.01267  Uiso   1.00
O384   O     0.45664   0.04203   0.00073   0.01267  Uiso   1.00
O385   O     0.47857   0.03782   0.96133   0.01267  Uiso   1.00
O386   O     0.45860   0.94621   0.91074   0.01267  Uiso   1.00
O387   O     0.50396   0.99199   0.95654   0.01267  Uiso   1.00
O388   O     0.38238   0.91888   0.95984   0.01267  Uiso   1.00
O389   O     0.41736   0.97254   0.89668   0.01267  Uiso   1.00
O390   O     0.31492   0.16590   0.94145   0.01267  Uiso   1.00
O391   O     0.34586   0.09263   0.91093   0.01267  Uiso   1.00
H375   H     0.67253   0.84271   0.77378   0.01267  Uiso   1.00
H376   H     0.51485   0.90963   0.84083   0.01267  Uiso   1.00
H377   H     0.55251   0.88351   0.81471   0.01267  Uiso   1.00
H378   H     0.38423   0.92826   0.86305   0.01267  Uiso   1.00
H379   H     0.45366   0.95001   0.81764   0.01267  Uiso   1.00
H380   H     0.29936   0.07824   0.03939   0.01267  Uiso   1.00
H381   H     0.27082   0.05050   0.01158   0.01267  Uiso   1.00
H382   H     0.36801   0.09421   0.99626   0.01267  Uiso   1.00
H383   H     0.40797   0.07002   0.00759   0.01267  Uiso   1.00
H384   H     0.41181   0.08433   0.92083   0.01267  Uiso   1.00
H385   H     0.45151   0.06039   0.93203   0.01267  Uiso   1.00
H386   H     0.47439   0.97758   0.90893   0.01267  Uiso   1.00
H387   H     0.49049   0.99335   0.92451   0.01267  Uiso   1.00
H388   H     0.34198   0.93941   0.99270   0.01267  Uiso   1.00
H389   H     0.31624   0.94517   0.03548   0.01267  Uiso   1.00
H390   H     0.40637   0.88186   0.02072   0.01267  Uiso   1.00
H391   H     0.38102   0.88740   0.06289   0.01267  Uiso   1.00
Cr47   Cr    0.59230   0.96616   0.13577   0.01267  Uiso   1.00
Cr48   Cr    0.71966   0.89037   0.94344   0.01267  Uiso   1.00
C668   C     0.70277   0.78908   0.82760   0.01267  Uiso   1.00
C669   C     0.73753   0.85045   0.88898   0.01267  Uiso   1.00
C670   C     0.74597   0.83545   0.87397   0.01267  Uiso   1.00
C671   C     0.82254   0.84479   0.93321   0.01267  Uiso   1.00
C672   C     0.77511   0.86780   0.93773   0.01267  Uiso   1.00
C673   C     0.79833   0.84359   0.93911   0.01267  Uiso   1.00
C674   C     0.79696   0.81932   0.94542   0.01267  Uiso   1.00
C675   C     0.60157   0.04163   0.06406   0.01267  Uiso   1.00
C676   C     0.62499   0.99695   0.09064   0.01267  Uiso   1.00
C677   C     0.62506   0.02205   0.06782   0.01267  Uiso   1.00
C678   C     0.64857   0.02610   0.04855   0.01267  Uiso   1.00
C679   C     0.54484   0.98201   0.08703   0.01267  Uiso   1.00
C680   C     0.58169   0.95039   0.10596   0.01267  Uiso   1.00
C681   C     0.56470   0.95760   0.09130   0.01267  Uiso   1.00
C682   C     0.52917   0.98848   0.07319   0.01267  Uiso   1.00
C683   C     0.51739   0.97801   0.04690   0.01267  Uiso   1.00
C684   C     0.53274   0.97073   0.06325   0.01267  Uiso   1.00
C685   C     0.56810   0.93984   0.08149   0.01267  Uiso   1.00
C686   C     0.55243   0.94626   0.06778   0.01267  Uiso   1.00
C687   C     0.62901   0.92736   0.96575   0.01267  Uiso   1.00
C688   C     0.60159   0.93637   0.97480   0.01267  Uiso   1.00
C689   C     0.71368   0.00806   0.92776   0.01267  Uiso   1.00
C690   C     0.72170   0.97696   0.90834   0.01267  Uiso   1.00
C691   C     0.71013   0.00328   0.91028   0.01267  Uiso   1.00
C692   C     0.70062   0.03250   0.93111   0.01267  Uiso   1.00
C693   C     0.58192   0.91743   0.17204   0.01267  Uiso   1.00
C694   C     0.68385   0.05253   0.91701   0.01267  Uiso   1.00
C695   C     0.69408   0.02362   0.89562   0.01267  Uiso   1.00
C696   C     0.68119   0.04787   0.89889   0.01267  Uiso   1.00
O392   O     0.74786   0.78897   0.82441   0.01267  Uiso   1.00
O393   O     0.72475   0.88117   0.91673   0.01267  Uiso   1.00
O394   O     0.76523   0.80648   0.84199   0.01267  Uiso   1.00
O395   O     0.75327   0.86630   0.94363   0.01267  Uiso   1.00
O396   O     0.77824   0.93031   0.88918   0.01267  Uiso   1.00
O397   O     0.60319   0.99374   0.10659   0.01267  Uiso   1.00
O398   O     0.60330   0.96902   0.15715   0.01267  Uiso   1.00
O399   O     0.57723   0.96610   0.11604   0.01267  Uiso   1.00
O400   O     0.60000   0.92851   0.10795   0.01267  Uiso   1.00
O401   O     0.50060   0.00073   0.04203   0.01267  Uiso   1.00
O402   O     0.52229   0.96133   0.03782   0.01267  Uiso   1.00
O403   O     0.68444   0.91074   0.94621   0.01267  Uiso   1.00
O404   O     0.54751   0.95654   0.99199   0.01267  Uiso   1.00
O405   O     0.73889   0.95984   0.91888   0.01267  Uiso   1.00
O406   O     0.71343   0.89668   0.97254   0.01267  Uiso   1.00
O407   O     0.57773   0.94145   0.16590   0.01267  Uiso   1.00
O408   O     0.65057   0.91093   0.09263   0.01267  Uiso   1.00
H392   H     0.71098   0.77378   0.84271   0.01267  Uiso   1.00
H393   H     0.73468   0.84083   0.90963   0.01267  Uiso   1.00
H394   H     0.74927   0.81471   0.88351   0.01267  Uiso   1.00
H395   H     0.82446   0.86305   0.92826   0.01267  Uiso   1.00
H396   H     0.77869   0.81764   0.95001   0.01267  Uiso   1.00
H397   H     0.58302   0.03939   0.07824   0.01267  Uiso   1.00
H398   H     0.66710   0.01158   0.05050   0.01267  Uiso   1.00
H399   H     0.54151   0.99626   0.09421   0.01267  Uiso   1.00
H400   H     0.51443   0.00759   0.07002   0.01267  Uiso   1.00
H401   H     0.58302   0.92083   0.08433   0.01267  Uiso   1.00
H402   H     0.55606   0.93203   0.06039   0.01267  Uiso   1.00
H403   H     0.63910   0.90893   0.97758   0.01267  Uiso   1.00
H404   H     0.59165   0.92451   0.99335   0.01267  Uiso   1.00
H405   H     0.72592   0.99270   0.93941   0.01267  Uiso   1.00
H406   H     0.70310   0.03548   0.94517   0.01267  Uiso   1.00
H407   H     0.69105   0.02072   0.88186   0.01267  Uiso   1.00
H408   H     0.66869   0.06289   0.88740   0.01267  Uiso   1.00
Cr49   Cr    0.13577   0.96616   0.59230   0.01267  Uiso   1.00
Cr50   Cr    0.94344   0.89037   0.71966   0.01267  Uiso   1.00
C697   C     0.82760   0.78908   0.70277   0.01267  Uiso   1.00
C698   C     0.88898   0.85045   0.73753   0.01267  Uiso   1.00
C699   C     0.87397   0.83545   0.74597   0.01267  Uiso   1.00
C700   C     0.93321   0.84479   0.82254   0.01267  Uiso   1.00
C701   C     0.93773   0.86780   0.77511   0.01267  Uiso   1.00
C702   C     0.93911   0.84359   0.79833   0.01267  Uiso   1.00
C703   C     0.94542   0.81932   0.79696   0.01267  Uiso   1.00
C704   C     0.06406   0.04163   0.60157   0.01267  Uiso   1.00
C705   C     0.09064   0.99695   0.62499   0.01267  Uiso   1.00
C706   C     0.06782   0.02205   0.62506   0.01267  Uiso   1.00
C707   C     0.04855   0.02610   0.64857   0.01267  Uiso   1.00
C708   C     0.08703   0.98201   0.54484   0.01267  Uiso   1.00
C709   C     0.10596   0.95039   0.58169   0.01267  Uiso   1.00
C710   C     0.09130   0.95760   0.56470   0.01267  Uiso   1.00
C711   C     0.07319   0.98848   0.52917   0.01267  Uiso   1.00
C712   C     0.04690   0.97801   0.51739   0.01267  Uiso   1.00
C713   C     0.06325   0.97073   0.53274   0.01267  Uiso   1.00
C714   C     0.08149   0.93984   0.56810   0.01267  Uiso   1.00
C715   C     0.06778   0.94626   0.55243   0.01267  Uiso   1.00
C716   C     0.96575   0.92736   0.62901   0.01267  Uiso   1.00
C717   C     0.97480   0.93637   0.60159   0.01267  Uiso   1.00
C718   C     0.92776   0.00806   0.71368   0.01267  Uiso   1.00
C719   C     0.90834   0.97696   0.72170   0.01267  Uiso   1.00
C720   C     0.91028   0.00328   0.71013   0.01267  Uiso   1.00
C721   C     0.93111   0.03250   0.70062   0.01267  Uiso   1.00
C722   C     0.17204   0.91743   0.58192   0.01267  Uiso   1.00
C723   C     0.91701   0.05253   0.68385   0.01267  Uiso   1.00
C724   C     0.89562   0.02362   0.69408   0.01267  Uiso   1.00
C725   C     0.89889   0.04787   0.68119   0.01267  Uiso   1.00
O409   O     0.82441   0.78897   0.74786   0.01267  Uiso   1.00
O410   O     0.91673   0.88117   0.72475   0.01267  Uiso   1.00
O411   O     0.84199   0.80648   0.76523   0.01267  Uiso   1.00
O412   O     0.94363   0.86630   0.75327   0.01267  Uiso   1.00
O413   O     0.88918   0.93031   0.77824   0.01267  Uiso   1.00
O414   O     0.10659   0.99374   0.60319   0.01267  Uiso   1.00
O415   O     0.15715   0.96902   0.60330   0.01267  Uiso   1.00
O416   O     0.11604   0.96610   0.57723   0.01267  Uiso   1.00
O417   O     0.10795   0.92851   0.60000   0.01267  Uiso   1.00
O418   O     0.04203   0.00073   0.50060   0.01267  Uiso   1.00
O419   O     0.03782   0.96133   0.52229   0.01267  Uiso   1.00
O420   O     0.94621   0.91074   0.68444   0.01267  Uiso   1.00
O421   O     0.99199   0.95654   0.54751   0.01267  Uiso   1.00
O422   O     0.91888   0.95984   0.73889   0.01267  Uiso   1.00
O423   O     0.97254   0.89668   0.71343   0.01267  Uiso   1.00
O424   O     0.16590   0.94145   0.57773   0.01267  Uiso   1.00
O425   O     0.09263   0.91093   0.65057   0.01267  Uiso   1.00
H409   H     0.84271   0.77378   0.71098   0.01267  Uiso   1.00
H410   H     0.90963   0.84083   0.73468   0.01267  Uiso   1.00
H411   H     0.88351   0.81471   0.74927   0.01267  Uiso   1.00
H412   H     0.92826   0.86305   0.82446   0.01267  Uiso   1.00
H413   H     0.95001   0.81764   0.77869   0.01267  Uiso   1.00
H414   H     0.07824   0.03939   0.58302   0.01267  Uiso   1.00
H415   H     0.05050   0.01158   0.66710   0.01267  Uiso   1.00
H416   H     0.09421   0.99626   0.54151   0.01267  Uiso   1.00
H417   H     0.07002   0.00759   0.51443   0.01267  Uiso   1.00
H418   H     0.08433   0.92083   0.58302   0.01267  Uiso   1.00
H419   H     0.06039   0.93203   0.55606   0.01267  Uiso   1.00
H420   H     0.97758   0.90893   0.63910   0.01267  Uiso   1.00
H421   H     0.99335   0.92451   0.59165   0.01267  Uiso   1.00
H422   H     0.93941   0.99270   0.72592   0.01267  Uiso   1.00
H423   H     0.94517   0.03548   0.70310   0.01267  Uiso   1.00
H424   H     0.88186   0.02072   0.69105   0.01267  Uiso   1.00
H425   H     0.88740   0.06289   0.66869   0.01267  Uiso   1.00
Cr51   Cr    0.96616   0.13577   0.30577   0.01267  Uiso   1.00
Cr52   Cr    0.89037   0.94344   0.44652   0.01267  Uiso   1.00
C726   C     0.78908   0.82760   0.68056   0.01267  Uiso   1.00
C727   C     0.85045   0.88898   0.52304   0.01267  Uiso   1.00
C728   C     0.83545   0.87397   0.54461   0.01267  Uiso   1.00
C729   C     0.84479   0.93321   0.39946   0.01267  Uiso   1.00
C730   C     0.86780   0.93773   0.41937   0.01267  Uiso   1.00
C731   C     0.84359   0.93911   0.41896   0.01267  Uiso   1.00
C732   C     0.81932   0.94542   0.43830   0.01267  Uiso   1.00
C733   C     0.04163   0.06406   0.29274   0.01267  Uiso   1.00
C734   C     0.99695   0.09064   0.28742   0.01267  Uiso   1.00
C735   C     0.02205   0.06782   0.28506   0.01267  Uiso   1.00
C736   C     0.02610   0.04855   0.27678   0.01267  Uiso   1.00
C737   C     0.98201   0.08703   0.38611   0.01267  Uiso   1.00
C738   C     0.95039   0.10596   0.36196   0.01267  Uiso   1.00
C739   C     0.95760   0.09130   0.38640   0.01267  Uiso   1.00
C740   C     0.98848   0.07319   0.40915   0.01267  Uiso   1.00
C741   C     0.97801   0.04690   0.45770   0.01267  Uiso   1.00
C742   C     0.97073   0.06325   0.43328   0.01267  Uiso   1.00
C743   C     0.93984   0.08149   0.41057   0.01267  Uiso   1.00
C744   C     0.94626   0.06778   0.43353   0.01267  Uiso   1.00
C745   C     0.92736   0.96575   0.47788   0.01267  Uiso   1.00
C746   C     0.93637   0.97480   0.48724   0.01267  Uiso   1.00
C747   C     0.00806   0.92776   0.35050   0.01267  Uiso   1.00
C748   C     0.97696   0.90834   0.39300   0.01267  Uiso   1.00
C749   C     0.00328   0.91028   0.37631   0.01267  Uiso   1.00
C750   C     0.03250   0.93111   0.33577   0.01267  Uiso   1.00
C751   C     0.91743   0.17204   0.32862   0.01267  Uiso   1.00
C752   C     0.05253   0.91701   0.34661   0.01267  Uiso   1.00
C753   C     0.02362   0.89562   0.38669   0.01267  Uiso   1.00
C754   C     0.04787   0.89889   0.37206   0.01267  Uiso   1.00
O426   O     0.78897   0.82441   0.63876   0.01267  Uiso   1.00
O427   O     0.88117   0.91673   0.47735   0.01267  Uiso   1.00
O428   O     0.80648   0.84199   0.58630   0.01267  Uiso   1.00
O429   O     0.86630   0.94363   0.43680   0.01267  Uiso   1.00
O430   O     0.93031   0.88918   0.40227   0.01267  Uiso   1.00
O431   O     0.99374   0.10659   0.29648   0.01267  Uiso   1.00
O432   O     0.96902   0.15715   0.27054   0.01267  Uiso   1.00
O433   O     0.96610   0.11604   0.34063   0.01267  Uiso   1.00
O434   O     0.92851   0.10795   0.36353   0.01267  Uiso   1.00
O435   O     0.00073   0.04203   0.45664   0.01267  Uiso   1.00
O436   O     0.96133   0.03782   0.47857   0.01267  Uiso   1.00
O437   O     0.91074   0.94621   0.45860   0.01267  Uiso   1.00
O438   O     0.95654   0.99199   0.50396   0.01267  Uiso   1.00
O439   O     0.95984   0.91888   0.38238   0.01267  Uiso   1.00
O440   O     0.89668   0.97254   0.41736   0.01267  Uiso   1.00
O441   O     0.94145   0.16590   0.31492   0.01267  Uiso   1.00
O442   O     0.91093   0.09263   0.34586   0.01267  Uiso   1.00
H426   H     0.77378   0.84271   0.67253   0.01267  Uiso   1.00
H427   H     0.84083   0.90963   0.51485   0.01267  Uiso   1.00
H428   H     0.81471   0.88351   0.55251   0.01267  Uiso   1.00
H429   H     0.86305   0.92826   0.38423   0.01267  Uiso   1.00
H430   H     0.81764   0.95001   0.45366   0.01267  Uiso   1.00
H431   H     0.03939   0.07824   0.29936   0.01267  Uiso   1.00
H432   H     0.01158   0.05050   0.27082   0.01267  Uiso   1.00
H433   H     0.99626   0.09421   0.36801   0.01267  Uiso   1.00
H434   H     0.00759   0.07002   0.40797   0.01267  Uiso   1.00
H435   H     0.92083   0.08433   0.41181   0.01267  Uiso   1.00
H436   H     0.93203   0.06039   0.45151   0.01267  Uiso   1.00
H437   H     0.90893   0.97758   0.47439   0.01267  Uiso   1.00
H438   H     0.92451   0.99335   0.49049   0.01267  Uiso   1.00
H439   H     0.99270   0.93941   0.34198   0.01267  Uiso   1.00
H440   H     0.03548   0.94517   0.31624   0.01267  Uiso   1.00
H441   H     0.02072   0.88186   0.40637   0.01267  Uiso   1.00
H442   H     0.06289   0.88740   0.38102   0.01267  Uiso   1.00
Cr53   Cr    0.59230   0.30577   0.13577   0.01267  Uiso   1.00
Cr54   Cr    0.71966   0.44652   0.94344   0.01267  Uiso   1.00
C755   C     0.70277   0.68056   0.82760   0.01267  Uiso   1.00
C756   C     0.73753   0.52304   0.88898   0.01267  Uiso   1.00
C757   C     0.74597   0.54461   0.87397   0.01267  Uiso   1.00
C758   C     0.82254   0.39946   0.93321   0.01267  Uiso   1.00
C759   C     0.77511   0.41937   0.93773   0.01267  Uiso   1.00
C760   C     0.79833   0.41896   0.93911   0.01267  Uiso   1.00
C761   C     0.79696   0.43830   0.94542   0.01267  Uiso   1.00
C762   C     0.60157   0.29274   0.06406   0.01267  Uiso   1.00
C763   C     0.62499   0.28742   0.09064   0.01267  Uiso   1.00
C764   C     0.62506   0.28506   0.06782   0.01267  Uiso   1.00
C765   C     0.64857   0.27678   0.04855   0.01267  Uiso   1.00
C766   C     0.54484   0.38611   0.08703   0.01267  Uiso   1.00
C767   C     0.58169   0.36196   0.10596   0.01267  Uiso   1.00
C768   C     0.56470   0.38640   0.09130   0.01267  Uiso   1.00
C769   C     0.52917   0.40915   0.07319   0.01267  Uiso   1.00
C770   C     0.51739   0.45770   0.04690   0.01267  Uiso   1.00
C771   C     0.53274   0.43328   0.06325   0.01267  Uiso   1.00
C772   C     0.56810   0.41057   0.08149   0.01267  Uiso   1.00
C773   C     0.55243   0.43353   0.06778   0.01267  Uiso   1.00
C774   C     0.62901   0.47788   0.96575   0.01267  Uiso   1.00
C775   C     0.60159   0.48724   0.97480   0.01267  Uiso   1.00
C776   C     0.71368   0.35050   0.92776   0.01267  Uiso   1.00
C777   C     0.72170   0.39300   0.90834   0.01267  Uiso   1.00
C778   C     0.71013   0.37631   0.91028   0.01267  Uiso   1.00
C779   C     0.70062   0.33577   0.93111   0.01267  Uiso   1.00
C780   C     0.58192   0.32862   0.17204   0.01267  Uiso   1.00
C781   C     0.68385   0.34661   0.91701   0.01267  Uiso   1.00
C782   C     0.69408   0.38669   0.89562   0.01267  Uiso   1.00
C783   C     0.68119   0.37206   0.89889   0.01267  Uiso   1.00
O443   O     0.74786   0.63876   0.82441   0.01267  Uiso   1.00
O444   O     0.72475   0.47735   0.91673   0.01267  Uiso   1.00
O445   O     0.76523   0.58630   0.84199   0.01267  Uiso   1.00
O446   O     0.75327   0.43680   0.94363   0.01267  Uiso   1.00
O447   O     0.77824   0.40227   0.88918   0.01267  Uiso   1.00
O448   O     0.60319   0.29648   0.10659   0.01267  Uiso   1.00
O449   O     0.60330   0.27054   0.15715   0.01267  Uiso   1.00
O450   O     0.57723   0.34063   0.11604   0.01267  Uiso   1.00
O451   O     0.60000   0.36353   0.10795   0.01267  Uiso   1.00
O452   O     0.50060   0.45664   0.04203   0.01267  Uiso   1.00
O453   O     0.52229   0.47857   0.03782   0.01267  Uiso   1.00
O454   O     0.68444   0.45860   0.94621   0.01267  Uiso   1.00
O455   O     0.54751   0.50396   0.99199   0.01267  Uiso   1.00
O456   O     0.73889   0.38238   0.91888   0.01267  Uiso   1.00
O457   O     0.71343   0.41736   0.97254   0.01267  Uiso   1.00
O458   O     0.57773   0.31492   0.16590   0.01267  Uiso   1.00
O459   O     0.65057   0.34586   0.09263   0.01267  Uiso   1.00
H443   H     0.71098   0.67253   0.84271   0.01267  Uiso   1.00
H444   H     0.73468   0.51485   0.90963   0.01267  Uiso   1.00
H445   H     0.74927   0.55251   0.88351   0.01267  Uiso   1.00
H446   H     0.82446   0.38423   0.92826   0.01267  Uiso   1.00
H447   H     0.77869   0.45366   0.95001   0.01267  Uiso   1.00
H448   H     0.58302   0.29936   0.07824   0.01267  Uiso   1.00
H449   H     0.66710   0.27082   0.05050   0.01267  Uiso   1.00
H450   H     0.54151   0.36801   0.09421   0.01267  Uiso   1.00
H451   H     0.51443   0.40797   0.07002   0.01267  Uiso   1.00
H452   H     0.58302   0.41181   0.08433   0.01267  Uiso   1.00
H453   H     0.55606   0.45151   0.06039   0.01267  Uiso   1.00
H454   H     0.63910   0.47439   0.97758   0.01267  Uiso   1.00
H455   H     0.59165   0.49049   0.99335   0.01267  Uiso   1.00
H456   H     0.72592   0.34198   0.93941   0.01267  Uiso   1.00
H457   H     0.70310   0.31624   0.94517   0.01267  Uiso   1.00
H458   H     0.69105   0.40637   0.88186   0.01267  Uiso   1.00
H459   H     0.66869   0.38102   0.88740   0.01267  Uiso   1.00
Cr55   Cr    0.30577   0.59230   0.96616   0.01267  Uiso   1.00
Cr56   Cr    0.44652   0.71966   0.89037   0.01267  Uiso   1.00
C784   C     0.68056   0.70277   0.78908   0.01267  Uiso   1.00
C785   C     0.52304   0.73753   0.85045   0.01267  Uiso   1.00
C786   C     0.54461   0.74597   0.83545   0.01267  Uiso   1.00
C787   C     0.39946   0.82254   0.84479   0.01267  Uiso   1.00
C788   C     0.41937   0.77511   0.86780   0.01267  Uiso   1.00
C789   C     0.41896   0.79833   0.84359   0.01267  Uiso   1.00
C790   C     0.43830   0.79696   0.81932   0.01267  Uiso   1.00
C791   C     0.29274   0.60157   0.04163   0.01267  Uiso   1.00
C792   C     0.28742   0.62499   0.99695   0.01267  Uiso   1.00
C793   C     0.28506   0.62506   0.02205   0.01267  Uiso   1.00
C794   C     0.27678   0.64857   0.02610   0.01267  Uiso   1.00
C795   C     0.38611   0.54484   0.98201   0.01267  Uiso   1.00
C796   C     0.36196   0.58169   0.95039   0.01267  Uiso   1.00
C797   C     0.38640   0.56470   0.95760   0.01267  Uiso   1.00
C798   C     0.40915   0.52917   0.98848   0.01267  Uiso   1.00
C799   C     0.45770   0.51739   0.97801   0.01267  Uiso   1.00
C800   C     0.43328   0.53274   0.97073   0.01267  Uiso   1.00
C801   C     0.41057   0.56810   0.93984   0.01267  Uiso   1.00
C802   C     0.43353   0.55243   0.94626   0.01267  Uiso   1.00
C803   C     0.47788   0.62901   0.92736   0.01267  Uiso   1.00
C804   C     0.48724   0.60159   0.93637   0.01267  Uiso   1.00
C805   C     0.35050   0.71368   0.00806   0.01267  Uiso   1.00
C806   C     0.39300   0.72170   0.97696   0.01267  Uiso   1.00
C807   C     0.37631   0.71013   0.00328   0.01267  Uiso   1.00
C808   C     0.33577   0.70062   0.03250   0.01267  Uiso   1.00
C809   C     0.32862   0.58192   0.91743   0.01267  Uiso   1.00
C810   C     0.34661   0.68385   0.05253   0.01267  Uiso   1.00
C811   C     0.38669   0.69408   0.02362   0.01267  Uiso   1.00
C812   C     0.37206   0.68119   0.04787   0.01267  Uiso   1.00
O460   O     0.63876   0.74786   0.78897   0.01267  Uiso   1.00
O461   O     0.47735   0.72475   0.88117   0.01267  Uiso   1.00
O462   O     0.58630   0.76523   0.80648   0.01267  Uiso   1.00
O463   O     0.43680   0.75327   0.86630   0.01267  Uiso   1.00
O464   O     0.40227   0.77824   0.93031   0.01267  Uiso   1.00
O465   O     0.29648   0.60319   0.99374   0.01267  Uiso   1.00
O466   O     0.27054   0.60330   0.96902   0.01267  Uiso   1.00
O467   O     0.34063   0.57723   0.96610   0.01267  Uiso   1.00
O468   O     0.36353   0.60000   0.92851   0.01267  Uiso   1.00
O469   O     0.45664   0.50060   0.00073   0.01267  Uiso   1.00
O470   O     0.47857   0.52229   0.96133   0.01267  Uiso   1.00
O471   O     0.45860   0.68444   0.91074   0.01267  Uiso   1.00
O472   O     0.50396   0.54751   0.95654   0.01267  Uiso   1.00
O473   O     0.38238   0.73889   0.95984   0.01267  Uiso   1.00
O474   O     0.41736   0.71343   0.89668   0.01267  Uiso   1.00
O475   O     0.31492   0.57773   0.94145   0.01267  Uiso   1.00
O476   O     0.34586   0.65057   0.91093   0.01267  Uiso   1.00
H460   H     0.67253   0.71098   0.77378   0.01267  Uiso   1.00
H461   H     0.51485   0.73468   0.84083   0.01267  Uiso   1.00
H462   H     0.55251   0.74927   0.81471   0.01267  Uiso   1.00
H463   H     0.38423   0.82446   0.86305   0.01267  Uiso   1.00
H464   H     0.45366   0.77869   0.81764   0.01267  Uiso   1.00
H465   H     0.29936   0.58302   0.03939   0.01267  Uiso   1.00
H466   H     0.27082   0.66710   0.01158   0.01267  Uiso   1.00
H467   H     0.36801   0.54151   0.99626   0.01267  Uiso   1.00
H468   H     0.40797   0.51443   0.00759   0.01267  Uiso   1.00
H469   H     0.41181   0.58302   0.92083   0.01267  Uiso   1.00
H470   H     0.45151   0.55606   0.93203   0.01267  Uiso   1.00
H471   H     0.47439   0.63910   0.90893   0.01267  Uiso   1.00
H472   H     0.49049   0.59165   0.92451   0.01267  Uiso   1.00
H473   H     0.34198   0.72592   0.99270   0.01267  Uiso   1.00
H474   H     0.31624   0.70310   0.03548   0.01267  Uiso   1.00
H475   H     0.40637   0.69105   0.02072   0.01267  Uiso   1.00
H476   H     0.38102   0.66869   0.06289   0.01267  Uiso   1.00
Cr57   Cr    0.59230   0.13577   0.96616   0.01267  Uiso   1.00
Cr58   Cr    0.71966   0.94344   0.89037   0.01267  Uiso   1.00
C813   C     0.70277   0.82760   0.78908   0.01267  Uiso   1.00
C814   C     0.73753   0.88898   0.85045   0.01267  Uiso   1.00
C815   C     0.74597   0.87397   0.83545   0.01267  Uiso   1.00
C816   C     0.82254   0.93321   0.84479   0.01267  Uiso   1.00
C817   C     0.77511   0.93773   0.86780   0.01267  Uiso   1.00
C818   C     0.79833   0.93911   0.84359   0.01267  Uiso   1.00
C819   C     0.79696   0.94542   0.81932   0.01267  Uiso   1.00
C820   C     0.60157   0.06406   0.04163   0.01267  Uiso   1.00
C821   C     0.62499   0.09064   0.99695   0.01267  Uiso   1.00
C822   C     0.62506   0.06782   0.02205   0.01267  Uiso   1.00
C823   C     0.64857   0.04855   0.02610   0.01267  Uiso   1.00
C824   C     0.54484   0.08703   0.98201   0.01267  Uiso   1.00
C825   C     0.58169   0.10596   0.95039   0.01267  Uiso   1.00
C826   C     0.56470   0.09130   0.95760   0.01267  Uiso   1.00
C827   C     0.52917   0.07319   0.98848   0.01267  Uiso   1.00
C828   C     0.51739   0.04690   0.97801   0.01267  Uiso   1.00
C829   C     0.53274   0.06325   0.97073   0.01267  Uiso   1.00
C830   C     0.56810   0.08149   0.93984   0.01267  Uiso   1.00
C831   C     0.55243   0.06778   0.94626   0.01267  Uiso   1.00
C832   C     0.62901   0.96575   0.92736   0.01267  Uiso   1.00
C833   C     0.60159   0.97480   0.93637   0.01267  Uiso   1.00
C834   C     0.71368   0.92776   0.00806   0.01267  Uiso   1.00
C835   C     0.72170   0.90834   0.97696   0.01267  Uiso   1.00
C836   C     0.71013   0.91028   0.00328   0.01267  Uiso   1.00
C837   C     0.70062   0.93111   0.03250   0.01267  Uiso   1.00
C838   C     0.58192   0.17204   0.91743   0.01267  Uiso   1.00
C839   C     0.68385   0.91701   0.05253   0.01267  Uiso   1.00
C840   C     0.69408   0.89562   0.02362   0.01267  Uiso   1.00
C841   C     0.68119   0.89889   0.04787   0.01267  Uiso   1.00
O477   O     0.74786   0.82441   0.78897   0.01267  Uiso   1.00
O478   O     0.72475   0.91673   0.88117   0.01267  Uiso   1.00
O479   O     0.76523   0.84199   0.80648   0.01267  Uiso   1.00
O480   O     0.75327   0.94363   0.86630   0.01267  Uiso   1.00
O481   O     0.77824   0.88918   0.93031   0.01267  Uiso   1.00
O482   O     0.60319   0.10659   0.99374   0.01267  Uiso   1.00
O483   O     0.60330   0.15715   0.96902   0.01267  Uiso   1.00
O484   O     0.57723   0.11604   0.96610   0.01267  Uiso   1.00
O485   O     0.60000   0.10795   0.92851   0.01267  Uiso   1.00
O486   O     0.50060   0.04203   0.00073   0.01267  Uiso   1.00
O487   O     0.52229   0.03782   0.96133   0.01267  Uiso   1.00
O488   O     0.68444   0.94621   0.91074   0.01267  Uiso   1.00
O489   O     0.54751   0.99199   0.95654   0.01267  Uiso   1.00
O490   O     0.73889   0.91888   0.95984   0.01267  Uiso   1.00
O491   O     0.71343   0.97254   0.89668   0.01267  Uiso   1.00
O492   O     0.57773   0.16590   0.94145   0.01267  Uiso   1.00
O493   O     0.65057   0.09263   0.91093   0.01267  Uiso   1.00
H477   H     0.71098   0.84271   0.77378   0.01267  Uiso   1.00
H478   H     0.73468   0.90963   0.84083   0.01267  Uiso   1.00
H479   H     0.74927   0.88351   0.81471   0.01267  Uiso   1.00
H480   H     0.82446   0.92826   0.86305   0.01267  Uiso   1.00
H481   H     0.77869   0.95001   0.81764   0.01267  Uiso   1.00
H482   H     0.58302   0.07824   0.03939   0.01267  Uiso   1.00
H483   H     0.66710   0.05050   0.01158   0.01267  Uiso   1.00
H484   H     0.54151   0.09421   0.99626   0.01267  Uiso   1.00
H485   H     0.51443   0.07002   0.00759   0.01267  Uiso   1.00
H486   H     0.58302   0.08433   0.92083   0.01267  Uiso   1.00
H487   H     0.55606   0.06039   0.93203   0.01267  Uiso   1.00
H488   H     0.63910   0.97758   0.90893   0.01267  Uiso   1.00
H489   H     0.59165   0.99335   0.92451   0.01267  Uiso   1.00
H490   H     0.72592   0.93941   0.99270   0.01267  Uiso   1.00
H491   H     0.70310   0.94517   0.03548   0.01267  Uiso   1.00
H492   H     0.69105   0.88186   0.02072   0.01267  Uiso   1.00
H493   H     0.66869   0.88740   0.06289   0.01267  Uiso   1.00
Cr59   Cr    0.30577   0.96616   0.13577   0.01267  Uiso   1.00
Cr60   Cr    0.44652   0.89037   0.94344   0.01267  Uiso   1.00
C842   C     0.68056   0.78908   0.82760   0.01267  Uiso   1.00
C843   C     0.52304   0.85045   0.88898   0.01267  Uiso   1.00
C844   C     0.54461   0.83545   0.87397   0.01267  Uiso   1.00
C845   C     0.39946   0.84479   0.93321   0.01267  Uiso   1.00
C846   C     0.41937   0.86780   0.93773   0.01267  Uiso   1.00
C847   C     0.41896   0.84359   0.93911   0.01267  Uiso   1.00
C848   C     0.43830   0.81932   0.94542   0.01267  Uiso   1.00
C849   C     0.29274   0.04163   0.06406   0.01267  Uiso   1.00
C850   C     0.28742   0.99695   0.09064   0.01267  Uiso   1.00
C851   C     0.28506   0.02205   0.06782   0.01267  Uiso   1.00
C852   C     0.27678   0.02610   0.04855   0.01267  Uiso   1.00
C853   C     0.38611   0.98201   0.08703   0.01267  Uiso   1.00
C854   C     0.36196   0.95039   0.10596   0.01267  Uiso   1.00
C855   C     0.38640   0.95760   0.09130   0.01267  Uiso   1.00
C856   C     0.40915   0.98848   0.07319   0.01267  Uiso   1.00
C857   C     0.45770   0.97801   0.04690   0.01267  Uiso   1.00
C858   C     0.43328   0.97073   0.06325   0.01267  Uiso   1.00
C859   C     0.41057   0.93984   0.08149   0.01267  Uiso   1.00
C860   C     0.43353   0.94626   0.06778   0.01267  Uiso   1.00
C861   C     0.47788   0.92736   0.96575   0.01267  Uiso   1.00
C862   C     0.48724   0.93637   0.97480   0.01267  Uiso   1.00
C863   C     0.35050   0.00806   0.92776   0.01267  Uiso   1.00
C864   C     0.39300   0.97696   0.90834   0.01267  Uiso   1.00
C865   C     0.37631   0.00328   0.91028   0.01267  Uiso   1.00
C866   C     0.33577   0.03250   0.93111   0.01267  Uiso   1.00
C867   C     0.32862   0.91743   0.17204   0.01267  Uiso   1.00
C868   C     0.34661   0.05253   0.91701   0.01267  Uiso   1.00
C869   C     0.38669   0.02362   0.89562   0.01267  Uiso   1.00
C870   C     0.37206   0.04787   0.89889   0.01267  Uiso   1.00
O494   O     0.63876   0.78897   0.82441   0.01267  Uiso   1.00
O495   O     0.47735   0.88117   0.91673   0.01267  Uiso   1.00
O496   O     0.58630   0.80648   0.84199   0.01267  Uiso   1.00
O497   O     0.43680   0.86630   0.94363   0.01267  Uiso   1.00
O498   O     0.40227   0.93031   0.88918   0.01267  Uiso   1.00
O499   O     0.29648   0.99374   0.10659   0.01267  Uiso   1.00
O500   O     0.27054   0.96902   0.15715   0.01267  Uiso   1.00
O501   O     0.34063   0.96610   0.11604   0.01267  Uiso   1.00
O502   O     0.36353   0.92851   0.10795   0.01267  Uiso   1.00
O503   O     0.45664   0.00073   0.04203   0.01267  Uiso   1.00
O504   O     0.47857   0.96133   0.03782   0.01267  Uiso   1.00
O505   O     0.45860   0.91074   0.94621   0.01267  Uiso   1.00
O506   O     0.50396   0.95654   0.99199   0.01267  Uiso   1.00
O507   O     0.38238   0.95984   0.91888   0.01267  Uiso   1.00
O508   O     0.41736   0.89668   0.97254   0.01267  Uiso   1.00
O509   O     0.31492   0.94145   0.16590   0.01267  Uiso   1.00
O510   O     0.34586   0.91093   0.09263   0.01267  Uiso   1.00
H494   H     0.67253   0.77378   0.84271   0.01267  Uiso   1.00
H495   H     0.51485   0.84083   0.90963   0.01267  Uiso   1.00
H496   H     0.55251   0.81471   0.88351   0.01267  Uiso   1.00
H497   H     0.38423   0.86305   0.92826   0.01267  Uiso   1.00
H498   H     0.45366   0.81764   0.95001   0.01267  Uiso   1.00
H499   H     0.29936   0.03939   0.07824   0.01267  Uiso   1.00
H500   H     0.27082   0.01158   0.05050   0.01267  Uiso   1.00
H501   H     0.36801   0.99626   0.09421   0.01267  Uiso   1.00
H502   H     0.40797   0.00759   0.07002   0.01267  Uiso   1.00
H503   H     0.41181   0.92083   0.08433   0.01267  Uiso   1.00
H504   H     0.45151   0.93203   0.06039   0.01267  Uiso   1.00
H505   H     0.47439   0.90893   0.97758   0.01267  Uiso   1.00
H506   H     0.49049   0.92451   0.99335   0.01267  Uiso   1.00
H507   H     0.34198   0.99270   0.93941   0.01267  Uiso   1.00
H508   H     0.31624   0.03548   0.94517   0.01267  Uiso   1.00
H509   H     0.40637   0.02072   0.88186   0.01267  Uiso   1.00
H510   H     0.38102   0.06289   0.88740   0.01267  Uiso   1.00
Cr61   Cr    0.13577   0.59230   0.30577   0.01267  Uiso   1.00
Cr62   Cr    0.94344   0.71966   0.44652   0.01267  Uiso   1.00
C871   C     0.82760   0.70277   0.68056   0.01267  Uiso   1.00
C872   C     0.88898   0.73753   0.52304   0.01267  Uiso   1.00
C873   C     0.87397   0.74597   0.54461   0.01267  Uiso   1.00
C874   C     0.93321   0.82254   0.39946   0.01267  Uiso   1.00
C875   C     0.93773   0.77511   0.41937   0.01267  Uiso   1.00
C876   C     0.93911   0.79833   0.41896   0.01267  Uiso   1.00
C877   C     0.94542   0.79696   0.43830   0.01267  Uiso   1.00
C878   C     0.06406   0.60157   0.29274   0.01267  Uiso   1.00
C879   C     0.09064   0.62499   0.28742   0.01267  Uiso   1.00
C880   C     0.06782   0.62506   0.28506   0.01267  Uiso   1.00
C881   C     0.04855   0.64857   0.27678   0.01267  Uiso   1.00
C882   C     0.08703   0.54484   0.38611   0.01267  Uiso   1.00
C883   C     0.10596   0.58169   0.36196   0.01267  Uiso   1.00
C884   C     0.09130   0.56470   0.38640   0.01267  Uiso   1.00
C885   C     0.07319   0.52917   0.40915   0.01267  Uiso   1.00
C886   C     0.04690   0.51739   0.45770   0.01267  Uiso   1.00
C887   C     0.06325   0.53274   0.43328   0.01267  Uiso   1.00
C888   C     0.08149   0.56810   0.41057   0.01267  Uiso   1.00
C889   C     0.06778   0.55243   0.43353   0.01267  Uiso   1.00
C890   C     0.96575   0.62901   0.47788   0.01267  Uiso   1.00
C891   C     0.97480   0.60159   0.48724   0.01267  Uiso   1.00
C892   C     0.92776   0.71368   0.35050   0.01267  Uiso   1.00
C893   C     0.90834   0.72170   0.39300   0.01267  Uiso   1.00
C894   C     0.91028   0.71013   0.37631   0.01267  Uiso   1.00
C895   C     0.93111   0.70062   0.33577   0.01267  Uiso   1.00
C896   C     0.17204   0.58192   0.32862   0.01267  Uiso   1.00
C897   C     0.91701   0.68385   0.34661   0.01267  Uiso   1.00
C898   C     0.89562   0.69408   0.38669   0.01267  Uiso   1.00
C899   C     0.89889   0.68119   0.37206   0.01267  Uiso   1.00
O511   O     0.82441   0.74786   0.63876   0.01267  Uiso   1.00
O512   O     0.91673   0.72475   0.47735   0.01267  Uiso   1.00
O513   O     0.84199   0.76523   0.58630   0.01267  Uiso   1.00
O514   O     0.94363   0.75327   0.43680   0.01267  Uiso   1.00
O515   O     0.88918   0.77824   0.40227   0.01267  Uiso   1.00
O516   O     0.10659   0.60319   0.29648   0.01267  Uiso   1.00
O517   O     0.15715   0.60330   0.27054   0.01267  Uiso   1.00
O518   O     0.11604   0.57723   0.34063   0.01267  Uiso   1.00
O519   O     0.10795   0.60000   0.36353   0.01267  Uiso   1.00
O520   O     0.04203   0.50060   0.45664   0.01267  Uiso   1.00
O521   O     0.03782   0.52229   0.47857   0.01267  Uiso   1.00
O522   O     0.94621   0.68444   0.45860   0.01267  Uiso   1.00
O523   O     0.99199   0.54751   0.50396   0.01267  Uiso   1.00
O524   O     0.91888   0.73889   0.38238   0.01267  Uiso   1.00
O525   O     0.97254   0.71343   0.41736   0.01267  Uiso   1.00
O526   O     0.16590   0.57773   0.31492   0.01267  Uiso   1.00
O527   O     0.09263   0.65057   0.34586   0.01267  Uiso   1.00
H511   H     0.84271   0.71098   0.67253   0.01267  Uiso   1.00
H512   H     0.90963   0.73468   0.51485   0.01267  Uiso   1.00
H513   H     0.88351   0.74927   0.55251   0.01267  Uiso   1.00
H514   H     0.92826   0.82446   0.38423   0.01267  Uiso   1.00
H515   H     0.95001   0.77869   0.45366   0.01267  Uiso   1.00
H516   H     0.07824   0.58302   0.29936   0.01267  Uiso   1.00
H517   H     0.05050   0.66710   0.27082   0.01267  Uiso   1.00
H518   H     0.09421   0.54151   0.36801   0.01267  Uiso   1.00
H519   H     0.07002   0.51443   0.40797   0.01267  Uiso   1.00
H520   H     0.08433   0.58302   0.41181   0.01267  Uiso   1.00
H521   H     0.06039   0.55606   0.45151   0.01267  Uiso   1.00
H522   H     0.97758   0.63910   0.47439   0.01267  Uiso   1.00
H523   H     0.99335   0.59165   0.49049   0.01267  Uiso   1.00
H524   H     0.93941   0.72592   0.34198   0.01267  Uiso   1.00
H525   H     0.94517   0.70310   0.31624   0.01267  Uiso   1.00
H526   H     0.88186   0.69105   0.40637   0.01267  Uiso   1.00
H527   H     0.88740   0.66869   0.38102   0.01267  Uiso   1.00
Cr63   Cr    0.96616   0.30577   0.59230   0.01267  Uiso   1.00
Cr64   Cr    0.89037   0.44652   0.71966   0.01267  Uiso   1.00
C900   C     0.78908   0.68056   0.70277   0.01267  Uiso   1.00
C901   C     0.85045   0.52304   0.73753   0.01267  Uiso   1.00
C902   C     0.83545   0.54461   0.74597   0.01267  Uiso   1.00
C903   C     0.84479   0.39946   0.82254   0.01267  Uiso   1.00
C904   C     0.86780   0.41937   0.77511   0.01267  Uiso   1.00
C905   C     0.84359   0.41896   0.79833   0.01267  Uiso   1.00
C906   C     0.81932   0.43830   0.79696   0.01267  Uiso   1.00
C907   C     0.04163   0.29274   0.60157   0.01267  Uiso   1.00
C908   C     0.99695   0.28742   0.62499   0.01267  Uiso   1.00
C909   C     0.02205   0.28506   0.62506   0.01267  Uiso   1.00
C910   C     0.02610   0.27678   0.64857   0.01267  Uiso   1.00
C911   C     0.98201   0.38611   0.54484   0.01267  Uiso   1.00
C912   C     0.95039   0.36196   0.58169   0.01267  Uiso   1.00
C913   C     0.95760   0.38640   0.56470   0.01267  Uiso   1.00
C914   C     0.98848   0.40915   0.52917   0.01267  Uiso   1.00
C915   C     0.97801   0.45770   0.51739   0.01267  Uiso   1.00
C916   C     0.97073   0.43328   0.53274   0.01267  Uiso   1.00
C917   C     0.93984   0.41057   0.56810   0.01267  Uiso   1.00
C918   C     0.94626   0.43353   0.55243   0.01267  Uiso   1.00
C919   C     0.92736   0.47788   0.62901   0.01267  Uiso   1.00
C920   C     0.93637   0.48724   0.60159   0.01267  Uiso   1.00
C921   C     0.00806   0.35050   0.71368   0.01267  Uiso   1.00
C922   C     0.97696   0.39300   0.72170   0.01267  Uiso   1.00
C923   C     0.00328   0.37631   0.71013   0.01267  Uiso   1.00
C924   C     0.03250   0.33577   0.70062   0.01267  Uiso   1.00
C925   C     0.91743   0.32862   0.58192   0.01267  Uiso   1.00
C926   C     0.05253   0.34661   0.68385   0.01267  Uiso   1.00
C927   C     0.02362   0.38669   0.69408   0.01267  Uiso   1.00
C928   C     0.04787   0.37206   0.68119   0.01267  Uiso   1.00
O528   O     0.78897   0.63876   0.74786   0.01267  Uiso   1.00
O529   O     0.88117   0.47735   0.72475   0.01267  Uiso   1.00
O530   O     0.80648   0.58630   0.76523   0.01267  Uiso   1.00
O531   O     0.86630   0.43680   0.75327   0.01267  Uiso   1.00
O532   O     0.93031   0.40227   0.77824   0.01267  Uiso   1.00
O533   O     0.99374   0.29648   0.60319   0.01267  Uiso   1.00
O534   O     0.96902   0.27054   0.60330   0.01267  Uiso   1.00
O535   O     0.96610   0.34063   0.57723   0.01267  Uiso   1.00
O536   O     0.92851   0.36353   0.60000   0.01267  Uiso   1.00
O537   O     0.00073   0.45664   0.50060   0.01267  Uiso   1.00
O538   O     0.96133   0.47857   0.52229   0.01267  Uiso   1.00
O539   O     0.91074   0.45860   0.68444   0.01267  Uiso   1.00
O540   O     0.95654   0.50396   0.54751   0.01267  Uiso   1.00
O541   O     0.95984   0.38238   0.73889   0.01267  Uiso   1.00
O542   O     0.89668   0.41736   0.71343   0.01267  Uiso   1.00
O543   O     0.94145   0.31492   0.57773   0.01267  Uiso   1.00
O544   O     0.91093   0.34586   0.65057   0.01267  Uiso   1.00
H528   H     0.77378   0.67253   0.71098   0.01267  Uiso   1.00
H529   H     0.84083   0.51485   0.73468   0.01267  Uiso   1.00
H530   H     0.81471   0.55251   0.74927   0.01267  Uiso   1.00
H531   H     0.86305   0.38423   0.82446   0.01267  Uiso   1.00
H532   H     0.81764   0.45366   0.77869   0.01267  Uiso   1.00
H533   H     0.03939   0.29936   0.58302   0.01267  Uiso   1.00
H534   H     0.01158   0.27082   0.66710   0.01267  Uiso   1.00
H535   H     0.99626   0.36801   0.54151   0.01267  Uiso   1.00
H536   H     0.00759   0.40797   0.51443   0.01267  Uiso   1.00
H537   H     0.92083   0.41181   0.58302   0.01267  Uiso   1.00
H538   H     0.93203   0.45151   0.55606   0.01267  Uiso   1.00
H539   H     0.90893   0.47439   0.63910   0.01267  Uiso   1.00
H540   H     0.92451   0.49049   0.59165   0.01267  Uiso   1.00
H541   H     0.99270   0.34198   0.72592   0.01267  Uiso   1.00
H542   H     0.03548   0.31624   0.70310   0.01267  Uiso   1.00
H543   H     0.02072   0.40637   0.69105   0.01267  Uiso   1.00
H544   H     0.06289   0.38102   0.66869   0.01267  Uiso   1.00
Cr65   Cr    0.96616   0.59230   0.13577   0.01267  Uiso   1.00
Cr66   Cr    0.89037   0.71966   0.94344   0.01267  Uiso   1.00
C929   C     0.78908   0.70277   0.82760   0.01267  Uiso   1.00
C930   C     0.85045   0.73753   0.88898   0.01267  Uiso   1.00
C931   C     0.83545   0.74597   0.87397   0.01267  Uiso   1.00
C932   C     0.84479   0.82254   0.93321   0.01267  Uiso   1.00
C933   C     0.86780   0.77511   0.93773   0.01267  Uiso   1.00
C934   C     0.84359   0.79833   0.93911   0.01267  Uiso   1.00
C935   C     0.81932   0.79696   0.94542   0.01267  Uiso   1.00
C936   C     0.04163   0.60157   0.06406   0.01267  Uiso   1.00
C937   C     0.99695   0.62499   0.09064   0.01267  Uiso   1.00
C938   C     0.02205   0.62506   0.06782   0.01267  Uiso   1.00
C939   C     0.02610   0.64857   0.04855   0.01267  Uiso   1.00
C940   C     0.98201   0.54484   0.08703   0.01267  Uiso   1.00
C941   C     0.95039   0.58169   0.10596   0.01267  Uiso   1.00
C942   C     0.95760   0.56470   0.09130   0.01267  Uiso   1.00
C943   C     0.98848   0.52917   0.07319   0.01267  Uiso   1.00
C944   C     0.97801   0.51739   0.04690   0.01267  Uiso   1.00
C945   C     0.97073   0.53274   0.06325   0.01267  Uiso   1.00
C946   C     0.93984   0.56810   0.08149   0.01267  Uiso   1.00
C947   C     0.94626   0.55243   0.06778   0.01267  Uiso   1.00
C948   C     0.92736   0.62901   0.96575   0.01267  Uiso   1.00
C949   C     0.93637   0.60159   0.97480   0.01267  Uiso   1.00
C950   C     0.00806   0.71368   0.92776   0.01267  Uiso   1.00
C951   C     0.97696   0.72170   0.90834   0.01267  Uiso   1.00
C952   C     0.00328   0.71013   0.91028   0.01267  Uiso   1.00
C953   C     0.03250   0.70062   0.93111   0.01267  Uiso   1.00
C954   C     0.91743   0.58192   0.17204   0.01267  Uiso   1.00
C955   C     0.05253   0.68385   0.91701   0.01267  Uiso   1.00
C956   C     0.02362   0.69408   0.89562   0.01267  Uiso   1.00
C957   C     0.04787   0.68119   0.89889   0.01267  Uiso   1.00
O545   O     0.78897   0.74786   0.82441   0.01267  Uiso   1.00
O546   O     0.88117   0.72475   0.91673   0.01267  Uiso   1.00
O547   O     0.80648   0.76523   0.84199   0.01267  Uiso   1.00
O548   O     0.86630   0.75327   0.94363   0.01267  Uiso   1.00
O549   O     0.93031   0.77824   0.88918   0.01267  Uiso   1.00
O550   O     0.99374   0.60319   0.10659   0.01267  Uiso   1.00
O551   O     0.96902   0.60330   0.15715   0.01267  Uiso   1.00
O552   O     0.96610   0.57723   0.11604   0.01267  Uiso   1.00
O553   O     0.92851   0.60000   0.10795   0.01267  Uiso   1.00
O554   O     0.00073   0.50060   0.04203   0.01267  Uiso   1.00
O555   O     0.96133   0.52229   0.03782   0.01267  Uiso   1.00
O556   O     0.91074   0.68444   0.94621   0.01267  Uiso   1.00
O557   O     0.95654   0.54751   0.99199   0.01267  Uiso   1.00
O558   O     0.95984   0.73889   0.91888   0.01267  Uiso   1.00
O559   O     0.89668   0.71343   0.97254   0.01267  Uiso   1.00
O560   O     0.94145   0.57773   0.16590   0.01267  Uiso   1.00
O561   O     0.91093   0.65057   0.09263   0.01267  Uiso   1.00
H545   H     0.77378   0.71098   0.84271   0.01267  Uiso   1.00
H546   H     0.84083   0.73468   0.90963   0.01267  Uiso   1.00
H547   H     0.81471   0.74927   0.88351   0.01267  Uiso   1.00
H548   H     0.86305   0.82446   0.92826   0.01267  Uiso   1.00
H549   H     0.81764   0.77869   0.95001   0.01267  Uiso   1.00
H550   H     0.03939   0.58302   0.07824   0.01267  Uiso   1.00
H551   H     0.01158   0.66710   0.05050   0.01267  Uiso   1.00
H552   H     0.99626   0.54151   0.09421   0.01267  Uiso   1.00
H553   H     0.00759   0.51443   0.07002   0.01267  Uiso   1.00
H554   H     0.92083   0.58302   0.08433   0.01267  Uiso   1.00
H555   H     0.93203   0.55606   0.06039   0.01267  Uiso   1.00
H556   H     0.90893   0.63910   0.97758   0.01267  Uiso   1.00
H557   H     0.92451   0.59165   0.99335   0.01267  Uiso   1.00
H558   H     0.99270   0.72592   0.93941   0.01267  Uiso   1.00
H559   H     0.03548   0.70310   0.94517   0.01267  Uiso   1.00
H560   H     0.02072   0.69105   0.88186   0.01267  Uiso   1.00
H561   H     0.06289   0.66869   0.88740   0.01267  Uiso   1.00
Cr67   Cr    0.13577   0.30577   0.96616   0.01267  Uiso   1.00
Cr68   Cr    0.94344   0.44652   0.89037   0.01267  Uiso   1.00
C958   C     0.82760   0.68056   0.78908   0.01267  Uiso   1.00
C959   C     0.88898   0.52304   0.85045   0.01267  Uiso   1.00
C960   C     0.87397   0.54461   0.83545   0.01267  Uiso   1.00
C961   C     0.93321   0.39946   0.84479   0.01267  Uiso   1.00
C962   C     0.93773   0.41937   0.86780   0.01267  Uiso   1.00
C963   C     0.93911   0.41896   0.84359   0.01267  Uiso   1.00
C964   C     0.94542   0.43830   0.81932   0.01267  Uiso   1.00
C965   C     0.06406   0.29274   0.04163   0.01267  Uiso   1.00
C966   C     0.09064   0.28742   0.99695   0.01267  Uiso   1.00
C967   C     0.06782   0.28506   0.02205   0.01267  Uiso   1.00
C968   C     0.04855   0.27678   0.02610   0.01267  Uiso   1.00
C969   C     0.08703   0.38611   0.98201   0.01267  Uiso   1.00
C970   C     0.10596   0.36196   0.95039   0.01267  Uiso   1.00
C971   C     0.09130   0.38640   0.95760   0.01267  Uiso   1.00
C972   C     0.07319   0.40915   0.98848   0.01267  Uiso   1.00
C973   C     0.04690   0.45770   0.97801   0.01267  Uiso   1.00
C974   C     0.06325   0.43328   0.97073   0.01267  Uiso   1.00
C975   C     0.08149   0.41057   0.93984   0.01267  Uiso   1.00
C976   C     0.06778   0.43353   0.94626   0.01267  Uiso   1.00
C977   C     0.96575   0.47788   0.92736   0.01267  Uiso   1.00
C978   C     0.97480   0.48724   0.93637   0.01267  Uiso   1.00
C979   C     0.92776   0.35050   0.00806   0.01267  Uiso   1.00
C980   C     0.90834   0.39300   0.97696   0.01267  Uiso   1.00
C981   C     0.91028   0.37631   0.00328   0.01267  Uiso   1.00
C982   C     0.93111   0.33577   0.03250   0.01267  Uiso   1.00
C983   C     0.17204   0.32862   0.91743   0.01267  Uiso   1.00
C984   C     0.91701   0.34661   0.05253   0.01267  Uiso   1.00
C985   C     0.89562   0.38669   0.02362   0.01267  Uiso   1.00
C986   C     0.89889   0.37206   0.04787   0.01267  Uiso   1.00
O562   O     0.82441   0.63876   0.78897   0.01267  Uiso   1.00
O563   O     0.91673   0.47735   0.88117   0.01267  Uiso   1.00
O564   O     0.84199   0.58630   0.80648   0.01267  Uiso   1.00
O565   O     0.94363   0.43680   0.86630   0.01267  Uiso   1.00
O566   O     0.88918   0.40227   0.93031   0.01267  Uiso   1.00
O567   O     0.10659   0.29648   0.99374   0.01267  Uiso   1.00
O568   O     0.15715   0.27054   0.96902   0.01267  Uiso   1.00
O569   O     0.11604   0.34063   0.96610   0.01267  Uiso   1.00
O570   O     0.10795   0.36353   0.92851   0.01267  Uiso   1.00
O571   O     0.04203   0.45664   0.00073   0.01267  Uiso   1.00
O572   O     0.03782   0.47857   0.96133   0.01267  Uiso   1.00
O573   O     0.94621   0.45860   0.91074   0.01267  Uiso   1.00
O574   O     0.99199   0.50396   0.95654   0.01267  Uiso   1.00
O575   O     0.91888   0.38238   0.95984   0.01267  Uiso   1.00
O576   O     0.97254   0.41736   0.89668   0.01267  Uiso   1.00
O577   O     0.16590   0.31492   0.94145   0.01267  Uiso   1.00
O578   O     0.09263   0.34586   0.91093   0.01267  Uiso   1.00
H562   H     0.84271   0.67253   0.77378   0.01267  Uiso   1.00
H563   H     0.90963   0.51485   0.84083   0.01267  Uiso   1.00
H564   H     0.88351   0.55251   0.81471   0.01267  Uiso   1.00
H565   H     0.92826   0.38423   0.86305   0.01267  Uiso   1.00
H566   H     0.95001   0.45366   0.81764   0.01267  Uiso   1.00
H567   H     0.07824   0.29936   0.03939   0.01267  Uiso   1.00
H568   H     0.05050   0.27082   0.01158   0.01267  Uiso   1.00
H569   H     0.09421   0.36801   0.99626   0.01267  Uiso   1.00
H570   H     0.07002   0.40797   0.00759   0.01267  Uiso   1.00
H571   H     0.08433   0.41181   0.92083   0.01267  Uiso   1.00
H572   H     0.06039   0.45151   0.93203   0.01267  Uiso   1.00
H573   H     0.97758   0.47439   0.90893   0.01267  Uiso   1.00
H574   H     0.99335   0.49049   0.92451   0.01267  Uiso   1.00
H575   H     0.93941   0.34198   0.99270   0.01267  Uiso   1.00
H576   H     0.94517   0.31624   0.03548   0.01267  Uiso   1.00
H577   H     0.88186   0.40637   0.02072   0.01267  Uiso   1.00
H578   H     0.88740   0.38102   0.06289   0.01267  Uiso   1.00
Cr69   Cr    0.30577   0.13577   0.59230   0.01267  Uiso   1.00
Cr70   Cr    0.44652   0.94344   0.71966   0.01267  Uiso   1.00
C987   C     0.68056   0.82760   0.70277   0.01267  Uiso   1.00
C988   C     0.52304   0.88898   0.73753   0.01267  Uiso   1.00
C989   C     0.54461   0.87397   0.74597   0.01267  Uiso   1.00
C990   C     0.39946   0.93321   0.82254   0.01267  Uiso   1.00
C991   C     0.41937   0.93773   0.77511   0.01267  Uiso   1.00
C992   C     0.41896   0.93911   0.79833   0.01267  Uiso   1.00
C993   C     0.43830   0.94542   0.79696   0.01267  Uiso   1.00
C994   C     0.29274   0.06406   0.60157   0.01267  Uiso   1.00
C995   C     0.28742   0.09064   0.62499   0.01267  Uiso   1.00
C996   C     0.28506   0.06782   0.62506   0.01267  Uiso   1.00
C997   C     0.27678   0.04855   0.64857   0.01267  Uiso   1.00
C998   C     0.38611   0.08703   0.54484   0.01267  Uiso   1.00
C999   C     0.36196   0.10596   0.58169   0.01267  Uiso   1.00
C1000  C     0.38640   0.09130   0.56470   0.01267  Uiso   1.00
C1001  C     0.40915   0.07319   0.52917   0.01267  Uiso   1.00
C1002  C     0.45770   0.04690   0.51739   0.01267  Uiso   1.00
C1003  C     0.43328   0.06325   0.53274   0.01267  Uiso   1.00
C1004  C     0.41057   0.08149   0.56810   0.01267  Uiso   1.00
C1005  C     0.43353   0.06778   0.55243   0.01267  Uiso   1.00
C1006  C     0.47788   0.96575   0.62901   0.01267  Uiso   1.00
C1007  C     0.48724   0.97480   0.60159   0.01267  Uiso   1.00
C1008  C     0.35050   0.92776   0.71368   0.01267  Uiso   1.00
C1009  C     0.39300   0.90834   0.72170   0.01267  Uiso   1.00
C1010  C     0.37631   0.91028   0.71013   0.01267  Uiso   1.00
C1011  C     0.33577   0.93111   0.70062   0.01267  Uiso   1.00
C1012  C     0.32862   0.17204   0.58192   0.01267  Uiso   1.00
C1013  C     0.34661   0.91701   0.68385   0.01267  Uiso   1.00
C1014  C     0.38669   0.89562   0.69408   0.01267  Uiso   1.00
C1015  C     0.37206   0.89889   0.68119   0.01267  Uiso   1.00
O579   O     0.63876   0.82441   0.74786   0.01267  Uiso   1.00
O580   O     0.47735   0.91673   0.72475   0.01267  Uiso   1.00
O581   O     0.58630   0.84199   0.76523   0.01267  Uiso   1.00
O582   O     0.43680   0.94363   0.75327   0.01267  Uiso   1.00
O583   O     0.40227   0.88918   0.77824   0.01267  Uiso   1.00
O584   O     0.29648   0.10659   0.60319   0.01267  Uiso   1.00
O585   O     0.27054   0.15715   0.60330   0.01267  Uiso   1.00
O586   O     0.34063   0.11604   0.57723   0.01267  Uiso   1.00
O587   O     0.36353   0.10795   0.60000   0.01267  Uiso   1.00
O588   O     0.45664   0.04203   0.50060   0.01267  Uiso   1.00
O589   O     0.47857   0.03782   0.52229   0.01267  Uiso   1.00
O590   O     0.45860   0.94621   0.68444   0.01267  Uiso   1.00
O591   O     0.50396   0.99199   0.54751   0.01267  Uiso   1.00
O592   O     0.38238   0.91888   0.73889   0.01267  Uiso   1.00
O593   O     0.41736   0.97254   0.71343   0.01267  Uiso   1.00
O594   O     0.31492   0.16590   0.57773   0.01267  Uiso   1.00
O595   O     0.34586   0.09263   0.65057   0.01267  Uiso   1.00
H579   H     0.67253   0.84271   0.71098   0.01267  Uiso   1.00
H580   H     0.51485   0.90963   0.73468   0.01267  Uiso   1.00
H581   H     0.55251   0.88351   0.74927   0.01267  Uiso   1.00
H582   H     0.38423   0.92826   0.82446   0.01267  Uiso   1.00
H583   H     0.45366   0.95001   0.77869   0.01267  Uiso   1.00
H584   H     0.29936   0.07824   0.58302   0.01267  Uiso   1.00
H585   H     0.27082   0.05050   0.66710   0.01267  Uiso   1.00
H586   H     0.36801   0.09421   0.54151   0.01267  Uiso   1.00
H587   H     0.40797   0.07002   0.51443   0.01267  Uiso   1.00
H588   H     0.41181   0.08433   0.58302   0.01267  Uiso   1.00
H589   H     0.45151   0.06039   0.55606   0.01267  Uiso   1.00
H590   H     0.47439   0.97758   0.63910   0.01267  Uiso   1.00
H591   H     0.49049   0.99335   0.59165   0.01267  Uiso   1.00
H592   H     0.34198   0.93941   0.72592   0.01267  Uiso   1.00
H593   H     0.31624   0.94517   0.70310   0.01267  Uiso   1.00
H594   H     0.40637   0.88186   0.69105   0.01267  Uiso   1.00
H595   H     0.38102   0.88740   0.66869   0.01267  Uiso   1.00
Cr71   Cr    0.59230   0.96616   0.30577   0.01267  Uiso   1.00
Cr72   Cr    0.71966   0.89037   0.44652   0.01267  Uiso   1.00
C1016  C     0.70277   0.78908   0.68056   0.01267  Uiso   1.00
C1017  C     0.73753   0.85045   0.52304   0.01267  Uiso   1.00
C1018  C     0.74597   0.83545   0.54461   0.01267  Uiso   1.00
C1019  C     0.82254   0.84479   0.39946   0.01267  Uiso   1.00
C1020  C     0.77511   0.86780   0.41937   0.01267  Uiso   1.00
C1021  C     0.79833   0.84359   0.41896   0.01267  Uiso   1.00
C1022  C     0.79696   0.81932   0.43830   0.01267  Uiso   1.00
C1023  C     0.60157   0.04163   0.29274   0.01267  Uiso   1.00
C1024  C     0.62499   0.99695   0.28742   0.01267  Uiso   1.00
C1025  C     0.62506   0.02205   0.28506   0.01267  Uiso   1.00
C1026  C     0.64857   0.02610   0.27678   0.01267  Uiso   1.00
C1027  C     0.54484   0.98201   0.38611   0.01267  Uiso   1.00
C1028  C     0.58169   0.95039   0.36196   0.01267  Uiso   1.00
C1029  C     0.56470   0.95760   0.38640   0.01267  Uiso   1.00
C1030  C     0.52917   0.98848   0.40915   0.01267  Uiso   1.00
C1031  C     0.51739   0.97801   0.45770   0.01267  Uiso   1.00
C1032  C     0.53274   0.97073   0.43328   0.01267  Uiso   1.00
C1033  C     0.56810   0.93984   0.41057   0.01267  Uiso   1.00
C1034  C     0.55243   0.94626   0.43353   0.01267  Uiso   1.00
C1035  C     0.62901   0.92736   0.47788   0.01267  Uiso   1.00
C1036  C     0.60159   0.93637   0.48724   0.01267  Uiso   1.00
C1037  C     0.71368   0.00806   0.35050   0.01267  Uiso   1.00
C1038  C     0.72170   0.97696   0.39300   0.01267  Uiso   1.00
C1039  C     0.71013   0.00328   0.37631   0.01267  Uiso   1.00
C1040  C     0.70062   0.03250   0.33577   0.01267  Uiso   1.00
C1041  C     0.58192   0.91743   0.32862   0.01267  Uiso   1.00
C1042  C     0.68385   0.05253   0.34661   0.01267  Uiso   1.00
C1043  C     0.69408   0.02362   0.38669   0.01267  Uiso   1.00
C1044  C     0.68119   0.04787   0.37206   0.01267  Uiso   1.00
O596   O     0.74786   0.78897   0.63876   0.01267  Uiso   1.00
O597   O     0.72475   0.88117   0.47735   0.01267  Uiso   1.00
O598   O     0.76523   0.80648   0.58630   0.01267  Uiso   1.00
O599   O     0.75327   0.86630   0.43680   0.01267  Uiso   1.00
O600   O     0.77824   0.93031   0.40227   0.01267  Uiso   1.00
O601   O     0.60319   0.99374   0.29648   0.01267  Uiso   1.00
O602   O     0.60330   0.96902   0.27054   0.01267  Uiso   1.00
O603   O     0.57723   0.96610   0.34063   0.01267  Uiso   1.00
O604   O     0.60000   0.92851   0.36353   0.01267  Uiso   1.00
O605   O     0.50060   0.00073   0.45664   0.01267  Uiso   1.00
O606   O     0.52229   0.96133   0.47857   0.01267  Uiso   1.00
O607   O     0.68444   0.91074   0.45860   0.01267  Uiso   1.00
O608   O     0.54751   0.95654   0.50396   0.01267  Uiso   1.00
O609   O     0.73889   0.95984   0.38238   0.01267  Uiso   1.00
O610   O     0.71343   0.89668   0.41736   0.01267  Uiso   1.00
O611   O     0.57773   0.94145   0.31492   0.01267  Uiso   1.00
O612   O     0.65057   0.91093   0.34586   0.01267  Uiso   1.00
H596   H     0.71098   0.77378   0.67253   0.01267  Uiso   1.00
H597   H     0.73468   0.84083   0.51485   0.01267  Uiso   1.00
H598   H     0.74927   0.81471   0.55251   0.01267  Uiso   1.00
H599   H     0.82446   0.86305   0.38423   0.01267  Uiso   1.00
H600   H     0.77869   0.81764   0.45366   0.01267  Uiso   1.00
H601   H     0.58302   0.03939   0.29936   0.01267  Uiso   1.00
H602   H     0.66710   0.01158   0.27082   0.01267  Uiso   1.00
H603   H     0.54151   0.99626   0.36801   0.01267  Uiso   1.00
H604   H     0.51443   0.00759   0.40797   0.01267  Uiso   1.00
H605   H     0.58302   0.92083   0.41181   0.01267  Uiso   1.00
H606   H     0.55606   0.93203   0.45151   0.01267  Uiso   1.00
H607   H     0.63910   0.90893   0.47439   0.01267  Uiso   1.00
H608   H     0.59165   0.92451   0.49049   0.01267  Uiso   1.00
H609   H     0.72592   0.99270   0.34198   0.01267  Uiso   1.00
H610   H     0.70310   0.03548   0.31624   0.01267  Uiso   1.00
H611   H     0.69105   0.02072   0.40637   0.01267  Uiso   1.00
H612   H     0.66869   0.06289   0.38102   0.01267  Uiso   1.00
Cr73   Cr    0.11423   0.28384   0.94423   0.01267  Uiso   1.00
Cr74   Cr    0.30656   0.35963   0.80348   0.01267  Uiso   1.00
C1045  C     0.42240   0.46092   0.56944   0.01267  Uiso   1.00
C1046  C     0.36102   0.39955   0.72696   0.01267  Uiso   1.00
C1047  C     0.37603   0.41455   0.70539   0.01267  Uiso   1.00
C1048  C     0.31679   0.40521   0.85054   0.01267  Uiso   1.00
C1049  C     0.31227   0.38220   0.83063   0.01267  Uiso   1.00
C1050  C     0.31089   0.40641   0.83104   0.01267  Uiso   1.00
C1051  C     0.30458   0.43068   0.81170   0.01267  Uiso   1.00
C1052  C     0.18594   0.20837   0.95726   0.01267  Uiso   1.00
C1053  C     0.15936   0.25305   0.96258   0.01267  Uiso   1.00
C1054  C     0.18218   0.22795   0.96494   0.01267  Uiso   1.00
C1055  C     0.20145   0.22390   0.97322   0.01267  Uiso   1.00
C1056  C     0.16297   0.26799   0.86389   0.01267  Uiso   1.00
C1057  C     0.14404   0.29961   0.88804   0.01267  Uiso   1.00
C1058  C     0.15870   0.29240   0.86360   0.01267  Uiso   1.00
C1059  C     0.17681   0.26152   0.84085   0.01267  Uiso   1.00
C1060  C     0.20310   0.27199   0.79230   0.01267  Uiso   1.00
C1061  C     0.18675   0.27927   0.81672   0.01267  Uiso   1.00
C1062  C     0.16851   0.31016   0.83943   0.01267  Uiso   1.00
C1063  C     0.18222   0.30374   0.81647   0.01267  Uiso   1.00
C1064  C     0.28425   0.32264   0.77212   0.01267  Uiso   1.00
C1065  C     0.27520   0.31363   0.76276   0.01267  Uiso   1.00
C1066  C     0.32224   0.24194   0.89950   0.01267  Uiso   1.00
C1067  C     0.34166   0.27304   0.85700   0.01267  Uiso   1.00
C1068  C     0.33972   0.24672   0.87369   0.01267  Uiso   1.00
C1069  C     0.31889   0.21750   0.91423   0.01267  Uiso   1.00
C1070  C     0.07796   0.33257   0.92138   0.01267  Uiso   1.00
C1071  C     0.33299   0.19747   0.90339   0.01267  Uiso   1.00
C1072  C     0.35438   0.22638   0.86331   0.01267  Uiso   1.00
C1073  C     0.35111   0.20213   0.87794   0.01267  Uiso   1.00
O613   O     0.42559   0.46103   0.61124   0.01267  Uiso   1.00
O614   O     0.33327   0.36883   0.77265   0.01267  Uiso   1.00
O615   O     0.40801   0.44352   0.66370   0.01267  Uiso   1.00
O616   O     0.30637   0.38370   0.81320   0.01267  Uiso   1.00
O617   O     0.36082   0.31969   0.84773   0.01267  Uiso   1.00
O618   O     0.14341   0.25626   0.95352   0.01267  Uiso   1.00
O619   O     0.09285   0.28098   0.97946   0.01267  Uiso   1.00
O620   O     0.13396   0.28390   0.90937   0.01267  Uiso   1.00
O621   O     0.14205   0.32149   0.88647   0.01267  Uiso   1.00
O622   O     0.20797   0.24927   0.79336   0.01267  Uiso   1.00
O623   O     0.21218   0.28867   0.77143   0.01267  Uiso   1.00
O624   O     0.30379   0.33926   0.79140   0.01267  Uiso   1.00
O625   O     0.25801   0.29346   0.74604   0.01267  Uiso   1.00
O626   O     0.33112   0.29016   0.86762   0.01267  Uiso   1.00
O627   O     0.27746   0.35332   0.83264   0.01267  Uiso   1.00
O628   O     0.08410   0.30855   0.93508   0.01267  Uiso   1.00
O629   O     0.15737   0.33907   0.90414   0.01267  Uiso   1.00
H613   H     0.40729   0.47622   0.57747   0.01267  Uiso   1.00
H614   H     0.34037   0.40917   0.73515   0.01267  Uiso   1.00
H615   H     0.36649   0.43529   0.69749   0.01267  Uiso   1.00
H616   H     0.32174   0.38695   0.86577   0.01267  Uiso   1.00
H617   H     0.29999   0.43236   0.79634   0.01267  Uiso   1.00
H618   H     0.17176   0.21061   0.95064   0.01267  Uiso   1.00
H619   H     0.19950   0.23842   0.97918   0.01267  Uiso   1.00
H620   H     0.15579   0.25374   0.88199   0.01267  Uiso   1.00
H621   H     0.17998   0.24241   0.84203   0.01267  Uiso   1.00
H622   H     0.16567   0.32917   0.83819   0.01267  Uiso   1.00
H623   H     0.18961   0.31797   0.79849   0.01267  Uiso   1.00
H624   H     0.27242   0.34107   0.77561   0.01267  Uiso   1.00
H625   H     0.25665   0.32549   0.75951   0.01267  Uiso   1.00
H626   H     0.31059   0.25730   0.90802   0.01267  Uiso   1.00
H627   H     0.30483   0.21452   0.93376   0.01267  Uiso   1.00
H628   H     0.36814   0.22928   0.84363   0.01267  Uiso   1.00
H629   H     0.36260   0.18711   0.86898   0.01267  Uiso   1.00
Cr75   Cr    0.28384   0.11423   0.65770   0.01267  Uiso   1.00
Cr76   Cr    0.35963   0.30656   0.53034   0.01267  Uiso   1.00
C1074  C     0.46092   0.42240   0.54723   0.01267  Uiso   1.00
C1075  C     0.39955   0.36102   0.51247   0.01267  Uiso   1.00
C1076  C     0.41455   0.37603   0.50403   0.01267  Uiso   1.00
C1077  C     0.40521   0.31679   0.42746   0.01267  Uiso   1.00
C1078  C     0.38220   0.31227   0.47489   0.01267  Uiso   1.00
C1079  C     0.40641   0.31089   0.45167   0.01267  Uiso   1.00
C1080  C     0.43068   0.30458   0.45304   0.01267  Uiso   1.00
C1081  C     0.20837   0.18594   0.64843   0.01267  Uiso   1.00
C1082  C     0.25305   0.15936   0.62501   0.01267  Uiso   1.00
C1083  C     0.22795   0.18218   0.62494   0.01267  Uiso   1.00
C1084  C     0.22390   0.20145   0.60143   0.01267  Uiso   1.00
C1085  C     0.26799   0.16297   0.70516   0.01267  Uiso   1.00
C1086  C     0.29961   0.14404   0.66831   0.01267  Uiso   1.00
C1087  C     0.29240   0.15870   0.68530   0.01267  Uiso   1.00
C1088  C     0.26152   0.17681   0.72083   0.01267  Uiso   1.00
C1089  C     0.27199   0.20310   0.73261   0.01267  Uiso   1.00
C1090  C     0.27927   0.18675   0.71726   0.01267  Uiso   1.00
C1091  C     0.31016   0.16851   0.68190   0.01267  Uiso   1.00
C1092  C     0.30374   0.18222   0.69757   0.01267  Uiso   1.00
C1093  C     0.32264   0.28425   0.62099   0.01267  Uiso   1.00
C1094  C     0.31363   0.27520   0.64841   0.01267  Uiso   1.00
C1095  C     0.24194   0.32224   0.53632   0.01267  Uiso   1.00
C1096  C     0.27304   0.34166   0.52830   0.01267  Uiso   1.00
C1097  C     0.24672   0.33972   0.53987   0.01267  Uiso   1.00
C1098  C     0.21750   0.31889   0.54938   0.01267  Uiso   1.00
C1099  C     0.33257   0.07796   0.66808   0.01267  Uiso   1.00
C1100  C     0.19747   0.33299   0.56615   0.01267  Uiso   1.00
C1101  C     0.22638   0.35438   0.55592   0.01267  Uiso   1.00
C1102  C     0.20213   0.35111   0.56881   0.01267  Uiso   1.00
O630   O     0.46103   0.42559   0.50214   0.01267  Uiso   1.00
O631   O     0.36883   0.33327   0.52525   0.01267  Uiso   1.00
O632   O     0.44352   0.40801   0.48477   0.01267  Uiso   1.00
O633   O     0.38370   0.30637   0.49673   0.01267  Uiso   1.00
O634   O     0.31969   0.36082   0.47176   0.01267  Uiso   1.00
O635   O     0.25626   0.14341   0.64681   0.01267  Uiso   1.00
O636   O     0.28098   0.09285   0.64670   0.01267  Uiso   1.00
O637   O     0.28390   0.13396   0.67277   0.01267  Uiso   1.00
O638   O     0.32149   0.14205   0.65000   0.01267  Uiso   1.00
O639   O     0.24927   0.20797   0.74940   0.01267  Uiso   1.00
O640   O     0.28867   0.21218   0.72771   0.01267  Uiso   1.00
O641   O     0.33926   0.30379   0.56556   0.01267  Uiso   1.00
O642   O     0.29346   0.25801   0.70249   0.01267  Uiso   1.00
O643   O     0.29016   0.33112   0.51111   0.01267  Uiso   1.00
O644   O     0.35332   0.27746   0.53657   0.01267  Uiso   1.00
O645   O     0.30855   0.08410   0.67227   0.01267  Uiso   1.00
O646   O     0.33907   0.15737   0.59943   0.01267  Uiso   1.00
H630   H     0.47622   0.40729   0.53902   0.01267  Uiso   1.00
H631   H     0.40917   0.34037   0.51532   0.01267  Uiso   1.00
H632   H     0.43529   0.36649   0.50073   0.01267  Uiso   1.00
H633   H     0.38695   0.32174   0.42554   0.01267  Uiso   1.00
H634   H     0.43236   0.29999   0.47131   0.01267  Uiso   1.00
H635   H     0.21061   0.17176   0.66698   0.01267  Uiso   1.00
H636   H     0.23842   0.19950   0.58290   0.01267  Uiso   1.00
H637   H     0.25374   0.15579   0.70849   0.01267  Uiso   1.00
H638   H     0.24241   0.17998   0.73557   0.01267  Uiso   1.00
H639   H     0.32917   0.16567   0.66698   0.01267  Uiso   1.00
H640   H     0.31797   0.18961   0.69394   0.01267  Uiso   1.00
H641   H     0.34107   0.27242   0.61090   0.01267  Uiso   1.00
H642   H     0.32549   0.25665   0.65835   0.01267  Uiso   1.00
H643   H     0.25730   0.31059   0.52408   0.01267  Uiso   1.00
H644   H     0.21452   0.30483   0.54690   0.01267  Uiso   1.00
H645   H     0.22928   0.36814   0.55895   0.01267  Uiso   1.00
H646   H     0.18711   0.36260   0.58131   0.01267  Uiso   1.00
Cr77   Cr    0.65770   0.94423   0.28384   0.01267  Uiso   1.00
Cr78   Cr    0.53034   0.80348   0.35963   0.01267  Uiso   1.00
C1103  C     0.54723   0.56944   0.46092   0.01267  Uiso   1.00
C1104  C     0.51247   0.72696   0.39955   0.01267  Uiso   1.00
C1105  C     0.50403   0.70539   0.41455   0.01267  Uiso   1.00
C1106  C     0.42746   0.85054   0.40521   0.01267  Uiso   1.00
C1107  C     0.47489   0.83063   0.38220   0.01267  Uiso   1.00
C1108  C     0.45167   0.83104   0.40641   0.01267  Uiso   1.00
C1109  C     0.45304   0.81170   0.43068   0.01267  Uiso   1.00
C1110  C     0.64843   0.95726   0.20837   0.01267  Uiso   1.00
C1111  C     0.62501   0.96258   0.25305   0.01267  Uiso   1.00
C1112  C     0.62494   0.96494   0.22795   0.01267  Uiso   1.00
C1113  C     0.60143   0.97322   0.22390   0.01267  Uiso   1.00
C1114  C     0.70516   0.86389   0.26799   0.01267  Uiso   1.00
C1115  C     0.66831   0.88804   0.29961   0.01267  Uiso   1.00
C1116  C     0.68530   0.86360   0.29240   0.01267  Uiso   1.00
C1117  C     0.72083   0.84085   0.26152   0.01267  Uiso   1.00
C1118  C     0.73261   0.79230   0.27199   0.01267  Uiso   1.00
C1119  C     0.71726   0.81672   0.27927   0.01267  Uiso   1.00
C1120  C     0.68190   0.83943   0.31016   0.01267  Uiso   1.00
C1121  C     0.69757   0.81647   0.30374   0.01267  Uiso   1.00
C1122  C     0.62099   0.77212   0.32264   0.01267  Uiso   1.00
C1123  C     0.64841   0.76276   0.31363   0.01267  Uiso   1.00
C1124  C     0.53632   0.89950   0.24194   0.01267  Uiso   1.00
C1125  C     0.52830   0.85700   0.27304   0.01267  Uiso   1.00
C1126  C     0.53987   0.87369   0.24672   0.01267  Uiso   1.00
C1127  C     0.54938   0.91423   0.21750   0.01267  Uiso   1.00
C1128  C     0.66808   0.92138   0.33257   0.01267  Uiso   1.00
C1129  C     0.56615   0.90339   0.19747   0.01267  Uiso   1.00
C1130  C     0.55592   0.86331   0.22638   0.01267  Uiso   1.00
C1131  C     0.56881   0.87794   0.20213   0.01267  Uiso   1.00
O647   O     0.50214   0.61124   0.46103   0.01267  Uiso   1.00
O648   O     0.52525   0.77265   0.36883   0.01267  Uiso   1.00
O649   O     0.48477   0.66370   0.44352   0.01267  Uiso   1.00
O650   O     0.49673   0.81320   0.38370   0.01267  Uiso   1.00
O651   O     0.47176   0.84773   0.31969   0.01267  Uiso   1.00
O652   O     0.64681   0.95352   0.25626   0.01267  Uiso   1.00
O653   O     0.64670   0.97946   0.28098   0.01267  Uiso   1.00
O654   O     0.67277   0.90937   0.28390   0.01267  Uiso   1.00
O655   O     0.65000   0.88647   0.32149   0.01267  Uiso   1.00
O656   O     0.74940   0.79336   0.24927   0.01267  Uiso   1.00
O657   O     0.72771   0.77143   0.28867   0.01267  Uiso   1.00
O658   O     0.56556   0.79140   0.33926   0.01267  Uiso   1.00
O659   O     0.70249   0.74604   0.29346   0.01267  Uiso   1.00
O660   O     0.51111   0.86762   0.29016   0.01267  Uiso   1.00
O661   O     0.53657   0.83264   0.35332   0.01267  Uiso   1.00
O662   O     0.67227   0.93508   0.30855   0.01267  Uiso   1.00
O663   O     0.59943   0.90414   0.33907   0.01267  Uiso   1.00
H647   H     0.53902   0.57747   0.47622   0.01267  Uiso   1.00
H648   H     0.51532   0.73515   0.40917   0.01267  Uiso   1.00
H649   H     0.50073   0.69749   0.43529   0.01267  Uiso   1.00
H650   H     0.42554   0.86577   0.38695   0.01267  Uiso   1.00
H651   H     0.47131   0.79634   0.43236   0.01267  Uiso   1.00
H652   H     0.66698   0.95064   0.21061   0.01267  Uiso   1.00
H653   H     0.58290   0.97918   0.23842   0.01267  Uiso   1.00
H654   H     0.70849   0.88199   0.25374   0.01267  Uiso   1.00
H655   H     0.73557   0.84203   0.24241   0.01267  Uiso   1.00
H656   H     0.66698   0.83819   0.32917   0.01267  Uiso   1.00
H657   H     0.69394   0.79849   0.31797   0.01267  Uiso   1.00
H658   H     0.61090   0.77561   0.34107   0.01267  Uiso   1.00
H659   H     0.65835   0.75951   0.32549   0.01267  Uiso   1.00
H660   H     0.52408   0.90802   0.25730   0.01267  Uiso   1.00
H661   H     0.54690   0.93376   0.21452   0.01267  Uiso   1.00
H662   H     0.55895   0.84363   0.22928   0.01267  Uiso   1.00
H663   H     0.58131   0.86898   0.18711   0.01267  Uiso   1.00
Cr79   Cr    0.94423   0.65770   0.11423   0.01267  Uiso   1.00
Cr80   Cr    0.80348   0.53034   0.30656   0.01267  Uiso   1.00
C1132  C     0.56944   0.54723   0.42240   0.01267  Uiso   1.00
C1133  C     0.72696   0.51247   0.36102   0.01267  Uiso   1.00
C1134  C     0.70539   0.50403   0.37603   0.01267  Uiso   1.00
C1135  C     0.85054   0.42746   0.31679   0.01267  Uiso   1.00
C1136  C     0.83063   0.47489   0.31227   0.01267  Uiso   1.00
C1137  C     0.83104   0.45167   0.31089   0.01267  Uiso   1.00
C1138  C     0.81170   0.45304   0.30458   0.01267  Uiso   1.00
C1139  C     0.95726   0.64843   0.18594   0.01267  Uiso   1.00
C1140  C     0.96258   0.62501   0.15936   0.01267  Uiso   1.00
C1141  C     0.96494   0.62494   0.18218   0.01267  Uiso   1.00
C1142  C     0.97322   0.60143   0.20145   0.01267  Uiso   1.00
C1143  C     0.86389   0.70516   0.16297   0.01267  Uiso   1.00
C1144  C     0.88804   0.66831   0.14404   0.01267  Uiso   1.00
C1145  C     0.86360   0.68530   0.15870   0.01267  Uiso   1.00
C1146  C     0.84085   0.72083   0.17681   0.01267  Uiso   1.00
C1147  C     0.79230   0.73261   0.20310   0.01267  Uiso   1.00
C1148  C     0.81672   0.71726   0.18675   0.01267  Uiso   1.00
C1149  C     0.83943   0.68190   0.16851   0.01267  Uiso   1.00
C1150  C     0.81647   0.69757   0.18222   0.01267  Uiso   1.00
C1151  C     0.77212   0.62099   0.28425   0.01267  Uiso   1.00
C1152  C     0.76276   0.64841   0.27520   0.01267  Uiso   1.00
C1153  C     0.89950   0.53632   0.32224   0.01267  Uiso   1.00
C1154  C     0.85700   0.52830   0.34166   0.01267  Uiso   1.00
C1155  C     0.87369   0.53987   0.33972   0.01267  Uiso   1.00
C1156  C     0.91423   0.54938   0.31889   0.01267  Uiso   1.00
C1157  C     0.92138   0.66808   0.07796   0.01267  Uiso   1.00
C1158  C     0.90339   0.56615   0.33299   0.01267  Uiso   1.00
C1159  C     0.86331   0.55592   0.35438   0.01267  Uiso   1.00
C1160  C     0.87794   0.56881   0.35111   0.01267  Uiso   1.00
O664   O     0.61124   0.50214   0.42559   0.01267  Uiso   1.00
O665   O     0.77265   0.52525   0.33327   0.01267  Uiso   1.00
O666   O     0.66370   0.48477   0.40801   0.01267  Uiso   1.00
O667   O     0.81320   0.49673   0.30637   0.01267  Uiso   1.00
O668   O     0.84773   0.47176   0.36082   0.01267  Uiso   1.00
O669   O     0.95352   0.64681   0.14341   0.01267  Uiso   1.00
O670   O     0.97946   0.64670   0.09285   0.01267  Uiso   1.00
O671   O     0.90937   0.67277   0.13396   0.01267  Uiso   1.00
O672   O     0.88647   0.65000   0.14205   0.01267  Uiso   1.00
O673   O     0.79336   0.74940   0.20797   0.01267  Uiso   1.00
O674   O     0.77143   0.72771   0.21218   0.01267  Uiso   1.00
O675   O     0.79140   0.56556   0.30379   0.01267  Uiso   1.00
O676   O     0.74604   0.70249   0.25801   0.01267  Uiso   1.00
O677   O     0.86762   0.51111   0.33112   0.01267  Uiso   1.00
O678   O     0.83264   0.53657   0.27746   0.01267  Uiso   1.00
O679   O     0.93508   0.67227   0.08410   0.01267  Uiso   1.00
O680   O     0.90414   0.59943   0.15737   0.01267  Uiso   1.00
H664   H     0.57747   0.53902   0.40729   0.01267  Uiso   1.00
H665   H     0.73515   0.51532   0.34037   0.01267  Uiso   1.00
H666   H     0.69749   0.50073   0.36649   0.01267  Uiso   1.00
H667   H     0.86577   0.42554   0.32174   0.01267  Uiso   1.00
H668   H     0.79634   0.47131   0.29999   0.01267  Uiso   1.00
H669   H     0.95064   0.66698   0.17176   0.01267  Uiso   1.00
H670   H     0.97918   0.58290   0.19950   0.01267  Uiso   1.00
H671   H     0.88199   0.70849   0.15579   0.01267  Uiso   1.00
H672   H     0.84203   0.73557   0.17998   0.01267  Uiso   1.00
H673   H     0.83819   0.66698   0.16567   0.01267  Uiso   1.00
H674   H     0.79849   0.69394   0.18961   0.01267  Uiso   1.00
H675   H     0.77561   0.61090   0.27242   0.01267  Uiso   1.00
H676   H     0.75951   0.65835   0.25665   0.01267  Uiso   1.00
H677   H     0.90802   0.52408   0.31059   0.01267  Uiso   1.00
H678   H     0.93376   0.54690   0.30483   0.01267  Uiso   1.00
H679   H     0.84363   0.55895   0.36814   0.01267  Uiso   1.00
H680   H     0.86898   0.58131   0.36260   0.01267  Uiso   1.00
Cr81   Cr    0.65770   0.11423   0.94423   0.01267  Uiso   1.00
Cr82   Cr    0.53034   0.30656   0.80348   0.01267  Uiso   1.00
C1161  C     0.54723   0.42240   0.56944   0.01267  Uiso   1.00
C1162  C     0.51247   0.36102   0.72696   0.01267  Uiso   1.00
C1163  C     0.50403   0.37603   0.70539   0.01267  Uiso   1.00
C1164  C     0.42746   0.31679   0.85054   0.01267  Uiso   1.00
C1165  C     0.47489   0.31227   0.83063   0.01267  Uiso   1.00
C1166  C     0.45167   0.31089   0.83104   0.01267  Uiso   1.00
C1167  C     0.45304   0.30458   0.81170   0.01267  Uiso   1.00
C1168  C     0.64843   0.18594   0.95726   0.01267  Uiso   1.00
C1169  C     0.62501   0.15936   0.96258   0.01267  Uiso   1.00
C1170  C     0.62494   0.18218   0.96494   0.01267  Uiso   1.00
C1171  C     0.60143   0.20145   0.97322   0.01267  Uiso   1.00
C1172  C     0.70516   0.16297   0.86389   0.01267  Uiso   1.00
C1173  C     0.66831   0.14404   0.88804   0.01267  Uiso   1.00
C1174  C     0.68530   0.15870   0.86360   0.01267  Uiso   1.00
C1175  C     0.72083   0.17681   0.84085   0.01267  Uiso   1.00
C1176  C     0.73261   0.20310   0.79230   0.01267  Uiso   1.00
C1177  C     0.71726   0.18675   0.81672   0.01267  Uiso   1.00
C1178  C     0.68190   0.16851   0.83943   0.01267  Uiso   1.00
C1179  C     0.69757   0.18222   0.81647   0.01267  Uiso   1.00
C1180  C     0.62099   0.28425   0.77212   0.01267  Uiso   1.00
C1181  C     0.64841   0.27520   0.76276   0.01267  Uiso   1.00
C1182  C     0.53632   0.32224   0.89950   0.01267  Uiso   1.00
C1183  C     0.52830   0.34166   0.85700   0.01267  Uiso   1.00
C1184  C     0.53987   0.33972   0.87369   0.01267  Uiso   1.00
C1185  C     0.54938   0.31889   0.91423   0.01267  Uiso   1.00
C1186  C     0.66808   0.07796   0.92138   0.01267  Uiso   1.00
C1187  C     0.56615   0.33299   0.90339   0.01267  Uiso   1.00
C1188  C     0.55592   0.35438   0.86331   0.01267  Uiso   1.00
C1189  C     0.56881   0.35111   0.87794   0.01267  Uiso   1.00
O681   O     0.50214   0.42559   0.61124   0.01267  Uiso   1.00
O682   O     0.52525   0.33327   0.77265   0.01267  Uiso   1.00
O683   O     0.48477   0.40801   0.66370   0.01267  Uiso   1.00
O684   O     0.49673   0.30637   0.81320   0.01267  Uiso   1.00
O685   O     0.47176   0.36082   0.84773   0.01267  Uiso   1.00
O686   O     0.64681   0.14341   0.95352   0.01267  Uiso   1.00
O687   O     0.64670   0.09285   0.97946   0.01267  Uiso   1.00
O688   O     0.67277   0.13396   0.90937   0.01267  Uiso   1.00
O689   O     0.65000   0.14205   0.88647   0.01267  Uiso   1.00
O690   O     0.74940   0.20797   0.79336   0.01267  Uiso   1.00
O691   O     0.72771   0.21218   0.77143   0.01267  Uiso   1.00
O692   O     0.56556   0.30379   0.79140   0.01267  Uiso   1.00
O693   O     0.70249   0.25801   0.74604   0.01267  Uiso   1.00
O694   O     0.51111   0.33112   0.86762   0.01267  Uiso   1.00
O695   O     0.53657   0.27746   0.83264   0.01267  Uiso   1.00
O696   O     0.67227   0.08410   0.93508   0.01267  Uiso   1.00
O697   O     0.59943   0.15737   0.90414   0.01267  Uiso   1.00
H681   H     0.53902   0.40729   0.57747   0.01267  Uiso   1.00
H682   H     0.51532   0.34037   0.73515   0.01267  Uiso   1.00
H683   H     0.50073   0.36649   0.69749   0.01267  Uiso   1.00
H684   H     0.42554   0.32174   0.86577   0.01267  Uiso   1.00
H685   H     0.47131   0.29999   0.79634   0.01267  Uiso   1.00
H686   H     0.66698   0.17176   0.95064   0.01267  Uiso   1.00
H687   H     0.58290   0.19950   0.97918   0.01267  Uiso   1.00
H688   H     0.70849   0.15579   0.88199   0.01267  Uiso   1.00
H689   H     0.73557   0.17998   0.84203   0.01267  Uiso   1.00
H690   H     0.66698   0.16567   0.83819   0.01267  Uiso   1.00
H691   H     0.69394   0.18961   0.79849   0.01267  Uiso   1.00
H692   H     0.61090   0.27242   0.77561   0.01267  Uiso   1.00
H693   H     0.65835   0.25665   0.75951   0.01267  Uiso   1.00
H694   H     0.52408   0.31059   0.90802   0.01267  Uiso   1.00
H695   H     0.54690   0.30483   0.93376   0.01267  Uiso   1.00
H696   H     0.55895   0.36814   0.84363   0.01267  Uiso   1.00
H697   H     0.58131   0.36260   0.86898   0.01267  Uiso   1.00
Cr83   Cr    0.94423   0.28384   0.65770   0.01267  Uiso   1.00
Cr84   Cr    0.80348   0.35963   0.53034   0.01267  Uiso   1.00
C1190  C     0.56944   0.46092   0.54723   0.01267  Uiso   1.00
C1191  C     0.72696   0.39955   0.51247   0.01267  Uiso   1.00
C1192  C     0.70539   0.41455   0.50403   0.01267  Uiso   1.00
C1193  C     0.85054   0.40521   0.42746   0.01267  Uiso   1.00
C1194  C     0.83063   0.38220   0.47489   0.01267  Uiso   1.00
C1195  C     0.83104   0.40641   0.45167   0.01267  Uiso   1.00
C1196  C     0.81170   0.43068   0.45304   0.01267  Uiso   1.00
C1197  C     0.95726   0.20837   0.64843   0.01267  Uiso   1.00
C1198  C     0.96258   0.25305   0.62501   0.01267  Uiso   1.00
C1199  C     0.96494   0.22795   0.62494   0.01267  Uiso   1.00
C1200  C     0.97322   0.22390   0.60143   0.01267  Uiso   1.00
C1201  C     0.86389   0.26799   0.70516   0.01267  Uiso   1.00
C1202  C     0.88804   0.29961   0.66831   0.01267  Uiso   1.00
C1203  C     0.86360   0.29240   0.68530   0.01267  Uiso   1.00
C1204  C     0.84085   0.26152   0.72083   0.01267  Uiso   1.00
C1205  C     0.79230   0.27199   0.73261   0.01267  Uiso   1.00
C1206  C     0.81672   0.27927   0.71726   0.01267  Uiso   1.00
C1207  C     0.83943   0.31016   0.68190   0.01267  Uiso   1.00
C1208  C     0.81647   0.30374   0.69757   0.01267  Uiso   1.00
C1209  C     0.77212   0.32264   0.62099   0.01267  Uiso   1.00
C1210  C     0.76276   0.31363   0.64841   0.01267  Uiso   1.00
C1211  C     0.89950   0.24194   0.53632   0.01267  Uiso   1.00
C1212  C     0.85700   0.27304   0.52830   0.01267  Uiso   1.00
C1213  C     0.87369   0.24672   0.53987   0.01267  Uiso   1.00
C1214  C     0.91423   0.21750   0.54938   0.01267  Uiso   1.00
C1215  C     0.92138   0.33257   0.66808   0.01267  Uiso   1.00
C1216  C     0.90339   0.19747   0.56615   0.01267  Uiso   1.00
C1217  C     0.86331   0.22638   0.55592   0.01267  Uiso   1.00
C1218  C     0.87794   0.20213   0.56881   0.01267  Uiso   1.00
O698   O     0.61124   0.46103   0.50214   0.01267  Uiso   1.00
O699   O     0.77265   0.36883   0.52525   0.01267  Uiso   1.00
O700   O     0.66370   0.44352   0.48477   0.01267  Uiso   1.00
O701   O     0.81320   0.38370   0.49673   0.01267  Uiso   1.00
O702   O     0.84773   0.31969   0.47176   0.01267  Uiso   1.00
O703   O     0.95352   0.25626   0.64681   0.01267  Uiso   1.00
O704   O     0.97946   0.28098   0.64670   0.01267  Uiso   1.00
O705   O     0.90937   0.28390   0.67277   0.01267  Uiso   1.00
O706   O     0.88647   0.32149   0.65000   0.01267  Uiso   1.00
O707   O     0.79336   0.24927   0.74940   0.01267  Uiso   1.00
O708   O     0.77143   0.28867   0.72771   0.01267  Uiso   1.00
O709   O     0.79140   0.33926   0.56556   0.01267  Uiso   1.00
O710   O     0.74604   0.29346   0.70249   0.01267  Uiso   1.00
O711   O     0.86762   0.29016   0.51111   0.01267  Uiso   1.00
O712   O     0.83264   0.35332   0.53657   0.01267  Uiso   1.00
O713   O     0.93508   0.30855   0.67227   0.01267  Uiso   1.00
O714   O     0.90414   0.33907   0.59943   0.01267  Uiso   1.00
H698   H     0.57747   0.47622   0.53902   0.01267  Uiso   1.00
H699   H     0.73515   0.40917   0.51532   0.01267  Uiso   1.00
H700   H     0.69749   0.43529   0.50073   0.01267  Uiso   1.00
H701   H     0.86577   0.38695   0.42554   0.01267  Uiso   1.00
H702   H     0.79634   0.43236   0.47131   0.01267  Uiso   1.00
H703   H     0.95064   0.21061   0.66698   0.01267  Uiso   1.00
H704   H     0.97918   0.23842   0.58290   0.01267  Uiso   1.00
H705   H     0.88199   0.25374   0.70849   0.01267  Uiso   1.00
H706   H     0.84203   0.24241   0.73557   0.01267  Uiso   1.00
H707   H     0.83819   0.32917   0.66698   0.01267  Uiso   1.00
H708   H     0.79849   0.31797   0.69394   0.01267  Uiso   1.00
H709   H     0.77561   0.34107   0.61090   0.01267  Uiso   1.00
H710   H     0.75951   0.32549   0.65835   0.01267  Uiso   1.00
H711   H     0.90802   0.25730   0.52408   0.01267  Uiso   1.00
H712   H     0.93376   0.21452   0.54690   0.01267  Uiso   1.00
H713   H     0.84363   0.22928   0.55895   0.01267  Uiso   1.00
H714   H     0.86898   0.18711   0.58131   0.01267  Uiso   1.00
Cr85   Cr    0.11423   0.65770   0.28384   0.01267  Uiso   1.00
Cr86   Cr    0.30656   0.53034   0.35963   0.01267  Uiso   1.00
C1219  C     0.42240   0.54723   0.46092   0.01267  Uiso   1.00
C1220  C     0.36102   0.51247   0.39955   0.01267  Uiso   1.00
C1221  C     0.37603   0.50403   0.41455   0.01267  Uiso   1.00
C1222  C     0.31679   0.42746   0.40521   0.01267  Uiso   1.00
C1223  C     0.31227   0.47489   0.38220   0.01267  Uiso   1.00
C1224  C     0.31089   0.45167   0.40641   0.01267  Uiso   1.00
C1225  C     0.30458   0.45304   0.43068   0.01267  Uiso   1.00
C1226  C     0.18594   0.64843   0.20837   0.01267  Uiso   1.00
C1227  C     0.15936   0.62501   0.25305   0.01267  Uiso   1.00
C1228  C     0.18218   0.62494   0.22795   0.01267  Uiso   1.00
C1229  C     0.20145   0.60143   0.22390   0.01267  Uiso   1.00
C1230  C     0.16297   0.70516   0.26799   0.01267  Uiso   1.00
C1231  C     0.14404   0.66831   0.29961   0.01267  Uiso   1.00
C1232  C     0.15870   0.68530   0.29240   0.01267  Uiso   1.00
C1233  C     0.17681   0.72083   0.26152   0.01267  Uiso   1.00
C1234  C     0.20310   0.73261   0.27199   0.01267  Uiso   1.00
C1235  C     0.18675   0.71726   0.27927   0.01267  Uiso   1.00
C1236  C     0.16851   0.68190   0.31016   0.01267  Uiso   1.00
C1237  C     0.18222   0.69757   0.30374   0.01267  Uiso   1.00
C1238  C     0.28425   0.62099   0.32264   0.01267  Uiso   1.00
C1239  C     0.27520   0.64841   0.31363   0.01267  Uiso   1.00
C1240  C     0.32224   0.53632   0.24194   0.01267  Uiso   1.00
C1241  C     0.34166   0.52830   0.27304   0.01267  Uiso   1.00
C1242  C     0.33972   0.53987   0.24672   0.01267  Uiso   1.00
C1243  C     0.31889   0.54938   0.21750   0.01267  Uiso   1.00
C1244  C     0.07796   0.66808   0.33257   0.01267  Uiso   1.00
C1245  C     0.33299   0.56615   0.19747   0.01267  Uiso   1.00
C1246  C     0.35438   0.55592   0.22638   0.01267  Uiso   1.00
C1247  C     0.35111   0.56881   0.20213   0.01267  Uiso   1.00
O715   O     0.42559   0.50214   0.46103   0.01267  Uiso   1.00
O716   O     0.33327   0.52525   0.36883   0.01267  Uiso   1.00
O717   O     0.40801   0.48477   0.44352   0.01267  Uiso   1.00
O718   O     0.30637   0.49673   0.38370   0.01267  Uiso   1.00
O719   O     0.36082   0.47176   0.31969   0.01267  Uiso   1.00
O720   O     0.14341   0.64681   0.25626   0.01267  Uiso   1.00
O721   O     0.09285   0.64670   0.28098   0.01267  Uiso   1.00
O722   O     0.13396   0.67277   0.28390   0.01267  Uiso   1.00
O723   O     0.14205   0.65000   0.32149   0.01267  Uiso   1.00
O724   O     0.20797   0.74940   0.24927   0.01267  Uiso   1.00
O725   O     0.21218   0.72771   0.28867   0.01267  Uiso   1.00
O726   O     0.30379   0.56556   0.33926   0.01267  Uiso   1.00
O727   O     0.25801   0.70249   0.29346   0.01267  Uiso   1.00
O728   O     0.33112   0.51111   0.29016   0.01267  Uiso   1.00
O729   O     0.27746   0.53657   0.35332   0.01267  Uiso   1.00
O730   O     0.08410   0.67227   0.30855   0.01267  Uiso   1.00
O731   O     0.15737   0.59943   0.33907   0.01267  Uiso   1.00
H715   H     0.40729   0.53902   0.47622   0.01267  Uiso   1.00
H716   H     0.34037   0.51532   0.40917   0.01267  Uiso   1.00
H717   H     0.36649   0.50073   0.43529   0.01267  Uiso   1.00
H718   H     0.32174   0.42554   0.38695   0.01267  Uiso   1.00
H719   H     0.29999   0.47131   0.43236   0.01267  Uiso   1.00
H720   H     0.17176   0.66698   0.21061   0.01267  Uiso   1.00
H721   H     0.19950   0.58290   0.23842   0.01267  Uiso   1.00
H722   H     0.15579   0.70849   0.25374   0.01267  Uiso   1.00
H723   H     0.17998   0.73557   0.24241   0.01267  Uiso   1.00
H724   H     0.16567   0.66698   0.32917   0.01267  Uiso   1.00
H725   H     0.18961   0.69394   0.31797   0.01267  Uiso   1.00
H726   H     0.27242   0.61090   0.34107   0.01267  Uiso   1.00
H727   H     0.25665   0.65835   0.32549   0.01267  Uiso   1.00
H728   H     0.31059   0.52408   0.25730   0.01267  Uiso   1.00
H729   H     0.30483   0.54690   0.21452   0.01267  Uiso   1.00
H730   H     0.36814   0.55895   0.22928   0.01267  Uiso   1.00
H731   H     0.36260   0.58131   0.18711   0.01267  Uiso   1.00
Cr87   Cr    0.28384   0.94423   0.11423   0.01267  Uiso   1.00
Cr88   Cr    0.35963   0.80348   0.30656   0.01267  Uiso   1.00
C1248  C     0.46092   0.56944   0.42240   0.01267  Uiso   1.00
C1249  C     0.39955   0.72696   0.36102   0.01267  Uiso   1.00
C1250  C     0.41455   0.70539   0.37603   0.01267  Uiso   1.00
C1251  C     0.40521   0.85054   0.31679   0.01267  Uiso   1.00
C1252  C     0.38220   0.83063   0.31227   0.01267  Uiso   1.00
C1253  C     0.40641   0.83104   0.31089   0.01267  Uiso   1.00
C1254  C     0.43068   0.81170   0.30458   0.01267  Uiso   1.00
C1255  C     0.20837   0.95726   0.18594   0.01267  Uiso   1.00
C1256  C     0.25305   0.96258   0.15936   0.01267  Uiso   1.00
C1257  C     0.22795   0.96494   0.18218   0.01267  Uiso   1.00
C1258  C     0.22390   0.97322   0.20145   0.01267  Uiso   1.00
C1259  C     0.26799   0.86389   0.16297   0.01267  Uiso   1.00
C1260  C     0.29961   0.88804   0.14404   0.01267  Uiso   1.00
C1261  C     0.29240   0.86360   0.15870   0.01267  Uiso   1.00
C1262  C     0.26152   0.84085   0.17681   0.01267  Uiso   1.00
C1263  C     0.27199   0.79230   0.20310   0.01267  Uiso   1.00
C1264  C     0.27927   0.81672   0.18675   0.01267  Uiso   1.00
C1265  C     0.31016   0.83943   0.16851   0.01267  Uiso   1.00
C1266  C     0.30374   0.81647   0.18222   0.01267  Uiso   1.00
C1267  C     0.32264   0.77212   0.28425   0.01267  Uiso   1.00
C1268  C     0.31363   0.76276   0.27520   0.01267  Uiso   1.00
C1269  C     0.24194   0.89950   0.32224   0.01267  Uiso   1.00
C1270  C     0.27304   0.85700   0.34166   0.01267  Uiso   1.00
C1271  C     0.24672   0.87369   0.33972   0.01267  Uiso   1.00
C1272  C     0.21750   0.91423   0.31889   0.01267  Uiso   1.00
C1273  C     0.33257   0.92138   0.07796   0.01267  Uiso   1.00
C1274  C     0.19747   0.90339   0.33299   0.01267  Uiso   1.00
C1275  C     0.22638   0.86331   0.35438   0.01267  Uiso   1.00
C1276  C     0.20213   0.87794   0.35111   0.01267  Uiso   1.00
O732   O     0.46103   0.61124   0.42559   0.01267  Uiso   1.00
O733   O     0.36883   0.77265   0.33327   0.01267  Uiso   1.00
O734   O     0.44352   0.66370   0.40801   0.01267  Uiso   1.00
O735   O     0.38370   0.81320   0.30637   0.01267  Uiso   1.00
O736   O     0.31969   0.84773   0.36082   0.01267  Uiso   1.00
O737   O     0.25626   0.95352   0.14341   0.01267  Uiso   1.00
O738   O     0.28098   0.97946   0.09285   0.01267  Uiso   1.00
O739   O     0.28390   0.90937   0.13396   0.01267  Uiso   1.00
O740   O     0.32149   0.88647   0.14205   0.01267  Uiso   1.00
O741   O     0.24927   0.79336   0.20797   0.01267  Uiso   1.00
O742   O     0.28867   0.77143   0.21218   0.01267  Uiso   1.00
O743   O     0.33926   0.79140   0.30379   0.01267  Uiso   1.00
O744   O     0.29346   0.74604   0.25801   0.01267  Uiso   1.00
O745   O     0.29016   0.86762   0.33112   0.01267  Uiso   1.00
O746   O     0.35332   0.83264   0.27746   0.01267  Uiso   1.00
O747   O     0.30855   0.93508   0.08410   0.01267  Uiso   1.00
O748   O     0.33907   0.90414   0.15737   0.01267  Uiso   1.00
H732   H     0.47622   0.57747   0.40729   0.01267  Uiso   1.00
H733   H     0.40917   0.73515   0.34037   0.01267  Uiso   1.00
H734   H     0.43529   0.69749   0.36649   0.01267  Uiso   1.00
H735   H     0.38695   0.86577   0.32174   0.01267  Uiso   1.00
H736   H     0.43236   0.79634   0.29999   0.01267  Uiso   1.00
H737   H     0.21061   0.95064   0.17176   0.01267  Uiso   1.00
H738   H     0.23842   0.97918   0.19950   0.01267  Uiso   1.00
H739   H     0.25374   0.88199   0.15579   0.01267  Uiso   1.00
H740   H     0.24241   0.84203   0.17998   0.01267  Uiso   1.00
H741   H     0.32917   0.83819   0.16567   0.01267  Uiso   1.00
H742   H     0.31797   0.79849   0.18961   0.01267  Uiso   1.00
H743   H     0.34107   0.77561   0.27242   0.01267  Uiso   1.00
H744   H     0.32549   0.75951   0.25665   0.01267  Uiso   1.00
H745   H     0.25730   0.90802   0.31059   0.01267  Uiso   1.00
H746   H     0.21452   0.93376   0.30483   0.01267  Uiso   1.00
H747   H     0.22928   0.84363   0.36814   0.01267  Uiso   1.00
H748   H     0.18711   0.86898   0.36260   0.01267  Uiso   1.00
Cr89   Cr    0.28384   0.65770   0.94423   0.01267  Uiso   1.00
Cr90   Cr    0.35963   0.53034   0.80348   0.01267  Uiso   1.00
C1277  C     0.46092   0.54723   0.56944   0.01267  Uiso   1.00
C1278  C     0.39955   0.51247   0.72696   0.01267  Uiso   1.00
C1279  C     0.41455   0.50403   0.70539   0.01267  Uiso   1.00
C1280  C     0.40521   0.42746   0.85054   0.01267  Uiso   1.00
C1281  C     0.38220   0.47489   0.83063   0.01267  Uiso   1.00
C1282  C     0.40641   0.45167   0.83104   0.01267  Uiso   1.00
C1283  C     0.43068   0.45304   0.81170   0.01267  Uiso   1.00
C1284  C     0.20837   0.64843   0.95726   0.01267  Uiso   1.00
C1285  C     0.25305   0.62501   0.96258   0.01267  Uiso   1.00
C1286  C     0.22795   0.62494   0.96494   0.01267  Uiso   1.00
C1287  C     0.22390   0.60143   0.97322   0.01267  Uiso   1.00
C1288  C     0.26799   0.70516   0.86389   0.01267  Uiso   1.00
C1289  C     0.29961   0.66831   0.88804   0.01267  Uiso   1.00
C1290  C     0.29240   0.68530   0.86360   0.01267  Uiso   1.00
C1291  C     0.26152   0.72083   0.84085   0.01267  Uiso   1.00
C1292  C     0.27199   0.73261   0.79230   0.01267  Uiso   1.00
C1293  C     0.27927   0.71726   0.81672   0.01267  Uiso   1.00
C1294  C     0.31016   0.68190   0.83943   0.01267  Uiso   1.00
C1295  C     0.30374   0.69757   0.81647   0.01267  Uiso   1.00
C1296  C     0.32264   0.62099   0.77212   0.01267  Uiso   1.00
C1297  C     0.31363   0.64841   0.76276   0.01267  Uiso   1.00
C1298  C     0.24194   0.53632   0.89950   0.01267  Uiso   1.00
C1299  C     0.27304   0.52830   0.85700   0.01267  Uiso   1.00
C1300  C     0.24672   0.53987   0.87369   0.01267  Uiso   1.00
C1301  C     0.21750   0.54938   0.91423   0.01267  Uiso   1.00
C1302  C     0.33257   0.66808   0.92138   0.01267  Uiso   1.00
C1303  C     0.19747   0.56615   0.90339   0.01267  Uiso   1.00
C1304  C     0.22638   0.55592   0.86331   0.01267  Uiso   1.00
C1305  C     0.20213   0.56881   0.87794   0.01267  Uiso   1.00
O749   O     0.46103   0.50214   0.61124   0.01267  Uiso   1.00
O750   O     0.36883   0.52525   0.77265   0.01267  Uiso   1.00
O751   O     0.44352   0.48477   0.66370   0.01267  Uiso   1.00
O752   O     0.38370   0.49673   0.81320   0.01267  Uiso   1.00
O753   O     0.31969   0.47176   0.84773   0.01267  Uiso   1.00
O754   O     0.25626   0.64681   0.95352   0.01267  Uiso   1.00
O755   O     0.28098   0.64670   0.97946   0.01267  Uiso   1.00
O756   O     0.28390   0.67277   0.90937   0.01267  Uiso   1.00
O757   O     0.32149   0.65000   0.88647   0.01267  Uiso   1.00
O758   O     0.24927   0.74940   0.79336   0.01267  Uiso   1.00
O759   O     0.28867   0.72771   0.77143   0.01267  Uiso   1.00
O760   O     0.33926   0.56556   0.79140   0.01267  Uiso   1.00
O761   O     0.29346   0.70249   0.74604   0.01267  Uiso   1.00
O762   O     0.29016   0.51111   0.86762   0.01267  Uiso   1.00
O763   O     0.35332   0.53657   0.83264   0.01267  Uiso   1.00
O764   O     0.30855   0.67227   0.93508   0.01267  Uiso   1.00
O765   O     0.33907   0.59943   0.90414   0.01267  Uiso   1.00
H749   H     0.47622   0.53902   0.57747   0.01267  Uiso   1.00
H750   H     0.40917   0.51532   0.73515   0.01267  Uiso   1.00
H751   H     0.43529   0.50073   0.69749   0.01267  Uiso   1.00
H752   H     0.38695   0.42554   0.86577   0.01267  Uiso   1.00
H753   H     0.43236   0.47131   0.79634   0.01267  Uiso   1.00
H754   H     0.21061   0.66698   0.95064   0.01267  Uiso   1.00
H755   H     0.23842   0.58290   0.97918   0.01267  Uiso   1.00
H756   H     0.25374   0.70849   0.88199   0.01267  Uiso   1.00
H757   H     0.24241   0.73557   0.84203   0.01267  Uiso   1.00
H758   H     0.32917   0.66698   0.83819   0.01267  Uiso   1.00
H759   H     0.31797   0.69394   0.79849   0.01267  Uiso   1.00
H760   H     0.34107   0.61090   0.77561   0.01267  Uiso   1.00
H761   H     0.32549   0.65835   0.75951   0.01267  Uiso   1.00
H762   H     0.25730   0.52408   0.90802   0.01267  Uiso   1.00
H763   H     0.21452   0.54690   0.93376   0.01267  Uiso   1.00
H764   H     0.22928   0.55895   0.84363   0.01267  Uiso   1.00
H765   H     0.18711   0.58131   0.86898   0.01267  Uiso   1.00
Cr91   Cr    0.11423   0.94423   0.65770   0.01267  Uiso   1.00
Cr92   Cr    0.30656   0.80348   0.53034   0.01267  Uiso   1.00
C1306  C     0.42240   0.56944   0.54723   0.01267  Uiso   1.00
C1307  C     0.36102   0.72696   0.51247   0.01267  Uiso   1.00
C1308  C     0.37603   0.70539   0.50403   0.01267  Uiso   1.00
C1309  C     0.31679   0.85054   0.42746   0.01267  Uiso   1.00
C1310  C     0.31227   0.83063   0.47489   0.01267  Uiso   1.00
C1311  C     0.31089   0.83104   0.45167   0.01267  Uiso   1.00
C1312  C     0.30458   0.81170   0.45304   0.01267  Uiso   1.00
C1313  C     0.18594   0.95726   0.64843   0.01267  Uiso   1.00
C1314  C     0.15936   0.96258   0.62501   0.01267  Uiso   1.00
C1315  C     0.18218   0.96494   0.62494   0.01267  Uiso   1.00
C1316  C     0.20145   0.97322   0.60143   0.01267  Uiso   1.00
C1317  C     0.16297   0.86389   0.70516   0.01267  Uiso   1.00
C1318  C     0.14404   0.88804   0.66831   0.01267  Uiso   1.00
C1319  C     0.15870   0.86360   0.68530   0.01267  Uiso   1.00
C1320  C     0.17681   0.84085   0.72083   0.01267  Uiso   1.00
C1321  C     0.20310   0.79230   0.73261   0.01267  Uiso   1.00
C1322  C     0.18675   0.81672   0.71726   0.01267  Uiso   1.00
C1323  C     0.16851   0.83943   0.68190   0.01267  Uiso   1.00
C1324  C     0.18222   0.81647   0.69757   0.01267  Uiso   1.00
C1325  C     0.28425   0.77212   0.62099   0.01267  Uiso   1.00
C1326  C     0.27520   0.76276   0.64841   0.01267  Uiso   1.00
C1327  C     0.32224   0.89950   0.53632   0.01267  Uiso   1.00
C1328  C     0.34166   0.85700   0.52830   0.01267  Uiso   1.00
C1329  C     0.33972   0.87369   0.53987   0.01267  Uiso   1.00
C1330  C     0.31889   0.91423   0.54938   0.01267  Uiso   1.00
C1331  C     0.07796   0.92138   0.66808   0.01267  Uiso   1.00
C1332  C     0.33299   0.90339   0.56615   0.01267  Uiso   1.00
C1333  C     0.35438   0.86331   0.55592   0.01267  Uiso   1.00
C1334  C     0.35111   0.87794   0.56881   0.01267  Uiso   1.00
O766   O     0.42559   0.61124   0.50214   0.01267  Uiso   1.00
O767   O     0.33327   0.77265   0.52525   0.01267  Uiso   1.00
O768   O     0.40801   0.66370   0.48477   0.01267  Uiso   1.00
O769   O     0.30637   0.81320   0.49673   0.01267  Uiso   1.00
O770   O     0.36082   0.84773   0.47176   0.01267  Uiso   1.00
O771   O     0.14341   0.95352   0.64681   0.01267  Uiso   1.00
O772   O     0.09285   0.97946   0.64670   0.01267  Uiso   1.00
O773   O     0.13396   0.90937   0.67277   0.01267  Uiso   1.00
O774   O     0.14205   0.88647   0.65000   0.01267  Uiso   1.00
O775   O     0.20797   0.79336   0.74940   0.01267  Uiso   1.00
O776   O     0.21218   0.77143   0.72771   0.01267  Uiso   1.00
O777   O     0.30379   0.79140   0.56556   0.01267  Uiso   1.00
O778   O     0.25801   0.74604   0.70249   0.01267  Uiso   1.00
O779   O     0.33112   0.86762   0.51111   0.01267  Uiso   1.00
O780   O     0.27746   0.83264   0.53657   0.01267  Uiso   1.00
O781   O     0.08410   0.93508   0.67227   0.01267  Uiso   1.00
O782   O     0.15737   0.90414   0.59943   0.01267  Uiso   1.00
H766   H     0.40729   0.57747   0.53902   0.01267  Uiso   1.00
H767   H     0.34037   0.73515   0.51532   0.01267  Uiso   1.00
H768   H     0.36649   0.69749   0.50073   0.01267  Uiso   1.00
H769   H     0.32174   0.86577   0.42554   0.01267  Uiso   1.00
H770   H     0.29999   0.79634   0.47131   0.01267  Uiso   1.00
H771   H     0.17176   0.95064   0.66698   0.01267  Uiso   1.00
H772   H     0.19950   0.97918   0.58290   0.01267  Uiso   1.00
H773   H     0.15579   0.88199   0.70849   0.01267  Uiso   1.00
H774   H     0.17998   0.84203   0.73557   0.01267  Uiso   1.00
H775   H     0.16567   0.83819   0.66698   0.01267  Uiso   1.00
H776   H     0.18961   0.79849   0.69394   0.01267  Uiso   1.00
H777   H     0.27242   0.77561   0.61090   0.01267  Uiso   1.00
H778   H     0.25665   0.75951   0.65835   0.01267  Uiso   1.00
H779   H     0.31059   0.90802   0.52408   0.01267  Uiso   1.00
H780   H     0.30483   0.93376   0.54690   0.01267  Uiso   1.00
H781   H     0.36814   0.84363   0.55895   0.01267  Uiso   1.00
H782   H     0.36260   0.86898   0.58131   0.01267  Uiso   1.00
Cr93   Cr    0.94423   0.11423   0.28384   0.01267  Uiso   1.00
Cr94   Cr    0.80348   0.30656   0.35963   0.01267  Uiso   1.00
C1335  C     0.56944   0.42240   0.46092   0.01267  Uiso   1.00
C1336  C     0.72696   0.36102   0.39955   0.01267  Uiso   1.00
C1337  C     0.70539   0.37603   0.41455   0.01267  Uiso   1.00
C1338  C     0.85054   0.31679   0.40521   0.01267  Uiso   1.00
C1339  C     0.83063   0.31227   0.38220   0.01267  Uiso   1.00
C1340  C     0.83104   0.31089   0.40641   0.01267  Uiso   1.00
C1341  C     0.81170   0.30458   0.43068   0.01267  Uiso   1.00
C1342  C     0.95726   0.18594   0.20837   0.01267  Uiso   1.00
C1343  C     0.96258   0.15936   0.25305   0.01267  Uiso   1.00
C1344  C     0.96494   0.18218   0.22795   0.01267  Uiso   1.00
C1345  C     0.97322   0.20145   0.22390   0.01267  Uiso   1.00
C1346  C     0.86389   0.16297   0.26799   0.01267  Uiso   1.00
C1347  C     0.88804   0.14404   0.29961   0.01267  Uiso   1.00
C1348  C     0.86360   0.15870   0.29240   0.01267  Uiso   1.00
C1349  C     0.84085   0.17681   0.26152   0.01267  Uiso   1.00
C1350  C     0.79230   0.20310   0.27199   0.01267  Uiso   1.00
C1351  C     0.81672   0.18675   0.27927   0.01267  Uiso   1.00
C1352  C     0.83943   0.16851   0.31016   0.01267  Uiso   1.00
C1353  C     0.81647   0.18222   0.30374   0.01267  Uiso   1.00
C1354  C     0.77212   0.28425   0.32264   0.01267  Uiso   1.00
C1355  C     0.76276   0.27520   0.31363   0.01267  Uiso   1.00
C1356  C     0.89950   0.32224   0.24194   0.01267  Uiso   1.00
C1357  C     0.85700   0.34166   0.27304   0.01267  Uiso   1.00
C1358  C     0.87369   0.33972   0.24672   0.01267  Uiso   1.00
C1359  C     0.91423   0.31889   0.21750   0.01267  Uiso   1.00
C1360  C     0.92138   0.07796   0.33257   0.01267  Uiso   1.00
C1361  C     0.90339   0.33299   0.19747   0.01267  Uiso   1.00
C1362  C     0.86331   0.35438   0.22638   0.01267  Uiso   1.00
C1363  C     0.87794   0.35111   0.20213   0.01267  Uiso   1.00
O783   O     0.61124   0.42559   0.46103   0.01267  Uiso   1.00
O784   O     0.77265   0.33327   0.36883   0.01267  Uiso   1.00
O785   O     0.66370   0.40801   0.44352   0.01267  Uiso   1.00
O786   O     0.81320   0.30637   0.38370   0.01267  Uiso   1.00
O787   O     0.84773   0.36082   0.31969   0.01267  Uiso   1.00
O788   O     0.95352   0.14341   0.25626   0.01267  Uiso   1.00
O789   O     0.97946   0.09285   0.28098   0.01267  Uiso   1.00
O790   O     0.90937   0.13396   0.28390   0.01267  Uiso   1.00
O791   O     0.88647   0.14205   0.32149   0.01267  Uiso   1.00
O792   O     0.79336   0.20797   0.24927   0.01267  Uiso   1.00
O793   O     0.77143   0.21218   0.28867   0.01267  Uiso   1.00
O794   O     0.79140   0.30379   0.33926   0.01267  Uiso   1.00
O795   O     0.74604   0.25801   0.29346   0.01267  Uiso   1.00
O796   O     0.86762   0.33112   0.29016   0.01267  Uiso   1.00
O797   O     0.83264   0.27746   0.35332   0.01267  Uiso   1.00
O798   O     0.93508   0.08410   0.30855   0.01267  Uiso   1.00
O799   O     0.90414   0.15737   0.33907   0.01267  Uiso   1.00
H783   H     0.57747   0.40729   0.47622   0.01267  Uiso   1.00
H784   H     0.73515   0.34037   0.40917   0.01267  Uiso   1.00
H785   H     0.69749   0.36649   0.43529   0.01267  Uiso   1.00
H786   H     0.86577   0.32174   0.38695   0.01267  Uiso   1.00
H787   H     0.79634   0.29999   0.43236   0.01267  Uiso   1.00
H788   H     0.95064   0.17176   0.21061   0.01267  Uiso   1.00
H789   H     0.97918   0.19950   0.23842   0.01267  Uiso   1.00
H790   H     0.88199   0.15579   0.25374   0.01267  Uiso   1.00
H791   H     0.84203   0.17998   0.24241   0.01267  Uiso   1.00
H792   H     0.83819   0.16567   0.32917   0.01267  Uiso   1.00
H793   H     0.79849   0.18961   0.31797   0.01267  Uiso   1.00
H794   H     0.77561   0.27242   0.34107   0.01267  Uiso   1.00
H795   H     0.75951   0.25665   0.32549   0.01267  Uiso   1.00
H796   H     0.90802   0.31059   0.25730   0.01267  Uiso   1.00
H797   H     0.93376   0.30483   0.21452   0.01267  Uiso   1.00
H798   H     0.84363   0.36814   0.22928   0.01267  Uiso   1.00
H799   H     0.86898   0.36260   0.18711   0.01267  Uiso   1.00
Cr95   Cr    0.65770   0.28384   0.11423   0.01267  Uiso   1.00
Cr96   Cr    0.53034   0.35963   0.30656   0.01267  Uiso   1.00
C1364  C     0.54723   0.46092   0.42240   0.01267  Uiso   1.00
C1365  C     0.51247   0.39955   0.36102   0.01267  Uiso   1.00
C1366  C     0.50403   0.41455   0.37603   0.01267  Uiso   1.00
C1367  C     0.42746   0.40521   0.31679   0.01267  Uiso   1.00
C1368  C     0.47489   0.38220   0.31227   0.01267  Uiso   1.00
C1369  C     0.45167   0.40641   0.31089   0.01267  Uiso   1.00
C1370  C     0.45304   0.43068   0.30458   0.01267  Uiso   1.00
C1371  C     0.64843   0.20837   0.18594   0.01267  Uiso   1.00
C1372  C     0.62501   0.25305   0.15936   0.01267  Uiso   1.00
C1373  C     0.62494   0.22795   0.18218   0.01267  Uiso   1.00
C1374  C     0.60143   0.22390   0.20145   0.01267  Uiso   1.00
C1375  C     0.70516   0.26799   0.16297   0.01267  Uiso   1.00
C1376  C     0.66831   0.29961   0.14404   0.01267  Uiso   1.00
C1377  C     0.68530   0.29240   0.15870   0.01267  Uiso   1.00
C1378  C     0.72083   0.26152   0.17681   0.01267  Uiso   1.00
C1379  C     0.73261   0.27199   0.20310   0.01267  Uiso   1.00
C1380  C     0.71726   0.27927   0.18675   0.01267  Uiso   1.00
C1381  C     0.68190   0.31016   0.16851   0.01267  Uiso   1.00
C1382  C     0.69757   0.30374   0.18222   0.01267  Uiso   1.00
C1383  C     0.62099   0.32264   0.28425   0.01267  Uiso   1.00
C1384  C     0.64841   0.31363   0.27520   0.01267  Uiso   1.00
C1385  C     0.53632   0.24194   0.32224   0.01267  Uiso   1.00
C1386  C     0.52830   0.27304   0.34166   0.01267  Uiso   1.00
C1387  C     0.53987   0.24672   0.33972   0.01267  Uiso   1.00
C1388  C     0.54938   0.21750   0.31889   0.01267  Uiso   1.00
C1389  C     0.66808   0.33257   0.07796   0.01267  Uiso   1.00
C1390  C     0.56615   0.19747   0.33299   0.01267  Uiso   1.00
C1391  C     0.55592   0.22638   0.35438   0.01267  Uiso   1.00
C1392  C     0.56881   0.20213   0.35111   0.01267  Uiso   1.00
O800   O     0.50214   0.46103   0.42559   0.01267  Uiso   1.00
O801   O     0.52525   0.36883   0.33327   0.01267  Uiso   1.00
O802   O     0.48477   0.44352   0.40801   0.01267  Uiso   1.00
O803   O     0.49673   0.38370   0.30637   0.01267  Uiso   1.00
O804   O     0.47176   0.31969   0.36082   0.01267  Uiso   1.00
O805   O     0.64681   0.25626   0.14341   0.01267  Uiso   1.00
O806   O     0.64670   0.28098   0.09285   0.01267  Uiso   1.00
O807   O     0.67277   0.28390   0.13396   0.01267  Uiso   1.00
O808   O     0.65000   0.32149   0.14205   0.01267  Uiso   1.00
O809   O     0.74940   0.24927   0.20797   0.01267  Uiso   1.00
O810   O     0.72771   0.28867   0.21218   0.01267  Uiso   1.00
O811   O     0.56556   0.33926   0.30379   0.01267  Uiso   1.00
O812   O     0.70249   0.29346   0.25801   0.01267  Uiso   1.00
O813   O     0.51111   0.29016   0.33112   0.01267  Uiso   1.00
O814   O     0.53657   0.35332   0.27746   0.01267  Uiso   1.00
O815   O     0.67227   0.30855   0.08410   0.01267  Uiso   1.00
O816   O     0.59943   0.33907   0.15737   0.01267  Uiso   1.00
H800   H     0.53902   0.47622   0.40729   0.01267  Uiso   1.00
H801   H     0.51532   0.40917   0.34037   0.01267  Uiso   1.00
H802   H     0.50073   0.43529   0.36649   0.01267  Uiso   1.00
H803   H     0.42554   0.38695   0.32174   0.01267  Uiso   1.00
H804   H     0.47131   0.43236   0.29999   0.01267  Uiso   1.00
H805   H     0.66698   0.21061   0.17176   0.01267  Uiso   1.00
H806   H     0.58290   0.23842   0.19950   0.01267  Uiso   1.00
H807   H     0.70849   0.25374   0.15579   0.01267  Uiso   1.00
H808   H     0.73557   0.24241   0.17998   0.01267  Uiso   1.00
H809   H     0.66698   0.32917   0.16567   0.01267  Uiso   1.00
H810   H     0.69394   0.31797   0.18961   0.01267  Uiso   1.00
H811   H     0.61090   0.34107   0.27242   0.01267  Uiso   1.00
H812   H     0.65835   0.32549   0.25665   0.01267  Uiso   1.00
H813   H     0.52408   0.25730   0.31059   0.01267  Uiso   1.00
H814   H     0.54690   0.21452   0.30483   0.01267  Uiso   1.00
H815   H     0.55895   0.22928   0.36814   0.01267  Uiso   1.00
H816   H     0.58131   0.18711   0.36260   0.01267  Uiso   1.00
Cr97   Cr    0.41880   0.47185   0.47185   0.01267  Uiso   1.00
Cr98   Cr    0.47185   0.41880   0.63750   0.01267  Uiso   1.00
Cr99   Cr    0.47185   0.63750   0.41880   0.01267  Uiso   1.00
Cr100  Cr    0.63750   0.47185   0.47185   0.01267  Uiso   1.00
Cr101  Cr    0.47185   0.41880   0.47185   0.01267  Uiso   1.00
Cr102  Cr    0.63750   0.47185   0.41880   0.01267  Uiso   1.00
Cr103  Cr    0.41880   0.47185   0.63750   0.01267  Uiso   1.00
Cr104  Cr    0.47185   0.63750   0.47185   0.01267  Uiso   1.00
Cr105  Cr    0.47185   0.47185   0.41880   0.01267  Uiso   1.00
Cr106  Cr    0.41880   0.63750   0.47185   0.01267  Uiso   1.00
Cr107  Cr    0.63750   0.41880   0.47185   0.01267  Uiso   1.00
Cr108  Cr    0.47185   0.47185   0.63750   0.01267  Uiso   1.00
Cr109  Cr    0.83120   0.77815   0.61250   0.01267  Uiso   1.00
Cr110  Cr    0.77815   0.83120   0.77815   0.01267  Uiso   1.00
Cr111  Cr    0.77815   0.61250   0.77815   0.01267  Uiso   1.00
Cr112  Cr    0.61250   0.77815   0.83120   0.01267  Uiso   1.00
Cr113  Cr    0.77815   0.83120   0.61250   0.01267  Uiso   1.00
Cr114  Cr    0.61250   0.77815   0.77815   0.01267  Uiso   1.00
Cr115  Cr    0.83120   0.77815   0.77815   0.01267  Uiso   1.00
Cr116  Cr    0.77815   0.61250   0.83120   0.01267  Uiso   1.00
Cr117  Cr    0.77815   0.77815   0.61250   0.01267  Uiso   1.00
Cr118  Cr    0.83120   0.61250   0.77815   0.01267  Uiso   1.00
Cr119  Cr    0.61250   0.83120   0.77815   0.01267  Uiso   1.00
Cr120  Cr    0.77815   0.77815   0.83120   0.01267  Uiso   1.00
Cr121  Cr    0.12500   0.34065   0.62500   0.01267  Uiso   1.00
O817   O     0.12500   0.31008   0.62500   0.01267  Uiso   1.00
Cr122  Cr    0.34065   0.12500   0.90935   0.01267  Uiso   1.00
O818   O     0.31008   0.12500   0.93992   0.01267  Uiso   1.00
Cr123  Cr    0.62500   0.90935   0.12500   0.01267  Uiso   1.00
O819   O     0.62500   0.93992   0.12500   0.01267  Uiso   1.00
Cr124  Cr    0.90935   0.62500   0.34065   0.01267  Uiso   1.00
O820   O     0.93992   0.62500   0.31008   0.01267  Uiso   1.00
Cr125  Cr    0.62500   0.12500   0.34065   0.01267  Uiso   1.00
O821   O     0.62500   0.12500   0.31008   0.01267  Uiso   1.00
Cr126  Cr    0.90935   0.34065   0.12500   0.01267  Uiso   1.00
O822   O     0.93992   0.31008   0.12500   0.01267  Uiso   1.00
Cr127  Cr    0.12500   0.62500   0.90935   0.01267  Uiso   1.00
O823   O     0.12500   0.62500   0.93992   0.01267  Uiso   1.00
Cr128  Cr    0.34065   0.90935   0.62500   0.01267  Uiso   1.00
O824   O     0.31008   0.93992   0.62500   0.01267  Uiso   1.00
Cr129  Cr    0.34065   0.62500   0.12500   0.01267  Uiso   1.00
O825   O     0.31008   0.62500   0.12500   0.01267  Uiso   1.00
Cr130  Cr    0.12500   0.90935   0.34065   0.01267  Uiso   1.00
O826   O     0.12500   0.93992   0.31008   0.01267  Uiso   1.00
Cr131  Cr    0.90935   0.12500   0.62500   0.01267  Uiso   1.00
O827   O     0.93992   0.12500   0.62500   0.01267  Uiso   1.00
Cr132  Cr    0.62500   0.34065   0.90935   0.01267  Uiso   1.00
O828   O     0.62500   0.31008   0.93992   0.01267  Uiso   1.00
Cr133  Cr    0.12500   0.90935   0.62500   0.01267  Uiso   1.00
O829   O     0.12500   0.93992   0.62500   0.01267  Uiso   1.00
Cr134  Cr    0.90935   0.12500   0.34065   0.01267  Uiso   1.00
O830   O     0.93992   0.12500   0.31008   0.01267  Uiso   1.00
Cr135  Cr    0.62500   0.34065   0.12500   0.01267  Uiso   1.00
O831   O     0.62500   0.31008   0.12500   0.01267  Uiso   1.00
Cr136  Cr    0.34065   0.62500   0.90935   0.01267  Uiso   1.00
O832   O     0.31008   0.62500   0.93992   0.01267  Uiso   1.00
Cr137  Cr    0.62500   0.12500   0.90935   0.01267  Uiso   1.00
O833   O     0.62500   0.12500   0.93992   0.01267  Uiso   1.00
Cr138  Cr    0.34065   0.90935   0.12500   0.01267  Uiso   1.00
O834   O     0.31008   0.93992   0.12500   0.01267  Uiso   1.00
Cr139  Cr    0.12500   0.62500   0.34065   0.01267  Uiso   1.00
O835   O     0.12500   0.62500   0.31008   0.01267  Uiso   1.00
Cr140  Cr    0.90935   0.34065   0.62500   0.01267  Uiso   1.00
O836   O     0.93992   0.31008   0.62500   0.01267  Uiso   1.00
Cr141  Cr    0.90935   0.62500   0.12500   0.01267  Uiso   1.00
O837   O     0.93992   0.62500   0.12500   0.01267  Uiso   1.00
Cr142  Cr    0.12500   0.34065   0.90935   0.01267  Uiso   1.00
O838   O     0.12500   0.31008   0.93992   0.01267  Uiso   1.00
Cr143  Cr    0.34065   0.12500   0.62500   0.01267  Uiso   1.00
O839   O     0.31008   0.12500   0.62500   0.01267  Uiso   1.00
Cr144  Cr    0.62500   0.90935   0.34065   0.01267  Uiso   1.00
O840   O     0.62500   0.93992   0.31008   0.01267  Uiso   1.00
Cr145  Cr    0.22983   0.22983   0.77017   0.01267  Uiso   1.00
O841   O     0.25157   0.25157   0.74843   0.01267  Uiso   1.00
Cr146  Cr    0.77017   0.77017   0.22983   0.01267  Uiso   1.00
O842   O     0.74843   0.74843   0.25157   0.01267  Uiso   1.00
Cr147  Cr    0.77017   0.22983   0.22983   0.01267  Uiso   1.00
O843   O     0.74843   0.25157   0.25157   0.01267  Uiso   1.00
Cr148  Cr    0.22983   0.77017   0.77017   0.01267  Uiso   1.00
O844   O     0.25157   0.74843   0.74843   0.01267  Uiso   1.00
Cr149  Cr    0.22983   0.77017   0.22983   0.01267  Uiso   1.00
O845   O     0.25157   0.74843   0.25157   0.01267  Uiso   1.00
Cr150  Cr    0.77017   0.22983   0.77017   0.01267  Uiso   1.00
O846   O     0.74843   0.25157   0.74843   0.01267  Uiso   1.00
Cr151  Cr    0.02017   0.02017   0.47983   0.01267  Uiso   1.00
O847   O     0.99843   0.99843   0.50157   0.01267  Uiso   1.00
Cr152  Cr    0.47983   0.47983   0.02017   0.01267  Uiso   1.00
O848   O     0.50157   0.50157   0.99843   0.01267  Uiso   1.00
Cr153  Cr    0.47983   0.02017   0.47983   0.01267  Uiso   1.00
O849   O     0.50157   0.99843   0.50157   0.01267  Uiso   1.00
Cr154  Cr    0.02017   0.47983   0.02017   0.01267  Uiso   1.00
O850   O     0.99843   0.50157   0.99843   0.01267  Uiso   1.00
Cr155  Cr    0.02017   0.47983   0.47983   0.01267  Uiso   1.00
O851   O     0.99843   0.50157   0.50157   0.01267  Uiso   1.00
Cr156  Cr    0.47983   0.02017   0.02017   0.01267  Uiso   1.00
O852   O     0.50157   0.99843   0.99843   0.01267  Uiso   1.00
Cr157  Cr    0.23592   0.28896   0.73756   0.01267  Uiso   1.00
Cr158  Cr    0.28896   0.23592   0.73756   0.01267  Uiso   1.00
Cr159  Cr    0.73756   0.73756   0.23592   0.01267  Uiso   1.00
Cr160  Cr    0.73756   0.73756   0.28896   0.01267  Uiso   1.00
Cr161  Cr    0.73756   0.23592   0.28896   0.01267  Uiso   1.00
Cr162  Cr    0.73756   0.28896   0.23592   0.01267  Uiso   1.00
Cr163  Cr    0.23592   0.73756   0.73756   0.01267  Uiso   1.00
Cr164  Cr    0.28896   0.73756   0.73756   0.01267  Uiso   1.00
Cr165  Cr    0.28896   0.73756   0.23592   0.01267  Uiso   1.00
Cr166  Cr    0.23592   0.73756   0.28896   0.01267  Uiso   1.00
Cr167  Cr    0.73756   0.23592   0.73756   0.01267  Uiso   1.00
Cr168  Cr    0.73756   0.28896   0.73756   0.01267  Uiso   1.00
Cr169  Cr    0.01408   0.96104   0.51244   0.01267  Uiso   1.00
Cr170  Cr    0.96104   0.01408   0.51244   0.01267  Uiso   1.00
Cr171  Cr    0.51244   0.51244   0.96104   0.01267  Uiso   1.00
Cr172  Cr    0.51244   0.51244   0.01408   0.01267  Uiso   1.00
Cr173  Cr    0.51244   0.01408   0.51244   0.01267  Uiso   1.00
Cr174  Cr    0.51244   0.96104   0.51244   0.01267  Uiso   1.00
Cr175  Cr    0.01408   0.51244   0.96104   0.01267  Uiso   1.00
Cr176  Cr    0.96104   0.51244   0.01408   0.01267  Uiso   1.00
Cr177  Cr    0.96104   0.51244   0.51244   0.01267  Uiso   1.00
Cr178  Cr    0.01408   0.51244   0.51244   0.01267  Uiso   1.00
Cr179  Cr    0.51244   0.01408   0.96104   0.01267  Uiso   1.00
Cr180  Cr    0.51244   0.96104   0.01408   0.01267  Uiso   1.00
Cr181  Cr    0.32574   0.32574   0.49285   0.01267  Uiso   1.00
C1393  C     0.35723   0.35723   0.52298   0.01267  Uiso   1.00
C1394  C     0.37266   0.37266   0.51646   0.01267  Uiso   1.00
C1395  C     0.41918   0.41918   0.48908   0.01267  Uiso   1.00
C1396  C     0.40303   0.40303   0.49938   0.01267  Uiso   1.00
C1397  C     0.31762   0.31762   0.57750   0.01267  Uiso   1.00
C1398  C     0.30807   0.30807   0.60680   0.01267  Uiso   1.00
C1399  C     0.28000   0.28000   0.69049   0.01267  Uiso   1.00
C1400  C     0.28965   0.28965   0.66272   0.01267  Uiso   1.00
O853   O     0.33063   0.33063   0.51787   0.01267  Uiso   1.00
Cr182  Cr    0.32574   0.32574   0.85566   0.01267  Uiso   1.00
C1401  C     0.35723   0.35723   0.76256   0.01267  Uiso   1.00
C1402  C     0.37266   0.37266   0.73822   0.01267  Uiso   1.00
C1403  C     0.41918   0.41918   0.67257   0.01267  Uiso   1.00
C1404  C     0.40303   0.40303   0.69455   0.01267  Uiso   1.00
C1405  C     0.31762   0.31762   0.78725   0.01267  Uiso   1.00
C1406  C     0.30807   0.30807   0.77705   0.01267  Uiso   1.00
C1407  C     0.28000   0.28000   0.74951   0.01267  Uiso   1.00
C1408  C     0.28965   0.28965   0.75798   0.01267  Uiso   1.00
O854   O     0.33063   0.33063   0.82086   0.01267  Uiso   1.00
Cr183  Cr    0.49285   0.85566   0.32574   0.01267  Uiso   1.00
C1409  C     0.52298   0.76256   0.35723   0.01267  Uiso   1.00
C1410  C     0.51646   0.73822   0.37266   0.01267  Uiso   1.00
C1411  C     0.48908   0.67257   0.41918   0.01267  Uiso   1.00
C1412  C     0.49938   0.69455   0.40303   0.01267  Uiso   1.00
C1413  C     0.57750   0.78725   0.31762   0.01267  Uiso   1.00
C1414  C     0.60680   0.77705   0.30807   0.01267  Uiso   1.00
C1415  C     0.69049   0.74951   0.28000   0.01267  Uiso   1.00
C1416  C     0.66272   0.75798   0.28965   0.01267  Uiso   1.00
O855   O     0.51787   0.82086   0.33063   0.01267  Uiso   1.00
Cr184  Cr    0.85566   0.49285   0.32574   0.01267  Uiso   1.00
C1417  C     0.76256   0.52298   0.35723   0.01267  Uiso   1.00
C1418  C     0.73822   0.51646   0.37266   0.01267  Uiso   1.00
C1419  C     0.67257   0.48908   0.41918   0.01267  Uiso   1.00
C1420  C     0.69455   0.49938   0.40303   0.01267  Uiso   1.00
C1421  C     0.78725   0.57750   0.31762   0.01267  Uiso   1.00
C1422  C     0.77705   0.60680   0.30807   0.01267  Uiso   1.00
C1423  C     0.74951   0.69049   0.28000   0.01267  Uiso   1.00
C1424  C     0.75798   0.66272   0.28965   0.01267  Uiso   1.00
O856   O     0.82086   0.51787   0.33063   0.01267  Uiso   1.00
Cr185  Cr    0.49285   0.32574   0.32574   0.01267  Uiso   1.00
C1425  C     0.52298   0.35723   0.35723   0.01267  Uiso   1.00
C1426  C     0.51646   0.37266   0.37266   0.01267  Uiso   1.00
C1427  C     0.48908   0.41918   0.41918   0.01267  Uiso   1.00
C1428  C     0.49938   0.40303   0.40303   0.01267  Uiso   1.00
C1429  C     0.57750   0.31762   0.31762   0.01267  Uiso   1.00
C1430  C     0.60680   0.30807   0.30807   0.01267  Uiso   1.00
C1431  C     0.69049   0.28000   0.28000   0.01267  Uiso   1.00
C1432  C     0.66272   0.28965   0.28965   0.01267  Uiso   1.00
O857   O     0.51787   0.33063   0.33063   0.01267  Uiso   1.00
Cr186  Cr    0.85566   0.32574   0.32574   0.01267  Uiso   1.00
C1433  C     0.76256   0.35723   0.35723   0.01267  Uiso   1.00
C1434  C     0.73822   0.37266   0.37266   0.01267  Uiso   1.00
C1435  C     0.67257   0.41918   0.41918   0.01267  Uiso   1.00
C1436  C     0.69455   0.40303   0.40303   0.01267  Uiso   1.00
C1437  C     0.78725   0.31762   0.31762   0.01267  Uiso   1.00
C1438  C     0.77705   0.30807   0.30807   0.01267  Uiso   1.00
C1439  C     0.74951   0.28000   0.28000   0.01267  Uiso   1.00
C1440  C     0.75798   0.28965   0.28965   0.01267  Uiso   1.00
O858   O     0.82086   0.33063   0.33063   0.01267  Uiso   1.00
Cr187  Cr    0.32574   0.49285   0.85566   0.01267  Uiso   1.00
C1441  C     0.35723   0.52298   0.76256   0.01267  Uiso   1.00
C1442  C     0.37266   0.51646   0.73822   0.01267  Uiso   1.00
C1443  C     0.41918   0.48908   0.67257   0.01267  Uiso   1.00
C1444  C     0.40303   0.49938   0.69455   0.01267  Uiso   1.00
C1445  C     0.31762   0.57750   0.78725   0.01267  Uiso   1.00
C1446  C     0.30807   0.60680   0.77705   0.01267  Uiso   1.00
C1447  C     0.28000   0.69049   0.74951   0.01267  Uiso   1.00
C1448  C     0.28965   0.66272   0.75798   0.01267  Uiso   1.00
O859   O     0.33063   0.51787   0.82086   0.01267  Uiso   1.00
Cr188  Cr    0.32574   0.85566   0.49285   0.01267  Uiso   1.00
C1449  C     0.35723   0.76256   0.52298   0.01267  Uiso   1.00
C1450  C     0.37266   0.73822   0.51646   0.01267  Uiso   1.00
C1451  C     0.41918   0.67257   0.48908   0.01267  Uiso   1.00
C1452  C     0.40303   0.69455   0.49938   0.01267  Uiso   1.00
C1453  C     0.31762   0.78725   0.57750   0.01267  Uiso   1.00
C1454  C     0.30807   0.77705   0.60680   0.01267  Uiso   1.00
C1455  C     0.28000   0.74951   0.69049   0.01267  Uiso   1.00
C1456  C     0.28965   0.75798   0.66272   0.01267  Uiso   1.00
O860   O     0.33063   0.82086   0.51787   0.01267  Uiso   1.00
Cr189  Cr    0.32574   0.49285   0.32574   0.01267  Uiso   1.00
C1457  C     0.35723   0.52298   0.35723   0.01267  Uiso   1.00
C1458  C     0.37266   0.51646   0.37266   0.01267  Uiso   1.00
C1459  C     0.41918   0.48908   0.41918   0.01267  Uiso   1.00
C1460  C     0.40303   0.49938   0.40303   0.01267  Uiso   1.00
C1461  C     0.31762   0.57750   0.31762   0.01267  Uiso   1.00
C1462  C     0.30807   0.60680   0.30807   0.01267  Uiso   1.00
C1463  C     0.28000   0.69049   0.28000   0.01267  Uiso   1.00
C1464  C     0.28965   0.66272   0.28965   0.01267  Uiso   1.00
O861   O     0.33063   0.51787   0.33063   0.01267  Uiso   1.00
Cr190  Cr    0.32574   0.85566   0.32574   0.01267  Uiso   1.00
C1465  C     0.35723   0.76256   0.35723   0.01267  Uiso   1.00
C1466  C     0.37266   0.73822   0.37266   0.01267  Uiso   1.00
C1467  C     0.41918   0.67257   0.41918   0.01267  Uiso   1.00
C1468  C     0.40303   0.69455   0.40303   0.01267  Uiso   1.00
C1469  C     0.31762   0.78725   0.31762   0.01267  Uiso   1.00
C1470  C     0.30807   0.77705   0.30807   0.01267  Uiso   1.00
C1471  C     0.28000   0.74951   0.28000   0.01267  Uiso   1.00
C1472  C     0.28965   0.75798   0.28965   0.01267  Uiso   1.00
O862   O     0.33063   0.82086   0.33063   0.01267  Uiso   1.00
Cr191  Cr    0.85566   0.32574   0.49285   0.01267  Uiso   1.00
C1473  C     0.76256   0.35723   0.52298   0.01267  Uiso   1.00
C1474  C     0.73822   0.37266   0.51646   0.01267  Uiso   1.00
C1475  C     0.67257   0.41918   0.48908   0.01267  Uiso   1.00
C1476  C     0.69455   0.40303   0.49938   0.01267  Uiso   1.00
C1477  C     0.78725   0.31762   0.57750   0.01267  Uiso   1.00
C1478  C     0.77705   0.30807   0.60680   0.01267  Uiso   1.00
C1479  C     0.74951   0.28000   0.69049   0.01267  Uiso   1.00
C1480  C     0.75798   0.28965   0.66272   0.01267  Uiso   1.00
O863   O     0.82086   0.33063   0.51787   0.01267  Uiso   1.00
Cr192  Cr    0.49285   0.32574   0.85566   0.01267  Uiso   1.00
C1481  C     0.52298   0.35723   0.76256   0.01267  Uiso   1.00
C1482  C     0.51646   0.37266   0.73822   0.01267  Uiso   1.00
C1483  C     0.48908   0.41918   0.67257   0.01267  Uiso   1.00
C1484  C     0.49938   0.40303   0.69455   0.01267  Uiso   1.00
C1485  C     0.57750   0.31762   0.78725   0.01267  Uiso   1.00
C1486  C     0.60680   0.30807   0.77705   0.01267  Uiso   1.00
C1487  C     0.69049   0.28000   0.74951   0.01267  Uiso   1.00
C1488  C     0.66272   0.28965   0.75798   0.01267  Uiso   1.00
O864   O     0.51787   0.33063   0.82086   0.01267  Uiso   1.00
Cr193  Cr    0.92426   0.92426   0.39434   0.01267  Uiso   1.00
C1489  C     0.89277   0.89277   0.48744   0.01267  Uiso   1.00
C1490  C     0.87734   0.87734   0.51178   0.01267  Uiso   1.00
C1491  C     0.83082   0.83082   0.57743   0.01267  Uiso   1.00
C1492  C     0.84697   0.84697   0.55545   0.01267  Uiso   1.00
C1493  C     0.93238   0.93238   0.46275   0.01267  Uiso   1.00
C1494  C     0.94193   0.94193   0.47295   0.01267  Uiso   1.00
C1495  C     0.97000   0.97000   0.50049   0.01267  Uiso   1.00
C1496  C     0.96035   0.96035   0.49202   0.01267  Uiso   1.00
O865   O     0.91937   0.91937   0.42914   0.01267  Uiso   1.00
Cr194  Cr    0.92426   0.92426   0.75715   0.01267  Uiso   1.00
C1497  C     0.89277   0.89277   0.72702   0.01267  Uiso   1.00
C1498  C     0.87734   0.87734   0.73354   0.01267  Uiso   1.00
C1499  C     0.83082   0.83082   0.76092   0.01267  Uiso   1.00
C1500  C     0.84697   0.84697   0.75062   0.01267  Uiso   1.00
C1501  C     0.93238   0.93238   0.67250   0.01267  Uiso   1.00
C1502  C     0.94193   0.94193   0.64320   0.01267  Uiso   1.00
C1503  C     0.97000   0.97000   0.55951   0.01267  Uiso   1.00
C1504  C     0.96035   0.96035   0.58728   0.01267  Uiso   1.00
O866   O     0.91937   0.91937   0.73213   0.01267  Uiso   1.00
Cr195  Cr    0.75715   0.39434   0.92426   0.01267  Uiso   1.00
C1505  C     0.72702   0.48744   0.89277   0.01267  Uiso   1.00
C1506  C     0.73354   0.51178   0.87734   0.01267  Uiso   1.00
C1507  C     0.76092   0.57743   0.83082   0.01267  Uiso   1.00
C1508  C     0.75062   0.55545   0.84697   0.01267  Uiso   1.00
C1509  C     0.67250   0.46275   0.93238   0.01267  Uiso   1.00
C1510  C     0.64320   0.47295   0.94193   0.01267  Uiso   1.00
C1511  C     0.55951   0.50049   0.97000   0.01267  Uiso   1.00
C1512  C     0.58728   0.49202   0.96035   0.01267  Uiso   1.00
O867   O     0.73213   0.42914   0.91937   0.01267  Uiso   1.00
Cr196  Cr    0.39434   0.75715   0.92426   0.01267  Uiso   1.00
C1513  C     0.48744   0.72702   0.89277   0.01267  Uiso   1.00
C1514  C     0.51178   0.73354   0.87734   0.01267  Uiso   1.00
C1515  C     0.57743   0.76092   0.83082   0.01267  Uiso   1.00
C1516  C     0.55545   0.75062   0.84697   0.01267  Uiso   1.00
C1517  C     0.46275   0.67250   0.93238   0.01267  Uiso   1.00
C1518  C     0.47295   0.64320   0.94193   0.01267  Uiso   1.00
C1519  C     0.50049   0.55951   0.97000   0.01267  Uiso   1.00
C1520  C     0.49202   0.58728   0.96035   0.01267  Uiso   1.00
O868   O     0.42914   0.73213   0.91937   0.01267  Uiso   1.00
Cr197  Cr    0.75715   0.92426   0.39434   0.01267  Uiso   1.00
C1521  C     0.72702   0.89277   0.48744   0.01267  Uiso   1.00
C1522  C     0.73354   0.87734   0.51178   0.01267  Uiso   1.00
C1523  C     0.76092   0.83082   0.57743   0.01267  Uiso   1.00
C1524  C     0.75062   0.84697   0.55545   0.01267  Uiso   1.00
C1525  C     0.67250   0.93238   0.46275   0.01267  Uiso   1.00
C1526  C     0.64320   0.94193   0.47295   0.01267  Uiso   1.00
C1527  C     0.55951   0.97000   0.50049   0.01267  Uiso   1.00
C1528  C     0.58728   0.96035   0.49202   0.01267  Uiso   1.00
O869   O     0.73213   0.91937   0.42914   0.01267  Uiso   1.00
Cr198  Cr    0.39434   0.92426   0.75715   0.01267  Uiso   1.00
C1529  C     0.48744   0.89277   0.72702   0.01267  Uiso   1.00
C1530  C     0.51178   0.87734   0.73354   0.01267  Uiso   1.00
C1531  C     0.57743   0.83082   0.76092   0.01267  Uiso   1.00
C1532  C     0.55545   0.84697   0.75062   0.01267  Uiso   1.00
C1533  C     0.46275   0.93238   0.67250   0.01267  Uiso   1.00
C1534  C     0.47295   0.94193   0.64320   0.01267  Uiso   1.00
C1535  C     0.50049   0.97000   0.55951   0.01267  Uiso   1.00
C1536  C     0.49202   0.96035   0.58728   0.01267  Uiso   1.00
O870   O     0.42914   0.91937   0.73213   0.01267  Uiso   1.00
Cr199  Cr    0.92426   0.75715   0.92426   0.01267  Uiso   1.00
C1537  C     0.89277   0.72702   0.89277   0.01267  Uiso   1.00
C1538  C     0.87734   0.73354   0.87734   0.01267  Uiso   1.00
C1539  C     0.83082   0.76092   0.83082   0.01267  Uiso   1.00
C1540  C     0.84697   0.75062   0.84697   0.01267  Uiso   1.00
C1541  C     0.93238   0.67250   0.93238   0.01267  Uiso   1.00
C1542  C     0.94193   0.64320   0.94193   0.01267  Uiso   1.00
C1543  C     0.97000   0.55951   0.97000   0.01267  Uiso   1.00
C1544  C     0.96035   0.58728   0.96035   0.01267  Uiso   1.00
O871   O     0.91937   0.73213   0.91937   0.01267  Uiso   1.00
Cr200  Cr    0.92426   0.39434   0.92426   0.01267  Uiso   1.00
C1545  C     0.89277   0.48744   0.89277   0.01267  Uiso   1.00
C1546  C     0.87734   0.51178   0.87734   0.01267  Uiso   1.00
C1547  C     0.83082   0.57743   0.83082   0.01267  Uiso   1.00
C1548  C     0.84697   0.55545   0.84697   0.01267  Uiso   1.00
C1549  C     0.93238   0.46275   0.93238   0.01267  Uiso   1.00
C1550  C     0.94193   0.47295   0.94193   0.01267  Uiso   1.00
C1551  C     0.97000   0.50049   0.97000   0.01267  Uiso   1.00
C1552  C     0.96035   0.49202   0.96035   0.01267  Uiso   1.00
O872   O     0.91937   0.42914   0.91937   0.01267  Uiso   1.00
Cr201  Cr    0.92426   0.75715   0.39434   0.01267  Uiso   1.00
C1553  C     0.89277   0.72702   0.48744   0.01267  Uiso   1.00
C1554  C     0.87734   0.73354   0.51178   0.01267  Uiso   1.00
C1555  C     0.83082   0.76092   0.57743   0.01267  Uiso   1.00
C1556  C     0.84697   0.75062   0.55545   0.01267  Uiso   1.00
C1557  C     0.93238   0.67250   0.46275   0.01267  Uiso   1.00
C1558  C     0.94193   0.64320   0.47295   0.01267  Uiso   1.00
C1559  C     0.97000   0.55951   0.50049   0.01267  Uiso   1.00
C1560  C     0.96035   0.58728   0.49202   0.01267  Uiso   1.00
O873   O     0.91937   0.73213   0.42914   0.01267  Uiso   1.00
Cr202  Cr    0.92426   0.39434   0.75715   0.01267  Uiso   1.00
C1561  C     0.89277   0.48744   0.72702   0.01267  Uiso   1.00
C1562  C     0.87734   0.51178   0.73354   0.01267  Uiso   1.00
C1563  C     0.83082   0.57743   0.76092   0.01267  Uiso   1.00
C1564  C     0.84697   0.55545   0.75062   0.01267  Uiso   1.00
C1565  C     0.93238   0.46275   0.67250   0.01267  Uiso   1.00
C1566  C     0.94193   0.47295   0.64320   0.01267  Uiso   1.00
C1567  C     0.97000   0.50049   0.55951   0.01267  Uiso   1.00
C1568  C     0.96035   0.49202   0.58728   0.01267  Uiso   1.00
O874   O     0.91937   0.42914   0.73213   0.01267  Uiso   1.00
Cr203  Cr    0.39434   0.92426   0.92426   0.01267  Uiso   1.00
C1569  C     0.48744   0.89277   0.89277   0.01267  Uiso   1.00
C1570  C     0.51178   0.87734   0.87734   0.01267  Uiso   1.00
C1571  C     0.57743   0.83082   0.83082   0.01267  Uiso   1.00
C1572  C     0.55545   0.84697   0.84697   0.01267  Uiso   1.00
C1573  C     0.46275   0.93238   0.93238   0.01267  Uiso   1.00
C1574  C     0.47295   0.94193   0.94193   0.01267  Uiso   1.00
C1575  C     0.50049   0.97000   0.97000   0.01267  Uiso   1.00
C1576  C     0.49202   0.96035   0.96035   0.01267  Uiso   1.00
O875   O     0.42914   0.91937   0.91937   0.01267  Uiso   1.00
Cr204  Cr    0.75715   0.92426   0.92426   0.01267  Uiso   1.00
C1577  C     0.72702   0.89277   0.89277   0.01267  Uiso   1.00
C1578  C     0.73354   0.87734   0.87734   0.01267  Uiso   1.00
C1579  C     0.76092   0.83082   0.83082   0.01267  Uiso   1.00
C1580  C     0.75062   0.84697   0.84697   0.01267  Uiso   1.00
C1581  C     0.67250   0.93238   0.93238   0.01267  Uiso   1.00
C1582  C     0.64320   0.94193   0.94193   0.01267  Uiso   1.00
C1583  C     0.55951   0.97000   0.97000   0.01267  Uiso   1.00
C1584  C     0.58728   0.96035   0.96035   0.01267  Uiso   1.00
O876   O     0.73213   0.91937   0.91937   0.01267  Uiso   1.00
C1585  C     0.44280   0.44280   0.51229   0.01267  Uiso   1.00
C1586  C     0.44188   0.44188   0.53555   0.01267  Uiso   1.00
C1587  C     0.44280   0.44280   0.60211   0.01267  Uiso   1.00
C1588  C     0.44188   0.44188   0.58069   0.01267  Uiso   1.00
C1589  C     0.51229   0.60211   0.44280   0.01267  Uiso   1.00
C1590  C     0.53555   0.58069   0.44188   0.01267  Uiso   1.00
C1591  C     0.60211   0.51229   0.44280   0.01267  Uiso   1.00
C1592  C     0.58069   0.53555   0.44188   0.01267  Uiso   1.00
C1593  C     0.51229   0.44280   0.44280   0.01267  Uiso   1.00
C1594  C     0.53555   0.44188   0.44188   0.01267  Uiso   1.00
C1595  C     0.60211   0.44280   0.44280   0.01267  Uiso   1.00
C1596  C     0.58069   0.44188   0.44188   0.01267  Uiso   1.00
C1597  C     0.44280   0.51229   0.60211   0.01267  Uiso   1.00
C1598  C     0.44188   0.53555   0.58069   0.01267  Uiso   1.00
C1599  C     0.44280   0.60211   0.51229   0.01267  Uiso   1.00
C1600  C     0.44188   0.58069   0.53555   0.01267  Uiso   1.00
C1601  C     0.44280   0.51229   0.44280   0.01267  Uiso   1.00
C1602  C     0.44188   0.53555   0.44188   0.01267  Uiso   1.00
C1603  C     0.44280   0.60211   0.44280   0.01267  Uiso   1.00
C1604  C     0.44188   0.58069   0.44188   0.01267  Uiso   1.00
C1605  C     0.60211   0.44280   0.51229   0.01267  Uiso   1.00
C1606  C     0.58069   0.44188   0.53555   0.01267  Uiso   1.00
C1607  C     0.51229   0.44280   0.60211   0.01267  Uiso   1.00
C1608  C     0.53555   0.44188   0.58069   0.01267  Uiso   1.00
C1609  C     0.80720   0.80720   0.64789   0.01267  Uiso   1.00
C1610  C     0.80812   0.80812   0.66931   0.01267  Uiso   1.00
C1611  C     0.80720   0.80720   0.73771   0.01267  Uiso   1.00
C1612  C     0.80812   0.80812   0.71445   0.01267  Uiso   1.00
C1613  C     0.73771   0.64789   0.80720   0.01267  Uiso   1.00
C1614  C     0.71445   0.66931   0.80812   0.01267  Uiso   1.00
C1615  C     0.64789   0.73771   0.80720   0.01267  Uiso   1.00
C1616  C     0.66931   0.71445   0.80812   0.01267  Uiso   1.00
C1617  C     0.73771   0.80720   0.64789   0.01267  Uiso   1.00
C1618  C     0.71445   0.80812   0.66931   0.01267  Uiso   1.00
C1619  C     0.64789   0.80720   0.73771   0.01267  Uiso   1.00
C1620  C     0.66931   0.80812   0.71445   0.01267  Uiso   1.00
C1621  C     0.80720   0.73771   0.80720   0.01267  Uiso   1.00
C1622  C     0.80812   0.71445   0.80812   0.01267  Uiso   1.00
C1623  C     0.80720   0.64789   0.80720   0.01267  Uiso   1.00
C1624  C     0.80812   0.66931   0.80812   0.01267  Uiso   1.00
C1625  C     0.80720   0.73771   0.64789   0.01267  Uiso   1.00
C1626  C     0.80812   0.71445   0.66931   0.01267  Uiso   1.00
C1627  C     0.80720   0.64789   0.73771   0.01267  Uiso   1.00
C1628  C     0.80812   0.66931   0.71445   0.01267  Uiso   1.00
C1629  C     0.64789   0.80720   0.80720   0.01267  Uiso   1.00
C1630  C     0.66931   0.80812   0.80812   0.01267  Uiso   1.00
C1631  C     0.73771   0.80720   0.80720   0.01267  Uiso   1.00
C1632  C     0.71445   0.80812   0.80812   0.01267  Uiso   1.00
O877   O     0.45414   0.45414   0.45414   0.01267  Uiso   1.00
O878   O     0.45414   0.45414   0.63759   0.01267  Uiso   1.00
O879   O     0.45414   0.63759   0.45414   0.01267  Uiso   1.00
O880   O     0.63759   0.45414   0.45414   0.01267  Uiso   1.00
O881   O     0.79586   0.79586   0.61241   0.01267  Uiso   1.00
O882   O     0.79586   0.79586   0.79586   0.01267  Uiso   1.00
O883   O     0.79586   0.61241   0.79586   0.01267  Uiso   1.00
O884   O     0.61241   0.79586   0.79586   0.01267  Uiso   1.00
