data_image0
_cell_length_a       33.4649
_cell_length_b       33.4755
_cell_length_c       26.6222
_cell_angle_alpha    90
_cell_angle_beta     127.581
_cell_angle_gamma    90

_symmetry_space_group_name_H-M    "P 1"
_symmetry_int_tables_number       1

loop_
  _symmetry_equiv_pos_as_xyz
  'x, y, z'

loop_
  _atom_site_label
  _atom_site_occupancy
  _atom_site_fract_x
  _atom_site_fract_y
  _atom_site_fract_z
  _atom_site_thermal_displace_type
  _atom_site_B_iso_or_equiv
  _atom_site_type_symbol
  As1      1.0000 0.36191  0.87278  0.51968  Biso   1.000  As
  As2      1.0000 0.19808  0.86890  0.16285  Biso   1.000  As
  As3      1.0000 0.38266  0.63215  0.02096  Biso   1.000  As
  As4      1.0000 0.19396  0.61145  0.66583  Biso   1.000  As
  C1       1.0000 0.44060  0.45600  0.97700  Biso   1.000  C
  C2       1.0000 0.38750  0.57420  0.68600  Biso   1.000  C
  C3       1.0000 0.40060  0.46360  0.77040  Biso   1.000  C
  H1       1.0000 0.40240  0.43980  0.78980  Biso   1.000  H
  C4       1.0000 0.39230  0.53430  0.71450  Biso   1.000  C
  C5       1.0000 0.04340  0.79370  0.20740  Biso   1.000  C
  C6       1.0000 0.41280  0.44800  0.00430  Biso   1.000  C
  C7       1.0000 0.16770  0.71200  0.42100  Biso   1.000  C
  H2       1.0000 0.13480  0.71830  0.40500  Biso   1.000  H
  C8       1.0000 0.26290  0.69510  0.46950  Biso   1.000  C
  C9       1.0000 0.03760  0.72620  0.23400  Biso   1.000  C
  H3       1.0000 0.02040  0.70610  0.23770  Biso   1.000  H
  C10      1.0000 0.19670  0.74120  0.41480  Biso   1.000  C
  H4       1.0000 0.18240  0.76530  0.39410  Biso   1.000  H
  C11      1.0000 0.31750  0.68930  0.49890  Biso   1.000  C
  C12      1.0000 0.01290  0.76360  0.20080  Biso   1.000  C
  H5       1.0000 0.97820  0.76680  0.17650  Biso   1.000  H
  C13      1.0000 0.47570  0.43080  0.98000  Biso   1.000  C
  H6       1.0000 0.48470  0.40600  0.00030  Biso   1.000  H
  C14      1.0000 0.37480  0.49990  0.77300  Biso   1.000  C
  H7       1.0000 0.36040  0.49850  0.79410  Biso   1.000  H
  C15      1.0000 0.42160  0.46630  0.73820  Biso   1.000  C
  H8       1.0000 0.43850  0.44480  0.73660  Biso   1.000  H
  C16      1.0000 0.49550  0.44530  0.95200  Biso   1.000  C
  H9       1.0000 0.52010  0.43000  0.95470  Biso   1.000  H
  C17      1.0000 0.48350  0.47710  0.92230  Biso   1.000  C
  H10      1.0000 0.49600  0.48400  0.90050  Biso   1.000  H
  C18      1.0000 0.44900  0.50390  0.92280  Biso   1.000  C
  H11      1.0000 0.44190  0.52890  0.90400  Biso   1.000  H
  C19      1.0000 0.41620  0.50230  0.70890  Biso   1.000  C
  H12      1.0000 0.42830  0.50510  0.68560  Biso   1.000  H
  C20      1.0000 0.18550  0.67860  0.44720  Biso   1.000  C
  H13      1.0000 0.16490  0.66070  0.44870  Biso   1.000  H
  C21      1.0000 0.23480  0.66760  0.47400  Biso   1.000  C
  H14      1.0000 0.24800  0.64300  0.49380  Biso   1.000  H
  C22      1.0000 0.11310  0.75440  0.25960  Biso   1.000  C
  H15      1.0000 0.14680  0.75100  0.27720  Biso   1.000  H
  C23      1.0000 0.08610  0.72230  0.25820  Biso   1.000  C
  H16      1.0000 0.10200  0.69780  0.27450  Biso   1.000  H
  C24      1.0000 0.02440  0.83480  0.18200  Biso   1.000  C
  Dy1      1.0000 0.21826  0.87556  0.41516  Biso   1.000  Dy
  Dy2      1.0000 0.24942  0.77404  0.26428  Biso   1.000  Dy
  Dy3      1.0000 0.42043  0.63277  0.91212  Biso   1.000  Dy
  Dy4      1.0000 0.24719  0.52247  0.77691  Biso   1.000  Dy
  K1       1.0000 0.32910  0.57630  0.51960  Biso   1.000  K
  K2       1.0000 0.41640  0.66600  0.51280  Biso   1.000  K
  K3       1.0000 0.40380  0.66430  0.66820  Biso   1.000  K
  K4       1.0000 0.99340  0.92560  0.16800  Biso   1.000  K
  N1       1.0000 0.42750  0.49310  0.94940  Biso   1.000  N
  N2       1.0000 0.37300  0.53460  0.74510  Biso   1.000  N
  N3       1.0000 0.24560  0.73240  0.43990  Biso   1.000  N
  N4       1.0000 0.09150  0.78980  0.23610  Biso   1.000  N
  O1       1.0000 0.48680  0.92370  0.61700  Biso   1.000  O
  O2       1.0000 0.44280  0.92270  0.66950  Biso   1.000  O
  O3       1.0000 0.48690  0.85790  0.67230  Biso   1.000  O
  O4       1.0000 0.38460  0.98440  0.60130  Biso   1.000  O
  O5       1.0000 0.38810  0.88020  0.69400  Biso   1.000  O
  O6       1.0000 0.43280  0.81290  0.69450  Biso   1.000  O
  O7       1.0000 0.43060  0.98500  0.55090  Biso   1.000  O
  O8       1.0000 0.49680  0.87710  0.54120  Biso   1.000  O
  O9       1.0000 0.42190  0.93030  0.47140  Biso   1.000  O
  O10      1.0000 0.33180  0.99220  0.47780  Biso   1.000  O
  O11      1.0000 0.37470  0.92510  0.53480  Biso   1.000  O
  O12      1.0000 0.32710  0.92670  0.59390  Biso   1.000  O
  O13      1.0000 0.42170  0.85970  0.53880  Biso   1.000  O
  O14      1.0000 0.37630  0.85750  0.59410  Biso   1.000  O
  O15      1.0000 0.33210  0.81550  0.63010  Biso   1.000  O
  O16      1.0000 0.38390  0.74190  0.64960  Biso   1.000  O
  O17      1.0000 0.32280  0.77880  0.53470  Biso   1.000  O
  O18      1.0000 0.42110  0.78620  0.59160  Biso   1.000  O
  O19      1.0000 0.26980  0.86350  0.52150  Biso   1.000  O
  O20      1.0000 0.26980  0.93210  0.46600  Biso   1.000  O
  O21      1.0000 0.49740  0.81180  0.59580  Biso   1.000  O
  O22      1.0000 0.43560  0.81730  0.47210  Biso   1.000  O
  O23      1.0000 0.44890  0.74380  0.52910  Biso   1.000  O
  O24      1.0000 0.35750  0.79200  0.46780  Biso   1.000  O
  O25      1.0000 0.32530  0.93970  0.39130  Biso   1.000  O
  O26      1.0000 0.35820  0.86900  0.40930  Biso   1.000  O
  O27      1.0000 0.06160  0.95180  0.15020  Biso   1.000  O
  O28      1.0000 0.16270  0.69500  0.71290  Biso   1.000  O
  O29      1.0000 0.20340  0.94930  0.06920  Biso   1.000  O
  O30      1.0000 0.27940  0.95350  0.21630  Biso   1.000  O
  O31      1.0000 0.24480  0.87520  0.15050  Biso   1.000  O
  O32      1.0000 0.19750  0.65980  0.64160  Biso   1.000  O
  O33      1.0000 0.09280  0.68650  0.56610  Biso   1.000  O
  O34      1.0000 0.10140  0.96840  0.08690  Biso   1.000  O
  O35      1.0000 0.38750  0.60360  0.81370  Biso   1.000  O
  O36      1.0000 0.26260  0.88370  0.38000  Biso   1.000  O
  O37      1.0000 0.17910  0.87830  0.01740  Biso   1.000  O
  O38      1.0000 0.35430  0.68490  0.11890  Biso   1.000  O
  O39      1.0000 0.16400  0.96470  0.21180  Biso   1.000  O
  O40      1.0000 0.19350  0.64140  0.79380  Biso   1.000  O
  O41      1.0000 0.33770  0.63600  0.87640  Biso   1.000  O
  O42      1.0000 0.25890  0.58670  0.80870  Biso   1.000  O
  O43      1.0000 0.06970  0.66700  0.64040  Biso   1.000  O
  O44      1.0000 0.34060  0.54960  0.97840  Biso   1.000  O
  O45      1.0000 0.36820  0.60100  0.69760  Biso   1.000  O
  O46      1.0000 0.41890  0.68890  0.95950  Biso   1.000  O
  O47      1.0000 0.47620  0.62500  0.01970  Biso   1.000  O
  O48      1.0000 0.27060  0.71080  0.70180  Biso   1.000  O
  O49      1.0000 0.17490  0.92070  0.14480  Biso   1.000  O
  O50      1.0000 0.30410  0.55570  0.76580  Biso   1.000  O
  O51      1.0000 0.27550  0.62300  0.91230  Biso   1.000  O
  O52      1.0000 0.40130  0.54810  0.09990  Biso   1.000  O
  O53      1.0000 0.18440  0.80830  0.25720  Biso   1.000  O
  O54      1.0000 0.25550  0.81420  0.42060  Biso   1.000  O
  O55      1.0000 0.24030  0.63040  0.58810  Biso   1.000  O
  O56      1.0000 0.10710  0.53800  0.60260  Biso   1.000  O
  O57      1.0000 0.16380  0.54610  0.72570  Biso   1.000  O
  O58      1.0000 0.27400  0.85420  0.08310  Biso   1.000  O
  O59      1.0000 0.20380  0.51780  0.66870  Biso   1.000  O
  O60      1.0000 0.32590  0.89470  0.29070  Biso   1.000  O
  O61      1.0000 0.27140  0.63500  0.04740  Biso   1.000  O
  O62      1.0000 0.14030  0.89000  0.21240  Biso   1.000  O
  O63      1.0000 0.19340  0.99360  0.14440  Biso   1.000  O
  O64      1.0000 0.26540  0.57230  0.98270  Biso   1.000  O
  O65      1.0000 0.43820  0.53860  0.03980  Biso   1.000  O
  O66      1.0000 0.27450  0.68460  0.97220  Biso   1.000  O
  O67      1.0000 0.48620  0.58150  0.19930  Biso   1.000  O
  O68      1.0000 0.06940  0.61480  0.51870  Biso   1.000  O
  O69      1.0000 0.28210  0.56570  0.65280  Biso   1.000  O
  O70      1.0000 0.39300  0.56910  0.92620  Biso   1.000  O
  O71      1.0000 0.16200  0.59150  0.48910  Biso   1.000  O
  O72      1.0000 0.05710  0.85750  0.98610  Biso   1.000  O
  O73      1.0000 0.97700  0.83970  0.14650  Biso   1.000  O
  O74      1.0000 0.34350  0.61860  0.04260  Biso   1.000  O
  O75      1.0000 0.48520  0.68880  0.08490  Biso   1.000  O
  O76      1.0000 0.25210  0.56440  0.53230  Biso   1.000  O
  O77      1.0000 0.42170  0.41590  0.03540  Biso   1.000  O
  O78      1.0000 0.38030  0.47370  0.99360  Biso   1.000  O
  O79      1.0000 0.33610  0.74310  0.04100  Biso   1.000  O
  O80      1.0000 0.40360  0.57990  0.65480  Biso   1.000  O
  O81      1.0000 0.09540  0.82360  0.14570  Biso   1.000  O
  O82      1.0000 0.27270  0.83700  0.30180  Biso   1.000  O
  O83      1.0000 0.14670  0.84810  0.08660  Biso   1.000  O
  O84      1.0000 0.15280  0.85360  0.31490  Biso   1.000  O
  O85      1.0000 0.12810  0.65550  0.50550  Biso   1.000  O
  O86      1.0000 0.43370  0.74830  0.09030  Biso   1.000  O
  O87      1.0000 0.33660  0.71740  0.48300  Biso   1.000  O
  O88      1.0000 0.33010  0.57250  0.10980  Biso   1.000  O
  O89      1.0000 0.27290  0.75530  0.36510  Biso   1.000  O
  O90      1.0000 0.17150  0.58650  0.59230  Biso   1.000  O
  O91      1.0000 0.11180  0.92390  0.01250  Biso   1.000  O
  O92      1.0000 0.07410  0.89230  0.08620  Biso   1.000  O
  O93      1.0000 0.52790  0.64660  0.19080  Biso   1.000  O
  O94      1.0000 0.37990  0.68450  0.02780  Biso   1.000  O
  O95      1.0000 0.28100  0.80010  0.21360  Biso   1.000  O
  O96      1.0000 0.13680  0.61840  0.65600  Biso   1.000  O
  O97      1.0000 0.10010  0.54580  0.49740  Biso   1.000  O
  O98      1.0000 0.34240  0.66020  0.53370  Biso   1.000  O
  O99      1.0000 0.18660  0.77400  0.15540  Biso   1.000  O
  O100     1.0000 0.29850  0.92540  0.13900  Biso   1.000  O
  O101     1.0000 0.10230  0.60260  0.71530  Biso   1.000  O
  O102     1.0000 0.44220  0.62050  0.09500  Biso   1.000  O
  O103     1.0000 0.29870  0.63470  0.71130  Biso   1.000  O
  O104     1.0000 0.31510  0.50150  0.04580  Biso   1.000  O
  O105     1.0000 0.19600  0.52440  0.55850  Biso   1.000  O
  O106     1.0000 0.04380  0.59370  0.59090  Biso   1.000  O
  O107     1.0000 0.08720  0.78740  0.04960  Biso   1.000  O
  O108     1.0000 0.00460  0.82900  0.02650  Biso   1.000  O
  O109     1.0000 0.24520  0.91860  0.27550  Biso   1.000  O
  O110     1.0000 0.21010  0.70520  0.57550  Biso   1.000  O
  O111     1.0000 0.28940  0.69160  0.88870  Biso   1.000  O
  O112     1.0000 0.49760  0.50760  0.16210  Biso   1.000  O
  O113     1.0000 0.05690  0.85930  0.19610  Biso   1.000  O
  O114     1.0000 0.12300  0.81140  0.98760  Biso   1.000  O
  O115     1.0000 0.17400  0.73410  0.63190  Biso   1.000  O
  O116     1.0000 0.41020  0.62370  0.17620  Biso   1.000  O
  O117     1.0000 0.33800  0.85730  0.20810  Biso   1.000  O
  O118     1.0000 0.31140  0.69130  0.64050  Biso   1.000  O
  O119     1.0000 0.32340  0.51080  0.87560  Biso   1.000  O
  O120     1.0000 0.52240  0.58060  0.13150  Biso   1.000  O
  O121     1.0000 0.21700  0.79890  0.08960  Biso   1.000  O
  O122     1.0000 0.25400  0.66800  0.77240  Biso   1.000  O
  O123     1.0000 0.36460  0.74850  0.96940  Biso   1.000  O
  O124     1.0000 0.44760  0.68670  0.16710  Biso   1.000  O
  W1       1.0000 0.44414  0.87007  0.69992  Biso   1.000  W
  W2       1.0000 0.44431  0.96269  0.62051  Biso   1.000  W
  W3       1.0000 0.50478  0.87050  0.62131  Biso   1.000  W
  W4       1.0000 0.31708  0.87259  0.60651  Biso   1.000  W
  W5       1.0000 0.37563  0.78867  0.61535  Biso   1.000  W
  W6       1.0000 0.43476  0.79190  0.53451  Biso   1.000  W
  W7       1.0000 0.43230  0.87469  0.46271  Biso   1.000  W
  W8       1.0000 0.37367  0.96818  0.45874  Biso   1.000  W
  W9       1.0000 0.31685  0.96208  0.52965  Biso   1.000  W
  W10      1.0000 0.29689  0.77201  0.44030  Biso   1.000  W
  W11      1.0000 0.29356  0.88423  0.34187  Biso   1.000  W
  W12      1.0000 0.13311  0.84066  0.23762  Biso   1.000  W
  W13      1.0000 0.22724  0.96569  0.22294  Biso   1.000  W
  W14      1.0000 0.32388  0.90930  0.22827  Biso   1.000  W
  W15      1.0000 0.28347  0.81899  0.15436  Biso   1.000  W
  W16      1.0000 0.15578  0.78236  0.07305  Biso   1.000  W
  W17      1.0000 0.06636  0.83639  0.06257  Biso   1.000  W
  W18      1.0000 0.10876  0.93379  0.14618  Biso   1.000  W
  W19      1.0000 0.14884  0.96347  0.06377  Biso   1.000  W
  W20      1.0000 0.11113  0.86559  0.98347  Biso   1.000  W
  W21      1.0000 0.24261  0.90347  0.06643  Biso   1.000  W
  W22      1.0000 0.34329  0.63201  0.12775  Biso   1.000  W
  W23      1.0000 0.39577  0.72499  0.11471  Biso   1.000  W
  W24      1.0000 0.47865  0.63619  0.19966  Biso   1.000  W
  W25      1.0000 0.33260  0.55054  0.04772  Biso   1.000  W
  W26      1.0000 0.25866  0.62989  0.96938  Biso   1.000  W
  W27      1.0000 0.30643  0.72383  0.95354  Biso   1.000  W
  W28      1.0000 0.43143  0.72256  0.02032  Biso   1.000  W
  W29      1.0000 0.51206  0.63645  0.10316  Biso   1.000  W
  W30      1.0000 0.46934  0.55186  0.12316  Biso   1.000  W
  W31      1.0000 0.27389  0.63579  0.84255  Biso   1.000  W
  W32      1.0000 0.37514  0.52961  0.94961  Biso   1.000  W
  W33      1.0000 0.33314  0.58626  0.74116  Biso   1.000  W
  W34      1.0000 0.13141  0.65491  0.72880  Biso   1.000  W
  W35      1.0000 0.10359  0.56158  0.66515  Biso   1.000  W
  W36      1.0000 0.15254  0.52089  0.58614  Biso   1.000  W
  W37      1.0000 0.22808  0.57416  0.56802  Biso   1.000  W
  W38      1.0000 0.26270  0.67504  0.63994  Biso   1.000  W
  W39      1.0000 0.21759  0.71123  0.71364  Biso   1.000  W
  W40      1.0000 0.05448  0.64181  0.56777  Biso   1.000  W
  W41      1.0000 0.14121  0.70099  0.55567  Biso   1.000  W
  W42      1.0000 0.10513  0.59957  0.48640  Biso   1.000  W
  As5      1.0000 0.86191  0.37278  0.51968  Biso   1.000  As
  As6      1.0000 0.69808  0.36890  0.16285  Biso   1.000  As
  As7      1.0000 0.88266  0.13215  0.02096  Biso   1.000  As
  As8      1.0000 0.69396  0.11145  0.66583  Biso   1.000  As
  C25      1.0000 0.94060  0.95600  0.97700  Biso   1.000  C
  C26      1.0000 0.88750  0.07420  0.68600  Biso   1.000  C
  C27      1.0000 0.90060  0.96360  0.77040  Biso   1.000  C
  H17      1.0000 0.90240  0.93980  0.78980  Biso   1.000  H
  C28      1.0000 0.89230  0.03430  0.71450  Biso   1.000  C
  C29      1.0000 0.54340  0.29370  0.20740  Biso   1.000  C
  C30      1.0000 0.91280  0.94800  0.00430  Biso   1.000  C
  C31      1.0000 0.66770  0.21200  0.42100  Biso   1.000  C
  H18      1.0000 0.63480  0.21830  0.40500  Biso   1.000  H
  C32      1.0000 0.76290  0.19510  0.46950  Biso   1.000  C
  C33      1.0000 0.53760  0.22620  0.23400  Biso   1.000  C
  H19      1.0000 0.52040  0.20610  0.23770  Biso   1.000  H
  C34      1.0000 0.69670  0.24120  0.41480  Biso   1.000  C
  H20      1.0000 0.68240  0.26530  0.39410  Biso   1.000  H
  C35      1.0000 0.81750  0.18930  0.49890  Biso   1.000  C
  C36      1.0000 0.51290  0.26360  0.20080  Biso   1.000  C
  H21      1.0000 0.47820  0.26680  0.17650  Biso   1.000  H
  C37      1.0000 0.97570  0.93080  0.98000  Biso   1.000  C
  H22      1.0000 0.98470  0.90600  0.00030  Biso   1.000  H
  C38      1.0000 0.87480  0.99990  0.77300  Biso   1.000  C
  H23      1.0000 0.86040  0.99850  0.79410  Biso   1.000  H
  C39      1.0000 0.92160  0.96630  0.73820  Biso   1.000  C
  H24      1.0000 0.93850  0.94480  0.73660  Biso   1.000  H
  C40      1.0000 0.99550  0.94530  0.95200  Biso   1.000  C
  H25      1.0000 0.02010  0.93000  0.95470  Biso   1.000  H
  C41      1.0000 0.98350  0.97710  0.92230  Biso   1.000  C
  H26      1.0000 0.99600  0.98400  0.90050  Biso   1.000  H
  C42      1.0000 0.94900  0.00390  0.92280  Biso   1.000  C
  H27      1.0000 0.94190  0.02890  0.90400  Biso   1.000  H
  C43      1.0000 0.91620  0.00230  0.70890  Biso   1.000  C
  H28      1.0000 0.92830  0.00510  0.68560  Biso   1.000  H
  C44      1.0000 0.68550  0.17860  0.44720  Biso   1.000  C
  H29      1.0000 0.66490  0.16070  0.44870  Biso   1.000  H
  C45      1.0000 0.73480  0.16760  0.47400  Biso   1.000  C
  H30      1.0000 0.74800  0.14300  0.49380  Biso   1.000  H
  C46      1.0000 0.61310  0.25440  0.25960  Biso   1.000  C
  H31      1.0000 0.64680  0.25100  0.27720  Biso   1.000  H
  C47      1.0000 0.58610  0.22230  0.25820  Biso   1.000  C
  H32      1.0000 0.60200  0.19780  0.27450  Biso   1.000  H
  C48      1.0000 0.52440  0.33480  0.18200  Biso   1.000  C
  Dy5      1.0000 0.71826  0.37556  0.41516  Biso   1.000  Dy
  Dy6      1.0000 0.74942  0.27404  0.26428  Biso   1.000  Dy
  Dy7      1.0000 0.92043  0.13277  0.91212  Biso   1.000  Dy
  Dy8      1.0000 0.74719  0.02247  0.77691  Biso   1.000  Dy
  K5       1.0000 0.82910  0.07630  0.51960  Biso   1.000  K
  K6       1.0000 0.91640  0.16600  0.51280  Biso   1.000  K
  K7       1.0000 0.90380  0.16430  0.66820  Biso   1.000  K
  K8       1.0000 0.49340  0.42560  0.16800  Biso   1.000  K
  N5       1.0000 0.92750  0.99310  0.94940  Biso   1.000  N
  N6       1.0000 0.87300  0.03460  0.74510  Biso   1.000  N
  N7       1.0000 0.74560  0.23240  0.43990  Biso   1.000  N
  N8       1.0000 0.59150  0.28980  0.23610  Biso   1.000  N
  O125     1.0000 0.98680  0.42370  0.61700  Biso   1.000  O
  O126     1.0000 0.94280  0.42270  0.66950  Biso   1.000  O
  O127     1.0000 0.98690  0.35790  0.67230  Biso   1.000  O
  O128     1.0000 0.88460  0.48440  0.60130  Biso   1.000  O
  O129     1.0000 0.88810  0.38020  0.69400  Biso   1.000  O
  O130     1.0000 0.93280  0.31290  0.69450  Biso   1.000  O
  O131     1.0000 0.93060  0.48500  0.55090  Biso   1.000  O
  O132     1.0000 0.99680  0.37710  0.54120  Biso   1.000  O
  O133     1.0000 0.92190  0.43030  0.47140  Biso   1.000  O
  O134     1.0000 0.83180  0.49220  0.47780  Biso   1.000  O
  O135     1.0000 0.87470  0.42510  0.53480  Biso   1.000  O
  O136     1.0000 0.82710  0.42670  0.59390  Biso   1.000  O
  O137     1.0000 0.92170  0.35970  0.53880  Biso   1.000  O
  O138     1.0000 0.87630  0.35750  0.59410  Biso   1.000  O
  O139     1.0000 0.83210  0.31550  0.63010  Biso   1.000  O
  O140     1.0000 0.88390  0.24190  0.64960  Biso   1.000  O
  O141     1.0000 0.82280  0.27880  0.53470  Biso   1.000  O
  O142     1.0000 0.92110  0.28620  0.59160  Biso   1.000  O
  O143     1.0000 0.76980  0.36350  0.52150  Biso   1.000  O
  O144     1.0000 0.76980  0.43210  0.46600  Biso   1.000  O
  O145     1.0000 0.99740  0.31180  0.59580  Biso   1.000  O
  O146     1.0000 0.93560  0.31730  0.47210  Biso   1.000  O
  O147     1.0000 0.94890  0.24380  0.52910  Biso   1.000  O
  O148     1.0000 0.85750  0.29200  0.46780  Biso   1.000  O
  O149     1.0000 0.82530  0.43970  0.39130  Biso   1.000  O
  O150     1.0000 0.85820  0.36900  0.40930  Biso   1.000  O
  O151     1.0000 0.56160  0.45180  0.15020  Biso   1.000  O
  O152     1.0000 0.66270  0.19500  0.71290  Biso   1.000  O
  O153     1.0000 0.70340  0.44930  0.06920  Biso   1.000  O
  O154     1.0000 0.77940  0.45350  0.21630  Biso   1.000  O
  O155     1.0000 0.74480  0.37520  0.15050  Biso   1.000  O
  O156     1.0000 0.69750  0.15980  0.64160  Biso   1.000  O
  O157     1.0000 0.59280  0.18650  0.56610  Biso   1.000  O
  O158     1.0000 0.60140  0.46840  0.08690  Biso   1.000  O
  O159     1.0000 0.88750  0.10360  0.81370  Biso   1.000  O
  O160     1.0000 0.76260  0.38370  0.38000  Biso   1.000  O
  O161     1.0000 0.67910  0.37830  0.01740  Biso   1.000  O
  O162     1.0000 0.85430  0.18490  0.11890  Biso   1.000  O
  O163     1.0000 0.66400  0.46470  0.21180  Biso   1.000  O
  O164     1.0000 0.69350  0.14140  0.79380  Biso   1.000  O
  O165     1.0000 0.83770  0.13600  0.87640  Biso   1.000  O
  O166     1.0000 0.75890  0.08670  0.80870  Biso   1.000  O
  O167     1.0000 0.56970  0.16700  0.64040  Biso   1.000  O
  O168     1.0000 0.84060  0.04960  0.97840  Biso   1.000  O
  O169     1.0000 0.86820  0.10100  0.69760  Biso   1.000  O
  O170     1.0000 0.91890  0.18890  0.95950  Biso   1.000  O
  O171     1.0000 0.97620  0.12500  0.01970  Biso   1.000  O
  O172     1.0000 0.77060  0.21080  0.70180  Biso   1.000  O
  O173     1.0000 0.67490  0.42070  0.14480  Biso   1.000  O
  O174     1.0000 0.80410  0.05570  0.76580  Biso   1.000  O
  O175     1.0000 0.77550  0.12300  0.91230  Biso   1.000  O
  O176     1.0000 0.90130  0.04810  0.09990  Biso   1.000  O
  O177     1.0000 0.68440  0.30830  0.25720  Biso   1.000  O
  O178     1.0000 0.75550  0.31420  0.42060  Biso   1.000  O
  O179     1.0000 0.74030  0.13040  0.58810  Biso   1.000  O
  O180     1.0000 0.60710  0.03800  0.60260  Biso   1.000  O
  O181     1.0000 0.66380  0.04610  0.72570  Biso   1.000  O
  O182     1.0000 0.77400  0.35420  0.08310  Biso   1.000  O
  O183     1.0000 0.70380  0.01780  0.66870  Biso   1.000  O
  O184     1.0000 0.82590  0.39470  0.29070  Biso   1.000  O
  O185     1.0000 0.77140  0.13500  0.04740  Biso   1.000  O
  O186     1.0000 0.64030  0.39000  0.21240  Biso   1.000  O
  O187     1.0000 0.69340  0.49360  0.14440  Biso   1.000  O
  O188     1.0000 0.76540  0.07230  0.98270  Biso   1.000  O
  O189     1.0000 0.93820  0.03860  0.03980  Biso   1.000  O
  O190     1.0000 0.77450  0.18460  0.97220  Biso   1.000  O
  O191     1.0000 0.98620  0.08150  0.19930  Biso   1.000  O
  O192     1.0000 0.56940  0.11480  0.51870  Biso   1.000  O
  O193     1.0000 0.78210  0.06570  0.65280  Biso   1.000  O
  O194     1.0000 0.89300  0.06910  0.92620  Biso   1.000  O
  O195     1.0000 0.66200  0.09150  0.48910  Biso   1.000  O
  O196     1.0000 0.55710  0.35750  0.98610  Biso   1.000  O
  O197     1.0000 0.47700  0.33970  0.14650  Biso   1.000  O
  O198     1.0000 0.84350  0.11860  0.04260  Biso   1.000  O
  O199     1.0000 0.98520  0.18880  0.08490  Biso   1.000  O
  O200     1.0000 0.75210  0.06440  0.53230  Biso   1.000  O
  O201     1.0000 0.92170  0.91590  0.03540  Biso   1.000  O
  O202     1.0000 0.88030  0.97370  0.99360  Biso   1.000  O
  O203     1.0000 0.83610  0.24310  0.04100  Biso   1.000  O
  O204     1.0000 0.90360  0.07990  0.65480  Biso   1.000  O
  O205     1.0000 0.59540  0.32360  0.14570  Biso   1.000  O
  O206     1.0000 0.77270  0.33700  0.30180  Biso   1.000  O
  O207     1.0000 0.64670  0.34810  0.08660  Biso   1.000  O
  O208     1.0000 0.65280  0.35360  0.31490  Biso   1.000  O
  O209     1.0000 0.62810  0.15550  0.50550  Biso   1.000  O
  O210     1.0000 0.93370  0.24830  0.09030  Biso   1.000  O
  O211     1.0000 0.83660  0.21740  0.48300  Biso   1.000  O
  O212     1.0000 0.83010  0.07250  0.10980  Biso   1.000  O
  O213     1.0000 0.77290  0.25530  0.36510  Biso   1.000  O
  O214     1.0000 0.67150  0.08650  0.59230  Biso   1.000  O
  O215     1.0000 0.61180  0.42390  0.01250  Biso   1.000  O
  O216     1.0000 0.57410  0.39230  0.08620  Biso   1.000  O
  O217     1.0000 0.02790  0.14660  0.19080  Biso   1.000  O
  O218     1.0000 0.87990  0.18450  0.02780  Biso   1.000  O
  O219     1.0000 0.78100  0.30010  0.21360  Biso   1.000  O
  O220     1.0000 0.63680  0.11840  0.65600  Biso   1.000  O
  O221     1.0000 0.60010  0.04580  0.49740  Biso   1.000  O
  O222     1.0000 0.84240  0.16020  0.53370  Biso   1.000  O
  O223     1.0000 0.68660  0.27400  0.15540  Biso   1.000  O
  O224     1.0000 0.79850  0.42540  0.13900  Biso   1.000  O
  O225     1.0000 0.60230  0.10260  0.71530  Biso   1.000  O
  O226     1.0000 0.94220  0.12050  0.09500  Biso   1.000  O
  O227     1.0000 0.79870  0.13470  0.71130  Biso   1.000  O
  O228     1.0000 0.81510  0.00150  0.04580  Biso   1.000  O
  O229     1.0000 0.69600  0.02440  0.55850  Biso   1.000  O
  O230     1.0000 0.54380  0.09370  0.59090  Biso   1.000  O
  O231     1.0000 0.58720  0.28740  0.04960  Biso   1.000  O
  O232     1.0000 0.50460  0.32900  0.02650  Biso   1.000  O
  O233     1.0000 0.74520  0.41860  0.27550  Biso   1.000  O
  O234     1.0000 0.71010  0.20520  0.57550  Biso   1.000  O
  O235     1.0000 0.78940  0.19160  0.88870  Biso   1.000  O
  O236     1.0000 0.99760  0.00760  0.16210  Biso   1.000  O
  O237     1.0000 0.55690  0.35930  0.19610  Biso   1.000  O
  O238     1.0000 0.62300  0.31140  0.98760  Biso   1.000  O
  O239     1.0000 0.67400  0.23410  0.63190  Biso   1.000  O
  O240     1.0000 0.91020  0.12370  0.17620  Biso   1.000  O
  O241     1.0000 0.83800  0.35730  0.20810  Biso   1.000  O
  O242     1.0000 0.81140  0.19130  0.64050  Biso   1.000  O
  O243     1.0000 0.82340  0.01080  0.87560  Biso   1.000  O
  O244     1.0000 0.02240  0.08060  0.13150  Biso   1.000  O
  O245     1.0000 0.71700  0.29890  0.08960  Biso   1.000  O
  O246     1.0000 0.75400  0.16800  0.77240  Biso   1.000  O
  O247     1.0000 0.86460  0.24850  0.96940  Biso   1.000  O
  O248     1.0000 0.94760  0.18670  0.16710  Biso   1.000  O
  W43      1.0000 0.94414  0.37007  0.69992  Biso   1.000  W
  W44      1.0000 0.94431  0.46269  0.62051  Biso   1.000  W
  W45      1.0000 0.00478  0.37050  0.62131  Biso   1.000  W
  W46      1.0000 0.81708  0.37259  0.60651  Biso   1.000  W
  W47      1.0000 0.87563  0.28867  0.61535  Biso   1.000  W
  W48      1.0000 0.93476  0.29190  0.53451  Biso   1.000  W
  W49      1.0000 0.93230  0.37469  0.46271  Biso   1.000  W
  W50      1.0000 0.87367  0.46818  0.45874  Biso   1.000  W
  W51      1.0000 0.81685  0.46208  0.52965  Biso   1.000  W
  W52      1.0000 0.79689  0.27201  0.44030  Biso   1.000  W
  W53      1.0000 0.79356  0.38423  0.34187  Biso   1.000  W
  W54      1.0000 0.63311  0.34066  0.23762  Biso   1.000  W
  W55      1.0000 0.72724  0.46569  0.22294  Biso   1.000  W
  W56      1.0000 0.82388  0.40930  0.22827  Biso   1.000  W
  W57      1.0000 0.78347  0.31899  0.15436  Biso   1.000  W
  W58      1.0000 0.65578  0.28236  0.07305  Biso   1.000  W
  W59      1.0000 0.56636  0.33639  0.06257  Biso   1.000  W
  W60      1.0000 0.60876  0.43379  0.14618  Biso   1.000  W
  W61      1.0000 0.64884  0.46347  0.06377  Biso   1.000  W
  W62      1.0000 0.61113  0.36559  0.98347  Biso   1.000  W
  W63      1.0000 0.74261  0.40347  0.06643  Biso   1.000  W
  W64      1.0000 0.84329  0.13201  0.12775  Biso   1.000  W
  W65      1.0000 0.89577  0.22499  0.11471  Biso   1.000  W
  W66      1.0000 0.97865  0.13619  0.19966  Biso   1.000  W
  W67      1.0000 0.83260  0.05054  0.04772  Biso   1.000  W
  W68      1.0000 0.75866  0.12989  0.96938  Biso   1.000  W
  W69      1.0000 0.80643  0.22383  0.95354  Biso   1.000  W
  W70      1.0000 0.93143  0.22256  0.02032  Biso   1.000  W
  W71      1.0000 0.01206  0.13645  0.10316  Biso   1.000  W
  W72      1.0000 0.96934  0.05186  0.12316  Biso   1.000  W
  W73      1.0000 0.77389  0.13579  0.84255  Biso   1.000  W
  W74      1.0000 0.87514  0.02961  0.94961  Biso   1.000  W
  W75      1.0000 0.83314  0.08626  0.74116  Biso   1.000  W
  W76      1.0000 0.63141  0.15491  0.72880  Biso   1.000  W
  W77      1.0000 0.60359  0.06158  0.66515  Biso   1.000  W
  W78      1.0000 0.65254  0.02089  0.58614  Biso   1.000  W
  W79      1.0000 0.72808  0.07416  0.56802  Biso   1.000  W
  W80      1.0000 0.76270  0.17504  0.63994  Biso   1.000  W
  W81      1.0000 0.71759  0.21123  0.71364  Biso   1.000  W
  W82      1.0000 0.55448  0.14181  0.56777  Biso   1.000  W
  W83      1.0000 0.64121  0.20099  0.55567  Biso   1.000  W
  W84      1.0000 0.60513  0.09957  0.48640  Biso   1.000  W
  As9      1.0000 0.36191  0.12722  0.01968  Biso   1.000  As
  As10     1.0000 0.19808  0.13110  0.66285  Biso   1.000  As
  As11     1.0000 0.38266  0.36785  0.52096  Biso   1.000  As
  As12     1.0000 0.19396  0.38855  0.16583  Biso   1.000  As
  C49      1.0000 0.44060  0.54400  0.47700  Biso   1.000  C
  C50      1.0000 0.38750  0.42580  0.18600  Biso   1.000  C
  C51      1.0000 0.40060  0.53640  0.27040  Biso   1.000  C
  H33      1.0000 0.40240  0.56020  0.28980  Biso   1.000  H
  C52      1.0000 0.39230  0.46570  0.21450  Biso   1.000  C
  C53      1.0000 0.04340  0.20630  0.70740  Biso   1.000  C
  C54      1.0000 0.41280  0.55200  0.50430  Biso   1.000  C
  C55      1.0000 0.16770  0.28800  0.92100  Biso   1.000  C
  H34      1.0000 0.13480  0.28170  0.90500  Biso   1.000  H
  C56      1.0000 0.26290  0.30490  0.96950  Biso   1.000  C
  C57      1.0000 0.03760  0.27380  0.73400  Biso   1.000  C
  H35      1.0000 0.02040  0.29390  0.73770  Biso   1.000  H
  C58      1.0000 0.19670  0.25880  0.91480  Biso   1.000  C
  H36      1.0000 0.18240  0.23470  0.89410  Biso   1.000  H
  C59      1.0000 0.31750  0.31070  0.99890  Biso   1.000  C
  C60      1.0000 0.01290  0.23640  0.70080  Biso   1.000  C
  H37      1.0000 0.97820  0.23320  0.67650  Biso   1.000  H
  C61      1.0000 0.47570  0.56920  0.48000  Biso   1.000  C
  H38      1.0000 0.48470  0.59400  0.50030  Biso   1.000  H
  C62      1.0000 0.37480  0.50010  0.27300  Biso   1.000  C
  H39      1.0000 0.36040  0.50150  0.29410  Biso   1.000  H
  C63      1.0000 0.42160  0.53370  0.23820  Biso   1.000  C
  H40      1.0000 0.43850  0.55520  0.23660  Biso   1.000  H
  C64      1.0000 0.49550  0.55470  0.45200  Biso   1.000  C
  H41      1.0000 0.52010  0.57000  0.45470  Biso   1.000  H
  C65      1.0000 0.48350  0.52290  0.42230  Biso   1.000  C
  H42      1.0000 0.49600  0.51600  0.40050  Biso   1.000  H
  C66      1.0000 0.44900  0.49610  0.42280  Biso   1.000  C
  H43      1.0000 0.44190  0.47110  0.40400  Biso   1.000  H
  C67      1.0000 0.41620  0.49770  0.20890  Biso   1.000  C
  H44      1.0000 0.42830  0.49490  0.18560  Biso   1.000  H
  C68      1.0000 0.18550  0.32140  0.94720  Biso   1.000  C
  H45      1.0000 0.16490  0.33930  0.94870  Biso   1.000  H
  C69      1.0000 0.23480  0.33240  0.97400  Biso   1.000  C
  H46      1.0000 0.24800  0.35700  0.99380  Biso   1.000  H
  C70      1.0000 0.11310  0.24560  0.75960  Biso   1.000  C
  H47      1.0000 0.14680  0.24900  0.77720  Biso   1.000  H
  C71      1.0000 0.08610  0.27770  0.75820  Biso   1.000  C
  H48      1.0000 0.10200  0.30220  0.77450  Biso   1.000  H
  C72      1.0000 0.02440  0.16520  0.68200  Biso   1.000  C
  Dy9      1.0000 0.21826  0.12444  0.91516  Biso   1.000  Dy
  Dy10     1.0000 0.24942  0.22596  0.76428  Biso   1.000  Dy
  Dy11     1.0000 0.42043  0.36723  0.41212  Biso   1.000  Dy
  Dy12     1.0000 0.24719  0.47753  0.27691  Biso   1.000  Dy
  K9       1.0000 0.32910  0.42370  0.01960  Biso   1.000  K
  K10      1.0000 0.41640  0.33400  0.01280  Biso   1.000  K
  K11      1.0000 0.40380  0.33570  0.16820  Biso   1.000  K
  K12      1.0000 0.99340  0.07440  0.66800  Biso   1.000  K
  N9       1.0000 0.42750  0.50690  0.44940  Biso   1.000  N
  N10      1.0000 0.37300  0.46540  0.24510  Biso   1.000  N
  N11      1.0000 0.24560  0.26760  0.93990  Biso   1.000  N
  N12      1.0000 0.09150  0.21020  0.73610  Biso   1.000  N
  O249     1.0000 0.48680  0.07630  0.11700  Biso   1.000  O
  O250     1.0000 0.44280  0.07730  0.16950  Biso   1.000  O
  O251     1.0000 0.48690  0.14210  0.17230  Biso   1.000  O
  O252     1.0000 0.38460  0.01560  0.10130  Biso   1.000  O
  O253     1.0000 0.38810  0.11980  0.19400  Biso   1.000  O
  O254     1.0000 0.43280  0.18710  0.19450  Biso   1.000  O
  O255     1.0000 0.43060  0.01500  0.05090  Biso   1.000  O
  O256     1.0000 0.49680  0.12290  0.04120  Biso   1.000  O
  O257     1.0000 0.42190  0.06970  0.97140  Biso   1.000  O
  O258     1.0000 0.33180  0.00780  0.97780  Biso   1.000  O
  O259     1.0000 0.37470  0.07490  0.03480  Biso   1.000  O
  O260     1.0000 0.32710  0.07330  0.09390  Biso   1.000  O
  O261     1.0000 0.42170  0.14030  0.03880  Biso   1.000  O
  O262     1.0000 0.37630  0.14250  0.09410  Biso   1.000  O
  O263     1.0000 0.33210  0.18450  0.13010  Biso   1.000  O
  O264     1.0000 0.38390  0.25810  0.14960  Biso   1.000  O
  O265     1.0000 0.32280  0.22120  0.03470  Biso   1.000  O
  O266     1.0000 0.42110  0.21380  0.09160  Biso   1.000  O
  O267     1.0000 0.26980  0.13650  0.02150  Biso   1.000  O
  O268     1.0000 0.26980  0.06790  0.96600  Biso   1.000  O
  O269     1.0000 0.49740  0.18820  0.09580  Biso   1.000  O
  O270     1.0000 0.43560  0.18270  0.97210  Biso   1.000  O
  O271     1.0000 0.44890  0.25620  0.02910  Biso   1.000  O
  O272     1.0000 0.35750  0.20800  0.96780  Biso   1.000  O
  O273     1.0000 0.32530  0.06030  0.89130  Biso   1.000  O
  O274     1.0000 0.35820  0.13100  0.90930  Biso   1.000  O
  O275     1.0000 0.06160  0.04820  0.65020  Biso   1.000  O
  O276     1.0000 0.16270  0.30500  0.21290  Biso   1.000  O
  O277     1.0000 0.20340  0.05070  0.56920  Biso   1.000  O
  O278     1.0000 0.27940  0.04650  0.71630  Biso   1.000  O
  O279     1.0000 0.24480  0.12480  0.65050  Biso   1.000  O
  O280     1.0000 0.19750  0.34020  0.14160  Biso   1.000  O
  O281     1.0000 0.09280  0.31350  0.06610  Biso   1.000  O
  O282     1.0000 0.10140  0.03160  0.58690  Biso   1.000  O
  O283     1.0000 0.38750  0.39640  0.31370  Biso   1.000  O
  O284     1.0000 0.26260  0.11630  0.88000  Biso   1.000  O
  O285     1.0000 0.17910  0.12170  0.51740  Biso   1.000  O
  O286     1.0000 0.35430  0.31510  0.61890  Biso   1.000  O
  O287     1.0000 0.16400  0.03530  0.71180  Biso   1.000  O
  O288     1.0000 0.19350  0.35860  0.29380  Biso   1.000  O
  O289     1.0000 0.33770  0.36400  0.37640  Biso   1.000  O
  O290     1.0000 0.25890  0.41330  0.30870  Biso   1.000  O
  O291     1.0000 0.06970  0.33300  0.14040  Biso   1.000  O
  O292     1.0000 0.34060  0.45040  0.47840  Biso   1.000  O
  O293     1.0000 0.36820  0.39900  0.19760  Biso   1.000  O
  O294     1.0000 0.41890  0.31110  0.45950  Biso   1.000  O
  O295     1.0000 0.47620  0.37500  0.51970  Biso   1.000  O
  O296     1.0000 0.27060  0.28920  0.20180  Biso   1.000  O
  O297     1.0000 0.17490  0.07930  0.64480  Biso   1.000  O
  O298     1.0000 0.30410  0.44430  0.26580  Biso   1.000  O
  O299     1.0000 0.27550  0.37700  0.41230  Biso   1.000  O
  O300     1.0000 0.40130  0.45190  0.59990  Biso   1.000  O
  O301     1.0000 0.18440  0.19170  0.75720  Biso   1.000  O
  O302     1.0000 0.25550  0.18580  0.92060  Biso   1.000  O
  O303     1.0000 0.24030  0.36960  0.08810  Biso   1.000  O
  O304     1.0000 0.10710  0.46200  0.10260  Biso   1.000  O
  O305     1.0000 0.16380  0.45390  0.22570  Biso   1.000  O
  O306     1.0000 0.27400  0.14580  0.58310  Biso   1.000  O
  O307     1.0000 0.20380  0.48220  0.16870  Biso   1.000  O
  O308     1.0000 0.32590  0.10530  0.79070  Biso   1.000  O
  O309     1.0000 0.27140  0.36500  0.54740  Biso   1.000  O
  O310     1.0000 0.14030  0.11000  0.71240  Biso   1.000  O
  O311     1.0000 0.19340  0.00640  0.64440  Biso   1.000  O
  O312     1.0000 0.26540  0.42770  0.48270  Biso   1.000  O
  O313     1.0000 0.43820  0.46140  0.53980  Biso   1.000  O
  O314     1.0000 0.27450  0.31540  0.47220  Biso   1.000  O
  O315     1.0000 0.48620  0.41850  0.69930  Biso   1.000  O
  O316     1.0000 0.06940  0.38520  0.01870  Biso   1.000  O
  O317     1.0000 0.28210  0.43430  0.15280  Biso   1.000  O
  O318     1.0000 0.39300  0.43090  0.42620  Biso   1.000  O
  O319     1.0000 0.16200  0.40850  0.98910  Biso   1.000  O
  O320     1.0000 0.05710  0.14250  0.48610  Biso   1.000  O
  O321     1.0000 0.97700  0.16030  0.64650  Biso   1.000  O
  O322     1.0000 0.34350  0.38140  0.54260  Biso   1.000  O
  O323     1.0000 0.48520  0.31120  0.58490  Biso   1.000  O
  O324     1.0000 0.25210  0.43560  0.03230  Biso   1.000  O
  O325     1.0000 0.42170  0.58410  0.53540  Biso   1.000  O
  O326     1.0000 0.38030  0.52630  0.49360  Biso   1.000  O
  O327     1.0000 0.33610  0.25690  0.54100  Biso   1.000  O
  O328     1.0000 0.40360  0.42010  0.15480  Biso   1.000  O
  O329     1.0000 0.09540  0.17640  0.64570  Biso   1.000  O
  O330     1.0000 0.27270  0.16300  0.80180  Biso   1.000  O
  O331     1.0000 0.14670  0.15190  0.58660  Biso   1.000  O
  O332     1.0000 0.15280  0.14640  0.81490  Biso   1.000  O
  O333     1.0000 0.12810  0.34450  0.00550  Biso   1.000  O
  O334     1.0000 0.43370  0.25170  0.59030  Biso   1.000  O
  O335     1.0000 0.33660  0.28260  0.98300  Biso   1.000  O
  O336     1.0000 0.33010  0.42750  0.60980  Biso   1.000  O
  O337     1.0000 0.27290  0.24470  0.86510  Biso   1.000  O
  O338     1.0000 0.17150  0.41350  0.09230  Biso   1.000  O
  O339     1.0000 0.11180  0.07610  0.51250  Biso   1.000  O
  O340     1.0000 0.07410  0.10770  0.58620  Biso   1.000  O
  O341     1.0000 0.52790  0.35340  0.69080  Biso   1.000  O
  O342     1.0000 0.37990  0.31550  0.52780  Biso   1.000  O
  O343     1.0000 0.28100  0.19990  0.71360  Biso   1.000  O
  O344     1.0000 0.13680  0.38160  0.15600  Biso   1.000  O
  O345     1.0000 0.10010  0.45420  0.99740  Biso   1.000  O
  O346     1.0000 0.34240  0.33980  0.03370  Biso   1.000  O
  O347     1.0000 0.18660  0.22600  0.65540  Biso   1.000  O
  O348     1.0000 0.29850  0.07460  0.63900  Biso   1.000  O
  O349     1.0000 0.10230  0.39740  0.21530  Biso   1.000  O
  O350     1.0000 0.44220  0.37950  0.59500  Biso   1.000  O
  O351     1.0000 0.29870  0.36530  0.21130  Biso   1.000  O
  O352     1.0000 0.31510  0.49850  0.54580  Biso   1.000  O
  O353     1.0000 0.19600  0.47560  0.05850  Biso   1.000  O
  O354     1.0000 0.04380  0.40630  0.09090  Biso   1.000  O
  O355     1.0000 0.08720  0.21260  0.54960  Biso   1.000  O
  O356     1.0000 0.00460  0.17100  0.52650  Biso   1.000  O
  O357     1.0000 0.24520  0.08140  0.77550  Biso   1.000  O
  O358     1.0000 0.21010  0.29480  0.07550  Biso   1.000  O
  O359     1.0000 0.28940  0.30840  0.38870  Biso   1.000  O
  O360     1.0000 0.49760  0.49240  0.66210  Biso   1.000  O
  O361     1.0000 0.05690  0.14070  0.69610  Biso   1.000  O
  O362     1.0000 0.12300  0.18860  0.48760  Biso   1.000  O
  O363     1.0000 0.17400  0.26590  0.13190  Biso   1.000  O
  O364     1.0000 0.41020  0.37630  0.67620  Biso   1.000  O
  O365     1.0000 0.33800  0.14270  0.70810  Biso   1.000  O
  O366     1.0000 0.31140  0.30870  0.14050  Biso   1.000  O
  O367     1.0000 0.32340  0.48920  0.37560  Biso   1.000  O
  O368     1.0000 0.52240  0.41940  0.63150  Biso   1.000  O
  O369     1.0000 0.21700  0.20110  0.58960  Biso   1.000  O
  O370     1.0000 0.25400  0.33200  0.27240  Biso   1.000  O
  O371     1.0000 0.36460  0.25150  0.46940  Biso   1.000  O
  O372     1.0000 0.44760  0.31330  0.66710  Biso   1.000  O
  W85      1.0000 0.44414  0.12993  0.19992  Biso   1.000  W
  W86      1.0000 0.44431  0.03731  0.12051  Biso   1.000  W
  W87      1.0000 0.50478  0.12950  0.12131  Biso   1.000  W
  W88      1.0000 0.31708  0.12741  0.10651  Biso   1.000  W
  W89      1.0000 0.37563  0.21133  0.11535  Biso   1.000  W
  W90      1.0000 0.43476  0.20810  0.03451  Biso   1.000  W
  W91      1.0000 0.43230  0.12531  0.96271  Biso   1.000  W
  W92      1.0000 0.37367  0.03182  0.95874  Biso   1.000  W
  W93      1.0000 0.31685  0.03792  0.02965  Biso   1.000  W
  W94      1.0000 0.29689  0.22799  0.94030  Biso   1.000  W
  W95      1.0000 0.29356  0.11577  0.84187  Biso   1.000  W
  W96      1.0000 0.13311  0.15934  0.73762  Biso   1.000  W
  W97      1.0000 0.22724  0.03431  0.72294  Biso   1.000  W
  W98      1.0000 0.32388  0.09070  0.72827  Biso   1.000  W
  W99      1.0000 0.28347  0.18101  0.65436  Biso   1.000  W
  W100     1.0000 0.15578  0.21764  0.57305  Biso   1.000  W
  W101     1.0000 0.06636  0.16361  0.56257  Biso   1.000  W
  W102     1.0000 0.10876  0.06621  0.64618  Biso   1.000  W
  W103     1.0000 0.14884  0.03653  0.56377  Biso   1.000  W
  W104     1.0000 0.11113  0.13441  0.48347  Biso   1.000  W
  W105     1.0000 0.24261  0.09653  0.56643  Biso   1.000  W
  W106     1.0000 0.34329  0.36799  0.62775  Biso   1.000  W
  W107     1.0000 0.39577  0.27501  0.61471  Biso   1.000  W
  W108     1.0000 0.47865  0.36381  0.69966  Biso   1.000  W
  W109     1.0000 0.33260  0.44946  0.54772  Biso   1.000  W
  W110     1.0000 0.25866  0.37011  0.46938  Biso   1.000  W
  W111     1.0000 0.30643  0.27617  0.45354  Biso   1.000  W
  W112     1.0000 0.43143  0.27744  0.52032  Biso   1.000  W
  W113     1.0000 0.51206  0.36355  0.60316  Biso   1.000  W
  W114     1.0000 0.46934  0.44814  0.62316  Biso   1.000  W
  W115     1.0000 0.27389  0.36421  0.34255  Biso   1.000  W
  W116     1.0000 0.37514  0.47039  0.44961  Biso   1.000  W
  W117     1.0000 0.33314  0.41374  0.24116  Biso   1.000  W
  W118     1.0000 0.13141  0.34509  0.22880  Biso   1.000  W
  W119     1.0000 0.10359  0.43842  0.16515  Biso   1.000  W
  W120     1.0000 0.15254  0.47911  0.08614  Biso   1.000  W
  W121     1.0000 0.22808  0.42584  0.06802  Biso   1.000  W
  W122     1.0000 0.26270  0.32496  0.13994  Biso   1.000  W
  W123     1.0000 0.21759  0.28877  0.21364  Biso   1.000  W
  W124     1.0000 0.05448  0.35819  0.06777  Biso   1.000  W
  W125     1.0000 0.14121  0.29901  0.05567  Biso   1.000  W
  W126     1.0000 0.10513  0.40043  0.98640  Biso   1.000  W
  As13     1.0000 0.86191  0.62722  0.01968  Biso   1.000  As
  As14     1.0000 0.69808  0.63110  0.66285  Biso   1.000  As
  As15     1.0000 0.88266  0.86785  0.52096  Biso   1.000  As
  As16     1.0000 0.69396  0.88855  0.16583  Biso   1.000  As
  C73      1.0000 0.94060  0.04400  0.47700  Biso   1.000  C
  C74      1.0000 0.88750  0.92580  0.18600  Biso   1.000  C
  C75      1.0000 0.90060  0.03640  0.27040  Biso   1.000  C
  H49      1.0000 0.90240  0.06020  0.28980  Biso   1.000  H
  C76      1.0000 0.89230  0.96570  0.21450  Biso   1.000  C
  C77      1.0000 0.54340  0.70630  0.70740  Biso   1.000  C
  C78      1.0000 0.91280  0.05200  0.50430  Biso   1.000  C
  C79      1.0000 0.66770  0.78800  0.92100  Biso   1.000  C
  H50      1.0000 0.63480  0.78170  0.90500  Biso   1.000  H
  C80      1.0000 0.76290  0.80490  0.96950  Biso   1.000  C
  C81      1.0000 0.53760  0.77380  0.73400  Biso   1.000  C
  H51      1.0000 0.52040  0.79390  0.73770  Biso   1.000  H
  C82      1.0000 0.69670  0.75880  0.91480  Biso   1.000  C
  H52      1.0000 0.68240  0.73470  0.89410  Biso   1.000  H
  C83      1.0000 0.81750  0.81070  0.99890  Biso   1.000  C
  C84      1.0000 0.51290  0.73640  0.70080  Biso   1.000  C
  H53      1.0000 0.47820  0.73320  0.67650  Biso   1.000  H
  C85      1.0000 0.97570  0.06920  0.48000  Biso   1.000  C
  H54      1.0000 0.98470  0.09400  0.50030  Biso   1.000  H
  C86      1.0000 0.87480  0.00010  0.27300  Biso   1.000  C
  H55      1.0000 0.86040  0.00150  0.29410  Biso   1.000  H
  C87      1.0000 0.92160  0.03370  0.23820  Biso   1.000  C
  H56      1.0000 0.93850  0.05520  0.23660  Biso   1.000  H
  C88      1.0000 0.99550  0.05470  0.45200  Biso   1.000  C
  H57      1.0000 0.02010  0.07000  0.45470  Biso   1.000  H
  C89      1.0000 0.98350  0.02290  0.42230  Biso   1.000  C
  H58      1.0000 0.99600  0.01600  0.40050  Biso   1.000  H
  C90      1.0000 0.94900  0.99610  0.42280  Biso   1.000  C
  H59      1.0000 0.94190  0.97110  0.40400  Biso   1.000  H
  C91      1.0000 0.91620  0.99770  0.20890  Biso   1.000  C
  H60      1.0000 0.92830  0.99490  0.18560  Biso   1.000  H
  C92      1.0000 0.68550  0.82140  0.94720  Biso   1.000  C
  H61      1.0000 0.66490  0.83930  0.94870  Biso   1.000  H
  C93      1.0000 0.73480  0.83240  0.97400  Biso   1.000  C
  H62      1.0000 0.74800  0.85700  0.99380  Biso   1.000  H
  C94      1.0000 0.61310  0.74560  0.75960  Biso   1.000  C
  H63      1.0000 0.64680  0.74900  0.77720  Biso   1.000  H
  C95      1.0000 0.58610  0.77770  0.75820  Biso   1.000  C
  H64      1.0000 0.60200  0.80220  0.77450  Biso   1.000  H
  C96      1.0000 0.52440  0.66520  0.68200  Biso   1.000  C
  Dy13     1.0000 0.71826  0.62444  0.91516  Biso   1.000  Dy
  Dy14     1.0000 0.74942  0.72596  0.76428  Biso   1.000  Dy
  Dy15     1.0000 0.92043  0.86723  0.41212  Biso   1.000  Dy
  Dy16     1.0000 0.74719  0.97753  0.27691  Biso   1.000  Dy
  K13      1.0000 0.82910  0.92370  0.01960  Biso   1.000  K
  K14      1.0000 0.91640  0.83400  0.01280  Biso   1.000  K
  K15      1.0000 0.90380  0.83570  0.16820  Biso   1.000  K
  K16      1.0000 0.49340  0.57440  0.66800  Biso   1.000  K
  N13      1.0000 0.92750  0.00690  0.44940  Biso   1.000  N
  N14      1.0000 0.87300  0.96540  0.24510  Biso   1.000  N
  N15      1.0000 0.74560  0.76760  0.93990  Biso   1.000  N
  N16      1.0000 0.59150  0.71020  0.73610  Biso   1.000  N
  O373     1.0000 0.98680  0.57630  0.11700  Biso   1.000  O
  O374     1.0000 0.94280  0.57730  0.16950  Biso   1.000  O
  O375     1.0000 0.98690  0.64210  0.17230  Biso   1.000  O
  O376     1.0000 0.88460  0.51560  0.10130  Biso   1.000  O
  O377     1.0000 0.88810  0.61980  0.19400  Biso   1.000  O
  O378     1.0000 0.93280  0.68710  0.19450  Biso   1.000  O
  O379     1.0000 0.93060  0.51500  0.05090  Biso   1.000  O
  O380     1.0000 0.99680  0.62290  0.04120  Biso   1.000  O
  O381     1.0000 0.92190  0.56970  0.97140  Biso   1.000  O
  O382     1.0000 0.83180  0.50780  0.97780  Biso   1.000  O
  O383     1.0000 0.87470  0.57490  0.03480  Biso   1.000  O
  O384     1.0000 0.82710  0.57330  0.09390  Biso   1.000  O
  O385     1.0000 0.92170  0.64030  0.03880  Biso   1.000  O
  O386     1.0000 0.87630  0.64250  0.09410  Biso   1.000  O
  O387     1.0000 0.83210  0.68450  0.13010  Biso   1.000  O
  O388     1.0000 0.88390  0.75810  0.14960  Biso   1.000  O
  O389     1.0000 0.82280  0.72120  0.03470  Biso   1.000  O
  O390     1.0000 0.92110  0.71380  0.09160  Biso   1.000  O
  O391     1.0000 0.76980  0.63650  0.02150  Biso   1.000  O
  O392     1.0000 0.76980  0.56790  0.96600  Biso   1.000  O
  O393     1.0000 0.99740  0.68820  0.09580  Biso   1.000  O
  O394     1.0000 0.93560  0.68270  0.97210  Biso   1.000  O
  O395     1.0000 0.94890  0.75620  0.02910  Biso   1.000  O
  O396     1.0000 0.85750  0.70800  0.96780  Biso   1.000  O
  O397     1.0000 0.82530  0.56030  0.89130  Biso   1.000  O
  O398     1.0000 0.85820  0.63100  0.90930  Biso   1.000  O
  O399     1.0000 0.56160  0.54820  0.65020  Biso   1.000  O
  O400     1.0000 0.66270  0.80500  0.21290  Biso   1.000  O
  O401     1.0000 0.70340  0.55070  0.56920  Biso   1.000  O
  O402     1.0000 0.77940  0.54650  0.71630  Biso   1.000  O
  O403     1.0000 0.74480  0.62480  0.65050  Biso   1.000  O
  O404     1.0000 0.69750  0.84020  0.14160  Biso   1.000  O
  O405     1.0000 0.59280  0.81350  0.06610  Biso   1.000  O
  O406     1.0000 0.60140  0.53160  0.58690  Biso   1.000  O
  O407     1.0000 0.88750  0.89640  0.31370  Biso   1.000  O
  O408     1.0000 0.76260  0.61630  0.88000  Biso   1.000  O
  O409     1.0000 0.67910  0.62170  0.51740  Biso   1.000  O
  O410     1.0000 0.85430  0.81510  0.61890  Biso   1.000  O
  O411     1.0000 0.66400  0.53530  0.71180  Biso   1.000  O
  O412     1.0000 0.69350  0.85860  0.29380  Biso   1.000  O
  O413     1.0000 0.83770  0.86400  0.37640  Biso   1.000  O
  O414     1.0000 0.75890  0.91330  0.30870  Biso   1.000  O
  O415     1.0000 0.56970  0.83300  0.14040  Biso   1.000  O
  O416     1.0000 0.84060  0.95040  0.47840  Biso   1.000  O
  O417     1.0000 0.86820  0.89900  0.19760  Biso   1.000  O
  O418     1.0000 0.91890  0.81110  0.45950  Biso   1.000  O
  O419     1.0000 0.97620  0.87500  0.51970  Biso   1.000  O
  O420     1.0000 0.77060  0.78920  0.20180  Biso   1.000  O
  O421     1.0000 0.67490  0.57930  0.64480  Biso   1.000  O
  O422     1.0000 0.80410  0.94430  0.26580  Biso   1.000  O
  O423     1.0000 0.77550  0.87700  0.41230  Biso   1.000  O
  O424     1.0000 0.90130  0.95190  0.59990  Biso   1.000  O
  O425     1.0000 0.68440  0.69170  0.75720  Biso   1.000  O
  O426     1.0000 0.75550  0.68580  0.92060  Biso   1.000  O
  O427     1.0000 0.74030  0.86960  0.08810  Biso   1.000  O
  O428     1.0000 0.60710  0.96200  0.10260  Biso   1.000  O
  O429     1.0000 0.66380  0.95390  0.22570  Biso   1.000  O
  O430     1.0000 0.77400  0.64580  0.58310  Biso   1.000  O
  O431     1.0000 0.70380  0.98220  0.16870  Biso   1.000  O
  O432     1.0000 0.82590  0.60530  0.79070  Biso   1.000  O
  O433     1.0000 0.77140  0.86500  0.54740  Biso   1.000  O
  O434     1.0000 0.64030  0.61000  0.71240  Biso   1.000  O
  O435     1.0000 0.69340  0.50640  0.64440  Biso   1.000  O
  O436     1.0000 0.76540  0.92770  0.48270  Biso   1.000  O
  O437     1.0000 0.93820  0.96140  0.53980  Biso   1.000  O
  O438     1.0000 0.77450  0.81540  0.47220  Biso   1.000  O
  O439     1.0000 0.98620  0.91850  0.69930  Biso   1.000  O
  O440     1.0000 0.56940  0.88520  0.01870  Biso   1.000  O
  O441     1.0000 0.78210  0.93430  0.15280  Biso   1.000  O
  O442     1.0000 0.89300  0.93090  0.42620  Biso   1.000  O
  O443     1.0000 0.66200  0.90850  0.98910  Biso   1.000  O
  O444     1.0000 0.55710  0.64250  0.48610  Biso   1.000  O
  O445     1.0000 0.47700  0.66030  0.64650  Biso   1.000  O
  O446     1.0000 0.84350  0.88140  0.54260  Biso   1.000  O
  O447     1.0000 0.98520  0.81120  0.58490  Biso   1.000  O
  O448     1.0000 0.75210  0.93560  0.03230  Biso   1.000  O
  O449     1.0000 0.92170  0.08410  0.53540  Biso   1.000  O
  O450     1.0000 0.88030  0.02630  0.49360  Biso   1.000  O
  O451     1.0000 0.83610  0.75690  0.54100  Biso   1.000  O
  O452     1.0000 0.90360  0.92010  0.15480  Biso   1.000  O
  O453     1.0000 0.59540  0.67640  0.64570  Biso   1.000  O
  O454     1.0000 0.77270  0.66300  0.80180  Biso   1.000  O
  O455     1.0000 0.64670  0.65190  0.58660  Biso   1.000  O
  O456     1.0000 0.65280  0.64640  0.81490  Biso   1.000  O
  O457     1.0000 0.62810  0.84450  0.00550  Biso   1.000  O
  O458     1.0000 0.93370  0.75170  0.59030  Biso   1.000  O
  O459     1.0000 0.83660  0.78260  0.98300  Biso   1.000  O
  O460     1.0000 0.83010  0.92750  0.60980  Biso   1.000  O
  O461     1.0000 0.77290  0.74470  0.86510  Biso   1.000  O
  O462     1.0000 0.67150  0.91350  0.09230  Biso   1.000  O
  O463     1.0000 0.61180  0.57610  0.51250  Biso   1.000  O
  O464     1.0000 0.57410  0.60770  0.58620  Biso   1.000  O
  O465     1.0000 0.02790  0.85340  0.69080  Biso   1.000  O
  O466     1.0000 0.87990  0.81550  0.52780  Biso   1.000  O
  O467     1.0000 0.78100  0.69990  0.71360  Biso   1.000  O
  O468     1.0000 0.63680  0.88160  0.15600  Biso   1.000  O
  O469     1.0000 0.60010  0.95420  0.99740  Biso   1.000  O
  O470     1.0000 0.84240  0.83980  0.03370  Biso   1.000  O
  O471     1.0000 0.68660  0.72600  0.65540  Biso   1.000  O
  O472     1.0000 0.79850  0.57460  0.63900  Biso   1.000  O
  O473     1.0000 0.60230  0.89740  0.21530  Biso   1.000  O
  O474     1.0000 0.94220  0.87950  0.59500  Biso   1.000  O
  O475     1.0000 0.79870  0.86530  0.21130  Biso   1.000  O
  O476     1.0000 0.81510  0.99850  0.54580  Biso   1.000  O
  O477     1.0000 0.69600  0.97560  0.05850  Biso   1.000  O
  O478     1.0000 0.54380  0.90630  0.09090  Biso   1.000  O
  O479     1.0000 0.58720  0.71260  0.54960  Biso   1.000  O
  O480     1.0000 0.50460  0.67100  0.52650  Biso   1.000  O
  O481     1.0000 0.74520  0.58140  0.77550  Biso   1.000  O
  O482     1.0000 0.71010  0.79480  0.07550  Biso   1.000  O
  O483     1.0000 0.78940  0.80840  0.38870  Biso   1.000  O
  O484     1.0000 0.99760  0.99240  0.66210  Biso   1.000  O
  O485     1.0000 0.55690  0.64070  0.69610  Biso   1.000  O
  O486     1.0000 0.62300  0.68860  0.48760  Biso   1.000  O
  O487     1.0000 0.67400  0.76590  0.13190  Biso   1.000  O
  O488     1.0000 0.91020  0.87630  0.67620  Biso   1.000  O
  O489     1.0000 0.83800  0.64270  0.70810  Biso   1.000  O
  O490     1.0000 0.81140  0.80870  0.14050  Biso   1.000  O
  O491     1.0000 0.82340  0.98920  0.37560  Biso   1.000  O
  O492     1.0000 0.02240  0.91940  0.63150  Biso   1.000  O
  O493     1.0000 0.71700  0.70110  0.58960  Biso   1.000  O
  O494     1.0000 0.75400  0.83200  0.27240  Biso   1.000  O
  O495     1.0000 0.86460  0.75150  0.46940  Biso   1.000  O
  O496     1.0000 0.94760  0.81330  0.66710  Biso   1.000  O
  W127     1.0000 0.94414  0.62993  0.19992  Biso   1.000  W
  W128     1.0000 0.94431  0.53731  0.12051  Biso   1.000  W
  W129     1.0000 0.00478  0.62950  0.12131  Biso   1.000  W
  W130     1.0000 0.81708  0.62741  0.10651  Biso   1.000  W
  W131     1.0000 0.87563  0.71133  0.11535  Biso   1.000  W
  W132     1.0000 0.93476  0.70810  0.03451  Biso   1.000  W
  W133     1.0000 0.93230  0.62531  0.96271  Biso   1.000  W
  W134     1.0000 0.87367  0.53182  0.95874  Biso   1.000  W
  W135     1.0000 0.81685  0.53792  0.02965  Biso   1.000  W
  W136     1.0000 0.79689  0.72799  0.94030  Biso   1.000  W
  W137     1.0000 0.79356  0.61577  0.84187  Biso   1.000  W
  W138     1.0000 0.63311  0.65934  0.73762  Biso   1.000  W
  W139     1.0000 0.72724  0.53431  0.72294  Biso   1.000  W
  W140     1.0000 0.82388  0.59070  0.72827  Biso   1.000  W
  W141     1.0000 0.78347  0.68101  0.65436  Biso   1.000  W
  W142     1.0000 0.65578  0.71764  0.57305  Biso   1.000  W
  W143     1.0000 0.56636  0.66361  0.56257  Biso   1.000  W
  W144     1.0000 0.60876  0.56621  0.64618  Biso   1.000  W
  W145     1.0000 0.64884  0.53653  0.56377  Biso   1.000  W
  W146     1.0000 0.61113  0.63441  0.48347  Biso   1.000  W
  W147     1.0000 0.74261  0.59653  0.56643  Biso   1.000  W
  W148     1.0000 0.84329  0.86799  0.62775  Biso   1.000  W
  W149     1.0000 0.89577  0.77501  0.61471  Biso   1.000  W
  W150     1.0000 0.97865  0.86381  0.69966  Biso   1.000  W
  W151     1.0000 0.83260  0.94946  0.54772  Biso   1.000  W
  W152     1.0000 0.75866  0.87011  0.46938  Biso   1.000  W
  W153     1.0000 0.80643  0.77617  0.45354  Biso   1.000  W
  W154     1.0000 0.93143  0.77744  0.52032  Biso   1.000  W
  W155     1.0000 0.01206  0.86355  0.60316  Biso   1.000  W
  W156     1.0000 0.96934  0.94814  0.62316  Biso   1.000  W
  W157     1.0000 0.77389  0.86421  0.34255  Biso   1.000  W
  W158     1.0000 0.87514  0.97039  0.44961  Biso   1.000  W
  W159     1.0000 0.83314  0.91374  0.24116  Biso   1.000  W
  W160     1.0000 0.63141  0.84509  0.22880  Biso   1.000  W
  W161     1.0000 0.60359  0.93842  0.16515  Biso   1.000  W
  W162     1.0000 0.65254  0.97911  0.08614  Biso   1.000  W
  W163     1.0000 0.72808  0.92584  0.06802  Biso   1.000  W
  W164     1.0000 0.76270  0.82496  0.13994  Biso   1.000  W
  W165     1.0000 0.71759  0.78877  0.21364  Biso   1.000  W
  W166     1.0000 0.55448  0.85819  0.06777  Biso   1.000  W
  W167     1.0000 0.64121  0.79901  0.05567  Biso   1.000  W
  W168     1.0000 0.60513  0.90043  0.98640  Biso   1.000  W
