data_image0
_cell_length_a       48.928
_cell_length_b       48.928
_cell_length_c       48.928
_cell_angle_alpha    90
_cell_angle_beta     90
_cell_angle_gamma    90

_symmetry_space_group_name_H-M    "P 1"
_symmetry_int_tables_number       1

loop_
  _symmetry_equiv_pos_as_xyz
  'x, y, z'

loop_
  _atom_site_label
  _atom_site_occupancy
  _atom_site_fract_x
  _atom_site_fract_y
  _atom_site_fract_z
  _atom_site_thermal_displace_type
  _atom_site_B_iso_or_equiv
  _atom_site_type_symbol
  Mo1      1.0000 0.60679  0.93982  0.79167  Biso   1.000  Mo
  O1       1.0000 0.60399  0.97433  0.81165  Biso   1.000  O
  O2       1.0000 0.60928  0.91562  0.75694  Biso   1.000  O
  O3       1.0000 0.56837  0.94804  0.78218  Biso   1.000  O
  O4       1.0000 0.64558  0.94359  0.78637  Biso   1.000  O
  Mo2      1.0000 0.55603  0.96726  0.75266  Biso   1.000  Mo
  Mo3      1.0000 0.60731  0.93348  0.71915  Biso   1.000  Mo
  Zn1      1.0000 0.57844  0.00518  0.80894  Biso   1.000  Zn
  O5       1.0000 0.55877  0.99725  0.72512  Biso   1.000  O
  O6       1.0000 0.57080  0.94200  0.72614  Biso   1.000  O
  O7       1.0000 0.55479  0.00613  0.84094  Biso   1.000  O
  C1       1.0000 0.56680  0.00930  0.86270  Biso   1.000  C
  C2       1.0000 0.54780  0.01160  0.88580  Biso   1.000  C
  O8       1.0000 0.59239  0.01026  0.86508  Biso   1.000  O
  C3       1.0000 0.55830  0.01740  0.91030  Biso   1.000  C
  C4       1.0000 0.52230  0.00630  0.88300  Biso   1.000  C
  H1       1.0000 0.57700  0.02040  0.91160  Biso   1.000  H
  C5       1.0000 0.54190  0.01910  0.93500  Biso   1.000  C
  C6       1.0000 0.50350  0.00930  0.90640  Biso   1.000  C
  H2       1.0000 0.51560  0.00050  0.86620  Biso   1.000  H
  H3       1.0000 0.54960  0.02290  0.95190  Biso   1.000  H
  C7       1.0000 0.51370  0.01490  0.93180  Biso   1.000  C
  H4       1.0000 0.48470  0.00730  0.90390  Biso   1.000  H
  C8       1.0000 0.49690  0.01780  0.95670  Biso   1.000  C
  C9       1.0000 0.50030  0.04010  0.97350  Biso   1.000  C
  H5       1.0000 0.51400  0.05280  0.97000  Biso   1.000  H
  Mo4      1.0000 0.10679  0.43982  0.29167  Biso   1.000  Mo
  O9       1.0000 0.10399  0.47433  0.31165  Biso   1.000  O
  O10      1.0000 0.10928  0.41562  0.25694  Biso   1.000  O
  O11      1.0000 0.06837  0.44804  0.28218  Biso   1.000  O
  O12      1.0000 0.14558  0.44359  0.28637  Biso   1.000  O
  Mo5      1.0000 0.05603  0.46726  0.25266  Biso   1.000  Mo
  Mo6      1.0000 0.10731  0.43348  0.21915  Biso   1.000  Mo
  Zn2      1.0000 0.07844  0.50518  0.30894  Biso   1.000  Zn
  O13      1.0000 0.05877  0.49725  0.22512  Biso   1.000  O
  O14      1.0000 0.07080  0.44200  0.22614  Biso   1.000  O
  O15      1.0000 0.05479  0.50613  0.34094  Biso   1.000  O
  C10      1.0000 0.06680  0.50930  0.36270  Biso   1.000  C
  C11      1.0000 0.04780  0.51160  0.38580  Biso   1.000  C
  O16      1.0000 0.09239  0.51026  0.36508  Biso   1.000  O
  C12      1.0000 0.05830  0.51740  0.41030  Biso   1.000  C
  C13      1.0000 0.02230  0.50630  0.38300  Biso   1.000  C
  H6       1.0000 0.07700  0.52040  0.41160  Biso   1.000  H
  C14      1.0000 0.04190  0.51910  0.43500  Biso   1.000  C
  C15      1.0000 0.00350  0.50930  0.40640  Biso   1.000  C
  H7       1.0000 0.01560  0.50050  0.36620  Biso   1.000  H
  H8       1.0000 0.04960  0.52290  0.45190  Biso   1.000  H
  C16      1.0000 0.01370  0.51490  0.43180  Biso   1.000  C
  H9       1.0000 0.98470  0.50730  0.40390  Biso   1.000  H
  C17      1.0000 0.99690  0.51780  0.45670  Biso   1.000  C
  C18      1.0000 0.00030  0.54010  0.47350  Biso   1.000  C
  H10      1.0000 0.01400  0.55280  0.47000  Biso   1.000  H
  Mo7      1.0000 0.89321  0.06018  0.29167  Biso   1.000  Mo
  O17      1.0000 0.89601  0.02567  0.31165  Biso   1.000  O
  O18      1.0000 0.89072  0.08438  0.25694  Biso   1.000  O
  O19      1.0000 0.93163  0.05196  0.28218  Biso   1.000  O
  O20      1.0000 0.85442  0.05641  0.28637  Biso   1.000  O
  Mo8      1.0000 0.94397  0.03274  0.25266  Biso   1.000  Mo
  Mo9      1.0000 0.89269  0.06652  0.21915  Biso   1.000  Mo
  Zn3      1.0000 0.92156  0.99482  0.30894  Biso   1.000  Zn
  O21      1.0000 0.94123  0.00275  0.22512  Biso   1.000  O
  O22      1.0000 0.92920  0.05800  0.22614  Biso   1.000  O
  O23      1.0000 0.94521  0.99387  0.34094  Biso   1.000  O
  C19      1.0000 0.93320  0.99070  0.36270  Biso   1.000  C
  C20      1.0000 0.95220  0.98840  0.38580  Biso   1.000  C
  O24      1.0000 0.90761  0.98974  0.36508  Biso   1.000  O
  C21      1.0000 0.94170  0.98260  0.41030  Biso   1.000  C
  C22      1.0000 0.97770  0.99370  0.38300  Biso   1.000  C
  H11      1.0000 0.92300  0.97960  0.41160  Biso   1.000  H
  C23      1.0000 0.95810  0.98090  0.43500  Biso   1.000  C
  C24      1.0000 0.99650  0.99070  0.40640  Biso   1.000  C
  H12      1.0000 0.98440  0.99950  0.36620  Biso   1.000  H
  H13      1.0000 0.95040  0.97710  0.45190  Biso   1.000  H
  C25      1.0000 0.98630  0.98510  0.43180  Biso   1.000  C
  H14      1.0000 0.01530  0.99270  0.40390  Biso   1.000  H
  C26      1.0000 0.00310  0.98220  0.45670  Biso   1.000  C
  C27      1.0000 0.99970  0.95990  0.47350  Biso   1.000  C
  H15      1.0000 0.98600  0.94720  0.47000  Biso   1.000  H
  Mo10     1.0000 0.39321  0.56018  0.79167  Biso   1.000  Mo
  O25      1.0000 0.39601  0.52567  0.81165  Biso   1.000  O
  O26      1.0000 0.39072  0.58438  0.75694  Biso   1.000  O
  O27      1.0000 0.43163  0.55196  0.78218  Biso   1.000  O
  O28      1.0000 0.35442  0.55641  0.78637  Biso   1.000  O
  Mo11     1.0000 0.44397  0.53274  0.75266  Biso   1.000  Mo
  Mo12     1.0000 0.39269  0.56652  0.71915  Biso   1.000  Mo
  Zn4      1.0000 0.42156  0.49482  0.80894  Biso   1.000  Zn
  O29      1.0000 0.44123  0.50275  0.72512  Biso   1.000  O
  O30      1.0000 0.42920  0.55800  0.72614  Biso   1.000  O
  O31      1.0000 0.44521  0.49387  0.84094  Biso   1.000  O
  C28      1.0000 0.43320  0.49070  0.86270  Biso   1.000  C
  C29      1.0000 0.45220  0.48840  0.88580  Biso   1.000  C
  O32      1.0000 0.40761  0.48974  0.86508  Biso   1.000  O
  C30      1.0000 0.44170  0.48260  0.91030  Biso   1.000  C
  C31      1.0000 0.47770  0.49370  0.88300  Biso   1.000  C
  H16      1.0000 0.42300  0.47960  0.91160  Biso   1.000  H
  C32      1.0000 0.45810  0.48090  0.93500  Biso   1.000  C
  C33      1.0000 0.49650  0.49070  0.90640  Biso   1.000  C
  H17      1.0000 0.48440  0.49950  0.86620  Biso   1.000  H
  H18      1.0000 0.45040  0.47710  0.95190  Biso   1.000  H
  C34      1.0000 0.48630  0.48510  0.93180  Biso   1.000  C
  H19      1.0000 0.51530  0.49270  0.90390  Biso   1.000  H
  C35      1.0000 0.50310  0.48220  0.95670  Biso   1.000  C
  C36      1.0000 0.49970  0.45990  0.97350  Biso   1.000  C
  H20      1.0000 0.48600  0.44720  0.97000  Biso   1.000  H
  Mo13     1.0000 0.39321  0.43982  0.70833  Biso   1.000  Mo
  O33      1.0000 0.39601  0.47433  0.68835  Biso   1.000  O
  O34      1.0000 0.39072  0.41562  0.74306  Biso   1.000  O
  O35      1.0000 0.43163  0.44804  0.71782  Biso   1.000  O
  O36      1.0000 0.35442  0.44359  0.71363  Biso   1.000  O
  Mo14     1.0000 0.44397  0.46726  0.74734  Biso   1.000  Mo
  Mo15     1.0000 0.39269  0.43348  0.78085  Biso   1.000  Mo
  Zn5      1.0000 0.42156  0.50518  0.69106  Biso   1.000  Zn
  O37      1.0000 0.44123  0.49725  0.77488  Biso   1.000  O
  O38      1.0000 0.42920  0.44200  0.77386  Biso   1.000  O
  O39      1.0000 0.44521  0.50613  0.65906  Biso   1.000  O
  C37      1.0000 0.43320  0.50930  0.63730  Biso   1.000  C
  C38      1.0000 0.45220  0.51160  0.61420  Biso   1.000  C
  O40      1.0000 0.40761  0.51026  0.63492  Biso   1.000  O
  C39      1.0000 0.44170  0.51740  0.58970  Biso   1.000  C
  C40      1.0000 0.47770  0.50630  0.61700  Biso   1.000  C
  H21      1.0000 0.42300  0.52040  0.58840  Biso   1.000  H
  C41      1.0000 0.45810  0.51910  0.56500  Biso   1.000  C
  C42      1.0000 0.49650  0.50930  0.59360  Biso   1.000  C
  H22      1.0000 0.48440  0.50050  0.63380  Biso   1.000  H
  H23      1.0000 0.45040  0.52290  0.54810  Biso   1.000  H
  C43      1.0000 0.48630  0.51490  0.56820  Biso   1.000  C
  H24      1.0000 0.51530  0.50730  0.59610  Biso   1.000  H
  C44      1.0000 0.50310  0.51780  0.54330  Biso   1.000  C
  C45      1.0000 0.49970  0.54010  0.52650  Biso   1.000  C
  H25      1.0000 0.48600  0.55280  0.53000  Biso   1.000  H
  Mo16     1.0000 0.89321  0.93982  0.20833  Biso   1.000  Mo
  O41      1.0000 0.89601  0.97433  0.18835  Biso   1.000  O
  O42      1.0000 0.89072  0.91562  0.24306  Biso   1.000  O
  O43      1.0000 0.93163  0.94804  0.21782  Biso   1.000  O
  O44      1.0000 0.85442  0.94359  0.21363  Biso   1.000  O
  Mo17     1.0000 0.94397  0.96726  0.24734  Biso   1.000  Mo
  Mo18     1.0000 0.89269  0.93348  0.28085  Biso   1.000  Mo
  Zn6      1.0000 0.92156  0.00518  0.19106  Biso   1.000  Zn
  O45      1.0000 0.94123  0.99725  0.27488  Biso   1.000  O
  O46      1.0000 0.92920  0.94200  0.27386  Biso   1.000  O
  O47      1.0000 0.94521  0.00613  0.15906  Biso   1.000  O
  C46      1.0000 0.93320  0.00930  0.13730  Biso   1.000  C
  C47      1.0000 0.95220  0.01160  0.11420  Biso   1.000  C
  O48      1.0000 0.90761  0.01026  0.13492  Biso   1.000  O
  C48      1.0000 0.94170  0.01740  0.08970  Biso   1.000  C
  C49      1.0000 0.97770  0.00630  0.11700  Biso   1.000  C
  H26      1.0000 0.92300  0.02040  0.08840  Biso   1.000  H
  C50      1.0000 0.95810  0.01910  0.06500  Biso   1.000  C
  C51      1.0000 0.99650  0.00930  0.09360  Biso   1.000  C
  H27      1.0000 0.98440  0.00050  0.13380  Biso   1.000  H
  H28      1.0000 0.95040  0.02290  0.04810  Biso   1.000  H
  C52      1.0000 0.98630  0.01490  0.06820  Biso   1.000  C
  H29      1.0000 0.01530  0.00730  0.09610  Biso   1.000  H
  C53      1.0000 0.00310  0.01780  0.04330  Biso   1.000  C
  C54      1.0000 0.99970  0.04010  0.02650  Biso   1.000  C
  H30      1.0000 0.98600  0.05280  0.03000  Biso   1.000  H
  Mo19     1.0000 0.10679  0.56018  0.20833  Biso   1.000  Mo
  O49      1.0000 0.10399  0.52567  0.18835  Biso   1.000  O
  O50      1.0000 0.10928  0.58438  0.24306  Biso   1.000  O
  O51      1.0000 0.06837  0.55196  0.21782  Biso   1.000  O
  O52      1.0000 0.14558  0.55641  0.21363  Biso   1.000  O
  Mo20     1.0000 0.05603  0.53274  0.24734  Biso   1.000  Mo
  Mo21     1.0000 0.10731  0.56652  0.28085  Biso   1.000  Mo
  Zn7      1.0000 0.07844  0.49482  0.19106  Biso   1.000  Zn
  O53      1.0000 0.05877  0.50275  0.27488  Biso   1.000  O
  O54      1.0000 0.07080  0.55800  0.27386  Biso   1.000  O
  O55      1.0000 0.05479  0.49387  0.15906  Biso   1.000  O
  C55      1.0000 0.06680  0.49070  0.13730  Biso   1.000  C
  C56      1.0000 0.04780  0.48840  0.11420  Biso   1.000  C
  O56      1.0000 0.09239  0.48974  0.13492  Biso   1.000  O
  C57      1.0000 0.05830  0.48260  0.08970  Biso   1.000  C
  C58      1.0000 0.02230  0.49370  0.11700  Biso   1.000  C
  H31      1.0000 0.07700  0.47960  0.08840  Biso   1.000  H
  C59      1.0000 0.04190  0.48090  0.06500  Biso   1.000  C
  C60      1.0000 0.00350  0.49070  0.09360  Biso   1.000  C
  H32      1.0000 0.01560  0.49950  0.13380  Biso   1.000  H
  H33      1.0000 0.04960  0.47710  0.04810  Biso   1.000  H
  C61      1.0000 0.01370  0.48510  0.06820  Biso   1.000  C
  H34      1.0000 0.98470  0.49270  0.09610  Biso   1.000  H
  C62      1.0000 0.99690  0.48220  0.04330  Biso   1.000  C
  C63      1.0000 0.00030  0.45990  0.02650  Biso   1.000  C
  H35      1.0000 0.01400  0.44720  0.03000  Biso   1.000  H
  Mo22     1.0000 0.60679  0.06018  0.70833  Biso   1.000  Mo
  O57      1.0000 0.60399  0.02567  0.68835  Biso   1.000  O
  O58      1.0000 0.60928  0.08438  0.74306  Biso   1.000  O
  O59      1.0000 0.56837  0.05196  0.71782  Biso   1.000  O
  O60      1.0000 0.64558  0.05641  0.71363  Biso   1.000  O
  Mo23     1.0000 0.55603  0.03274  0.74734  Biso   1.000  Mo
  Mo24     1.0000 0.60731  0.06652  0.78085  Biso   1.000  Mo
  Zn8      1.0000 0.57844  0.99482  0.69106  Biso   1.000  Zn
  O61      1.0000 0.55877  0.00275  0.77488  Biso   1.000  O
  O62      1.0000 0.57080  0.05800  0.77386  Biso   1.000  O
  O63      1.0000 0.55479  0.99387  0.65906  Biso   1.000  O
  C64      1.0000 0.56680  0.99070  0.63730  Biso   1.000  C
  C65      1.0000 0.54780  0.98840  0.61420  Biso   1.000  C
  O64      1.0000 0.59239  0.98974  0.63492  Biso   1.000  O
  C66      1.0000 0.55830  0.98260  0.58970  Biso   1.000  C
  C67      1.0000 0.52230  0.99370  0.61700  Biso   1.000  C
  H36      1.0000 0.57700  0.97960  0.58840  Biso   1.000  H
  C68      1.0000 0.54190  0.98090  0.56500  Biso   1.000  C
  C69      1.0000 0.50350  0.99070  0.59360  Biso   1.000  C
  H37      1.0000 0.51560  0.99950  0.63380  Biso   1.000  H
  H38      1.0000 0.54960  0.97710  0.54810  Biso   1.000  H
  C70      1.0000 0.51370  0.98510  0.56820  Biso   1.000  C
  H39      1.0000 0.48470  0.99270  0.59610  Biso   1.000  H
  C71      1.0000 0.49690  0.98220  0.54330  Biso   1.000  C
  C72      1.0000 0.50030  0.95990  0.52650  Biso   1.000  C
  H40      1.0000 0.51400  0.94720  0.53000  Biso   1.000  H
  Mo25     1.0000 0.79167  0.60679  0.93982  Biso   1.000  Mo
  O65      1.0000 0.81165  0.60399  0.97433  Biso   1.000  O
  O66      1.0000 0.75694  0.60928  0.91562  Biso   1.000  O
  O67      1.0000 0.78218  0.56837  0.94804  Biso   1.000  O
  O68      1.0000 0.78637  0.64558  0.94359  Biso   1.000  O
  Mo26     1.0000 0.75266  0.55603  0.96726  Biso   1.000  Mo
  Mo27     1.0000 0.71915  0.60731  0.93348  Biso   1.000  Mo
  Zn9      1.0000 0.80894  0.57844  0.00518  Biso   1.000  Zn
  O69      1.0000 0.72512  0.55877  0.99725  Biso   1.000  O
  O70      1.0000 0.72614  0.57080  0.94200  Biso   1.000  O
  O71      1.0000 0.84094  0.55479  0.00613  Biso   1.000  O
  C73      1.0000 0.86270  0.56680  0.00930  Biso   1.000  C
  C74      1.0000 0.88580  0.54780  0.01160  Biso   1.000  C
  O72      1.0000 0.86508  0.59239  0.01026  Biso   1.000  O
  C75      1.0000 0.91030  0.55830  0.01740  Biso   1.000  C
  C76      1.0000 0.88300  0.52230  0.00630  Biso   1.000  C
  H41      1.0000 0.91160  0.57700  0.02040  Biso   1.000  H
  C77      1.0000 0.93500  0.54190  0.01910  Biso   1.000  C
  C78      1.0000 0.90640  0.50350  0.00930  Biso   1.000  C
  H42      1.0000 0.86620  0.51560  0.00050  Biso   1.000  H
  H43      1.0000 0.95190  0.54960  0.02290  Biso   1.000  H
  C79      1.0000 0.93180  0.51370  0.01490  Biso   1.000  C
  H44      1.0000 0.90390  0.48470  0.00730  Biso   1.000  H
  C80      1.0000 0.95670  0.49690  0.01780  Biso   1.000  C
  C81      1.0000 0.97350  0.50030  0.04010  Biso   1.000  C
  H45      1.0000 0.97000  0.51400  0.05280  Biso   1.000  H
  Mo28     1.0000 0.29167  0.10679  0.43982  Biso   1.000  Mo
  O73      1.0000 0.31165  0.10399  0.47433  Biso   1.000  O
  O74      1.0000 0.25694  0.10928  0.41562  Biso   1.000  O
  O75      1.0000 0.28218  0.06837  0.44804  Biso   1.000  O
  O76      1.0000 0.28637  0.14558  0.44359  Biso   1.000  O
  Mo29     1.0000 0.25266  0.05603  0.46726  Biso   1.000  Mo
  Mo30     1.0000 0.21915  0.10731  0.43348  Biso   1.000  Mo
  Zn10     1.0000 0.30894  0.07844  0.50518  Biso   1.000  Zn
  O77      1.0000 0.22512  0.05877  0.49725  Biso   1.000  O
  O78      1.0000 0.22614  0.07080  0.44200  Biso   1.000  O
  O79      1.0000 0.34094  0.05479  0.50613  Biso   1.000  O
  C82      1.0000 0.36270  0.06680  0.50930  Biso   1.000  C
  C83      1.0000 0.38580  0.04780  0.51160  Biso   1.000  C
  O80      1.0000 0.36508  0.09239  0.51026  Biso   1.000  O
  C84      1.0000 0.41030  0.05830  0.51740  Biso   1.000  C
  C85      1.0000 0.38300  0.02230  0.50630  Biso   1.000  C
  H46      1.0000 0.41160  0.07700  0.52040  Biso   1.000  H
  C86      1.0000 0.43500  0.04190  0.51910  Biso   1.000  C
  C87      1.0000 0.40640  0.00350  0.50930  Biso   1.000  C
  H47      1.0000 0.36620  0.01560  0.50050  Biso   1.000  H
  H48      1.0000 0.45190  0.04960  0.52290  Biso   1.000  H
  C88      1.0000 0.43180  0.01370  0.51490  Biso   1.000  C
  H49      1.0000 0.40390  0.98470  0.50730  Biso   1.000  H
  C89      1.0000 0.45670  0.99690  0.51780  Biso   1.000  C
  C90      1.0000 0.47350  0.00030  0.54010  Biso   1.000  C
  H50      1.0000 0.47000  0.01400  0.55280  Biso   1.000  H
  Mo31     1.0000 0.29167  0.89321  0.06018  Biso   1.000  Mo
  O81      1.0000 0.31165  0.89601  0.02567  Biso   1.000  O
  O82      1.0000 0.25694  0.89072  0.08438  Biso   1.000  O
  O83      1.0000 0.28218  0.93163  0.05196  Biso   1.000  O
  O84      1.0000 0.28637  0.85442  0.05641  Biso   1.000  O
  Mo32     1.0000 0.25266  0.94397  0.03274  Biso   1.000  Mo
  Mo33     1.0000 0.21915  0.89269  0.06652  Biso   1.000  Mo
  Zn11     1.0000 0.30894  0.92156  0.99482  Biso   1.000  Zn
  O85      1.0000 0.22512  0.94123  0.00275  Biso   1.000  O
  O86      1.0000 0.22614  0.92920  0.05800  Biso   1.000  O
  O87      1.0000 0.34094  0.94521  0.99387  Biso   1.000  O
  C91      1.0000 0.36270  0.93320  0.99070  Biso   1.000  C
  C92      1.0000 0.38580  0.95220  0.98840  Biso   1.000  C
  O88      1.0000 0.36508  0.90761  0.98974  Biso   1.000  O
  C93      1.0000 0.41030  0.94170  0.98260  Biso   1.000  C
  C94      1.0000 0.38300  0.97770  0.99370  Biso   1.000  C
  H51      1.0000 0.41160  0.92300  0.97960  Biso   1.000  H
  C95      1.0000 0.43500  0.95810  0.98090  Biso   1.000  C
  C96      1.0000 0.40640  0.99650  0.99070  Biso   1.000  C
  H52      1.0000 0.36620  0.98440  0.99950  Biso   1.000  H
  H53      1.0000 0.45190  0.95040  0.97710  Biso   1.000  H
  C97      1.0000 0.43180  0.98630  0.98510  Biso   1.000  C
  H54      1.0000 0.40390  0.01530  0.99270  Biso   1.000  H
  C98      1.0000 0.45670  0.00310  0.98220  Biso   1.000  C
  C99      1.0000 0.47350  0.99970  0.95990  Biso   1.000  C
  H55      1.0000 0.47000  0.98600  0.94720  Biso   1.000  H
  Mo34     1.0000 0.79167  0.39321  0.56018  Biso   1.000  Mo
  O89      1.0000 0.81165  0.39601  0.52567  Biso   1.000  O
  O90      1.0000 0.75694  0.39072  0.58438  Biso   1.000  O
  O91      1.0000 0.78218  0.43163  0.55196  Biso   1.000  O
  O92      1.0000 0.78637  0.35442  0.55641  Biso   1.000  O
  Mo35     1.0000 0.75266  0.44397  0.53274  Biso   1.000  Mo
  Mo36     1.0000 0.71915  0.39269  0.56652  Biso   1.000  Mo
  Zn12     1.0000 0.80894  0.42156  0.49482  Biso   1.000  Zn
  O93      1.0000 0.72512  0.44123  0.50275  Biso   1.000  O
  O94      1.0000 0.72614  0.42920  0.55800  Biso   1.000  O
  O95      1.0000 0.84094  0.44521  0.49387  Biso   1.000  O
  C100     1.0000 0.86270  0.43320  0.49070  Biso   1.000  C
  C101     1.0000 0.88580  0.45220  0.48840  Biso   1.000  C
  O96      1.0000 0.86508  0.40761  0.48974  Biso   1.000  O
  C102     1.0000 0.91030  0.44170  0.48260  Biso   1.000  C
  C103     1.0000 0.88300  0.47770  0.49370  Biso   1.000  C
  H56      1.0000 0.91160  0.42300  0.47960  Biso   1.000  H
  C104     1.0000 0.93500  0.45810  0.48090  Biso   1.000  C
  C105     1.0000 0.90640  0.49650  0.49070  Biso   1.000  C
  H57      1.0000 0.86620  0.48440  0.49950  Biso   1.000  H
  H58      1.0000 0.95190  0.45040  0.47710  Biso   1.000  H
  C106     1.0000 0.93180  0.48630  0.48510  Biso   1.000  C
  H59      1.0000 0.90390  0.51530  0.49270  Biso   1.000  H
  C107     1.0000 0.95670  0.50310  0.48220  Biso   1.000  C
  C108     1.0000 0.97350  0.49970  0.45990  Biso   1.000  C
  H60      1.0000 0.97000  0.48600  0.44720  Biso   1.000  H
  Mo37     1.0000 0.70833  0.39321  0.43982  Biso   1.000  Mo
  O97      1.0000 0.68835  0.39601  0.47433  Biso   1.000  O
  O98      1.0000 0.74306  0.39072  0.41562  Biso   1.000  O
  O99      1.0000 0.71782  0.43163  0.44804  Biso   1.000  O
  O100     1.0000 0.71363  0.35442  0.44359  Biso   1.000  O
  Mo38     1.0000 0.74734  0.44397  0.46726  Biso   1.000  Mo
  Mo39     1.0000 0.78085  0.39269  0.43348  Biso   1.000  Mo
  Zn13     1.0000 0.69106  0.42156  0.50518  Biso   1.000  Zn
  O101     1.0000 0.77488  0.44123  0.49725  Biso   1.000  O
  O102     1.0000 0.77386  0.42920  0.44200  Biso   1.000  O
  O103     1.0000 0.65906  0.44521  0.50613  Biso   1.000  O
  C109     1.0000 0.63730  0.43320  0.50930  Biso   1.000  C
  C110     1.0000 0.61420  0.45220  0.51160  Biso   1.000  C
  O104     1.0000 0.63492  0.40761  0.51026  Biso   1.000  O
  C111     1.0000 0.58970  0.44170  0.51740  Biso   1.000  C
  C112     1.0000 0.61700  0.47770  0.50630  Biso   1.000  C
  H61      1.0000 0.58840  0.42300  0.52040  Biso   1.000  H
  C113     1.0000 0.56500  0.45810  0.51910  Biso   1.000  C
  C114     1.0000 0.59360  0.49650  0.50930  Biso   1.000  C
  H62      1.0000 0.63380  0.48440  0.50050  Biso   1.000  H
  H63      1.0000 0.54810  0.45040  0.52290  Biso   1.000  H
  C115     1.0000 0.56820  0.48630  0.51490  Biso   1.000  C
  H64      1.0000 0.59610  0.51530  0.50730  Biso   1.000  H
  C116     1.0000 0.54330  0.50310  0.51780  Biso   1.000  C
  C117     1.0000 0.52650  0.49970  0.54010  Biso   1.000  C
  H65      1.0000 0.53000  0.48600  0.55280  Biso   1.000  H
  Mo40     1.0000 0.20833  0.89321  0.93982  Biso   1.000  Mo
  O105     1.0000 0.18835  0.89601  0.97433  Biso   1.000  O
  O106     1.0000 0.24306  0.89072  0.91562  Biso   1.000  O
  O107     1.0000 0.21782  0.93163  0.94804  Biso   1.000  O
  O108     1.0000 0.21363  0.85442  0.94359  Biso   1.000  O
  Mo41     1.0000 0.24734  0.94397  0.96726  Biso   1.000  Mo
  Mo42     1.0000 0.28085  0.89269  0.93348  Biso   1.000  Mo
  Zn14     1.0000 0.19106  0.92156  0.00518  Biso   1.000  Zn
  O109     1.0000 0.27488  0.94123  0.99725  Biso   1.000  O
  O110     1.0000 0.27386  0.92920  0.94200  Biso   1.000  O
  O111     1.0000 0.15906  0.94521  0.00613  Biso   1.000  O
  C118     1.0000 0.13730  0.93320  0.00930  Biso   1.000  C
  C119     1.0000 0.11420  0.95220  0.01160  Biso   1.000  C
  O112     1.0000 0.13492  0.90761  0.01026  Biso   1.000  O
  C120     1.0000 0.08970  0.94170  0.01740  Biso   1.000  C
  C121     1.0000 0.11700  0.97770  0.00630  Biso   1.000  C
  H66      1.0000 0.08840  0.92300  0.02040  Biso   1.000  H
  C122     1.0000 0.06500  0.95810  0.01910  Biso   1.000  C
  C123     1.0000 0.09360  0.99650  0.00930  Biso   1.000  C
  H67      1.0000 0.13380  0.98440  0.00050  Biso   1.000  H
  H68      1.0000 0.04810  0.95040  0.02290  Biso   1.000  H
  C124     1.0000 0.06820  0.98630  0.01490  Biso   1.000  C
  H69      1.0000 0.09610  0.01530  0.00730  Biso   1.000  H
  C125     1.0000 0.04330  0.00310  0.01780  Biso   1.000  C
  C126     1.0000 0.02650  0.99970  0.04010  Biso   1.000  C
  H70      1.0000 0.03000  0.98600  0.05280  Biso   1.000  H
  Mo43     1.0000 0.20833  0.10679  0.56018  Biso   1.000  Mo
  O113     1.0000 0.18835  0.10399  0.52567  Biso   1.000  O
  O114     1.0000 0.24306  0.10928  0.58438  Biso   1.000  O
  O115     1.0000 0.21782  0.06837  0.55196  Biso   1.000  O
  O116     1.0000 0.21363  0.14558  0.55641  Biso   1.000  O
  Mo44     1.0000 0.24734  0.05603  0.53274  Biso   1.000  Mo
  Mo45     1.0000 0.28085  0.10731  0.56652  Biso   1.000  Mo
  Zn15     1.0000 0.19106  0.07844  0.49482  Biso   1.000  Zn
  O117     1.0000 0.27488  0.05877  0.50275  Biso   1.000  O
  O118     1.0000 0.27386  0.07080  0.55800  Biso   1.000  O
  O119     1.0000 0.15906  0.05479  0.49387  Biso   1.000  O
  C127     1.0000 0.13730  0.06680  0.49070  Biso   1.000  C
  C128     1.0000 0.11420  0.04780  0.48840  Biso   1.000  C
  O120     1.0000 0.13492  0.09239  0.48974  Biso   1.000  O
  C129     1.0000 0.08970  0.05830  0.48260  Biso   1.000  C
  C130     1.0000 0.11700  0.02230  0.49370  Biso   1.000  C
  H71      1.0000 0.08840  0.07700  0.47960  Biso   1.000  H
  C131     1.0000 0.06500  0.04190  0.48090  Biso   1.000  C
  C132     1.0000 0.09360  0.00350  0.49070  Biso   1.000  C
  H72      1.0000 0.13380  0.01560  0.49950  Biso   1.000  H
  H73      1.0000 0.04810  0.04960  0.47710  Biso   1.000  H
  C133     1.0000 0.06820  0.01370  0.48510  Biso   1.000  C
  H74      1.0000 0.09610  0.98470  0.49270  Biso   1.000  H
  C134     1.0000 0.04330  0.99690  0.48220  Biso   1.000  C
  C135     1.0000 0.02650  0.00030  0.45990  Biso   1.000  C
  H75      1.0000 0.03000  0.01400  0.44720  Biso   1.000  H
  Mo46     1.0000 0.70833  0.60679  0.06018  Biso   1.000  Mo
  O121     1.0000 0.68835  0.60399  0.02567  Biso   1.000  O
  O122     1.0000 0.74306  0.60928  0.08438  Biso   1.000  O
  O123     1.0000 0.71782  0.56837  0.05196  Biso   1.000  O
  O124     1.0000 0.71363  0.64558  0.05641  Biso   1.000  O
  Mo47     1.0000 0.74734  0.55603  0.03274  Biso   1.000  Mo
  Mo48     1.0000 0.78085  0.60731  0.06652  Biso   1.000  Mo
  Zn16     1.0000 0.69106  0.57844  0.99482  Biso   1.000  Zn
  O125     1.0000 0.77488  0.55877  0.00275  Biso   1.000  O
  O126     1.0000 0.77386  0.57080  0.05800  Biso   1.000  O
  O127     1.0000 0.65906  0.55479  0.99387  Biso   1.000  O
  C136     1.0000 0.63730  0.56680  0.99070  Biso   1.000  C
  C137     1.0000 0.61420  0.54780  0.98840  Biso   1.000  C
  O128     1.0000 0.63492  0.59239  0.98974  Biso   1.000  O
  C138     1.0000 0.58970  0.55830  0.98260  Biso   1.000  C
  C139     1.0000 0.61700  0.52230  0.99370  Biso   1.000  C
  H76      1.0000 0.58840  0.57700  0.97960  Biso   1.000  H
  C140     1.0000 0.56500  0.54190  0.98090  Biso   1.000  C
  C141     1.0000 0.59360  0.50350  0.99070  Biso   1.000  C
  H77      1.0000 0.63380  0.51560  0.99950  Biso   1.000  H
  H78      1.0000 0.54810  0.54960  0.97710  Biso   1.000  H
  C142     1.0000 0.56820  0.51370  0.98510  Biso   1.000  C
  H79      1.0000 0.59610  0.48470  0.99270  Biso   1.000  H
  C143     1.0000 0.54330  0.49690  0.98220  Biso   1.000  C
  C144     1.0000 0.52650  0.50030  0.95990  Biso   1.000  C
  H80      1.0000 0.53000  0.51400  0.94720  Biso   1.000  H
  Mo49     1.0000 0.93982  0.79167  0.60679  Biso   1.000  Mo
  O129     1.0000 0.97433  0.81165  0.60399  Biso   1.000  O
  O130     1.0000 0.91562  0.75694  0.60928  Biso   1.000  O
  O131     1.0000 0.94804  0.78218  0.56837  Biso   1.000  O
  O132     1.0000 0.94359  0.78637  0.64558  Biso   1.000  O
  Mo50     1.0000 0.96726  0.75266  0.55603  Biso   1.000  Mo
  Mo51     1.0000 0.93348  0.71915  0.60731  Biso   1.000  Mo
  Zn17     1.0000 0.00518  0.80894  0.57844  Biso   1.000  Zn
  O133     1.0000 0.99725  0.72512  0.55877  Biso   1.000  O
  O134     1.0000 0.94200  0.72614  0.57080  Biso   1.000  O
  O135     1.0000 0.00613  0.84094  0.55479  Biso   1.000  O
  C145     1.0000 0.00930  0.86270  0.56680  Biso   1.000  C
  C146     1.0000 0.01160  0.88580  0.54780  Biso   1.000  C
  O136     1.0000 0.01026  0.86508  0.59239  Biso   1.000  O
  C147     1.0000 0.01740  0.91030  0.55830  Biso   1.000  C
  C148     1.0000 0.00630  0.88300  0.52230  Biso   1.000  C
  H81      1.0000 0.02040  0.91160  0.57700  Biso   1.000  H
  C149     1.0000 0.01910  0.93500  0.54190  Biso   1.000  C
  C150     1.0000 0.00930  0.90640  0.50350  Biso   1.000  C
  H82      1.0000 0.00050  0.86620  0.51560  Biso   1.000  H
  H83      1.0000 0.02290  0.95190  0.54960  Biso   1.000  H
  C151     1.0000 0.01490  0.93180  0.51370  Biso   1.000  C
  H84      1.0000 0.00730  0.90390  0.48470  Biso   1.000  H
  C152     1.0000 0.01780  0.95670  0.49690  Biso   1.000  C
  C153     1.0000 0.04010  0.97350  0.50030  Biso   1.000  C
  H85      1.0000 0.05280  0.97000  0.51400  Biso   1.000  H
  Mo52     1.0000 0.43982  0.29167  0.10679  Biso   1.000  Mo
  O137     1.0000 0.47433  0.31165  0.10399  Biso   1.000  O
  O138     1.0000 0.41562  0.25694  0.10928  Biso   1.000  O
  O139     1.0000 0.44804  0.28218  0.06837  Biso   1.000  O
  O140     1.0000 0.44359  0.28637  0.14558  Biso   1.000  O
  Mo53     1.0000 0.46726  0.25266  0.05603  Biso   1.000  Mo
  Mo54     1.0000 0.43348  0.21915  0.10731  Biso   1.000  Mo
  Zn18     1.0000 0.50518  0.30894  0.07844  Biso   1.000  Zn
  O141     1.0000 0.49725  0.22512  0.05877  Biso   1.000  O
  O142     1.0000 0.44200  0.22614  0.07080  Biso   1.000  O
  O143     1.0000 0.50613  0.34094  0.05479  Biso   1.000  O
  C154     1.0000 0.50930  0.36270  0.06680  Biso   1.000  C
  C155     1.0000 0.51160  0.38580  0.04780  Biso   1.000  C
  O144     1.0000 0.51026  0.36508  0.09239  Biso   1.000  O
  C156     1.0000 0.51740  0.41030  0.05830  Biso   1.000  C
  C157     1.0000 0.50630  0.38300  0.02230  Biso   1.000  C
  H86      1.0000 0.52040  0.41160  0.07700  Biso   1.000  H
  C158     1.0000 0.51910  0.43500  0.04190  Biso   1.000  C
  C159     1.0000 0.50930  0.40640  0.00350  Biso   1.000  C
  H87      1.0000 0.50050  0.36620  0.01560  Biso   1.000  H
  H88      1.0000 0.52290  0.45190  0.04960  Biso   1.000  H
  C160     1.0000 0.51490  0.43180  0.01370  Biso   1.000  C
  H89      1.0000 0.50730  0.40390  0.98470  Biso   1.000  H
  C161     1.0000 0.51780  0.45670  0.99690  Biso   1.000  C
  C162     1.0000 0.54010  0.47350  0.00030  Biso   1.000  C
  H90      1.0000 0.55280  0.47000  0.01400  Biso   1.000  H
  Mo55     1.0000 0.06018  0.29167  0.89321  Biso   1.000  Mo
  O145     1.0000 0.02567  0.31165  0.89601  Biso   1.000  O
  O146     1.0000 0.08438  0.25694  0.89072  Biso   1.000  O
  O147     1.0000 0.05196  0.28218  0.93163  Biso   1.000  O
  O148     1.0000 0.05641  0.28637  0.85442  Biso   1.000  O
  Mo56     1.0000 0.03274  0.25266  0.94397  Biso   1.000  Mo
  Mo57     1.0000 0.06652  0.21915  0.89269  Biso   1.000  Mo
  Zn19     1.0000 0.99482  0.30894  0.92156  Biso   1.000  Zn
  O149     1.0000 0.00275  0.22512  0.94123  Biso   1.000  O
  O150     1.0000 0.05800  0.22614  0.92920  Biso   1.000  O
  O151     1.0000 0.99387  0.34094  0.94521  Biso   1.000  O
  C163     1.0000 0.99070  0.36270  0.93320  Biso   1.000  C
  C164     1.0000 0.98840  0.38580  0.95220  Biso   1.000  C
  O152     1.0000 0.98974  0.36508  0.90761  Biso   1.000  O
  C165     1.0000 0.98260  0.41030  0.94170  Biso   1.000  C
  C166     1.0000 0.99370  0.38300  0.97770  Biso   1.000  C
  H91      1.0000 0.97960  0.41160  0.92300  Biso   1.000  H
  C167     1.0000 0.98090  0.43500  0.95810  Biso   1.000  C
  C168     1.0000 0.99070  0.40640  0.99650  Biso   1.000  C
  H92      1.0000 0.99950  0.36620  0.98440  Biso   1.000  H
  H93      1.0000 0.97710  0.45190  0.95040  Biso   1.000  H
  C169     1.0000 0.98510  0.43180  0.98630  Biso   1.000  C
  H94      1.0000 0.99270  0.40390  0.01530  Biso   1.000  H
  C170     1.0000 0.98220  0.45670  0.00310  Biso   1.000  C
  C171     1.0000 0.95990  0.47350  0.99970  Biso   1.000  C
  H95      1.0000 0.94720  0.47000  0.98600  Biso   1.000  H
  Mo58     1.0000 0.56018  0.79167  0.39321  Biso   1.000  Mo
  O153     1.0000 0.52567  0.81165  0.39601  Biso   1.000  O
  O154     1.0000 0.58438  0.75694  0.39072  Biso   1.000  O
  O155     1.0000 0.55196  0.78218  0.43163  Biso   1.000  O
  O156     1.0000 0.55641  0.78637  0.35442  Biso   1.000  O
  Mo59     1.0000 0.53274  0.75266  0.44397  Biso   1.000  Mo
  Mo60     1.0000 0.56652  0.71915  0.39269  Biso   1.000  Mo
  Zn20     1.0000 0.49482  0.80894  0.42156  Biso   1.000  Zn
  O157     1.0000 0.50275  0.72512  0.44123  Biso   1.000  O
  O158     1.0000 0.55800  0.72614  0.42920  Biso   1.000  O
  O159     1.0000 0.49387  0.84094  0.44521  Biso   1.000  O
  C172     1.0000 0.49070  0.86270  0.43320  Biso   1.000  C
  C173     1.0000 0.48840  0.88580  0.45220  Biso   1.000  C
  O160     1.0000 0.48974  0.86508  0.40761  Biso   1.000  O
  C174     1.0000 0.48260  0.91030  0.44170  Biso   1.000  C
  C175     1.0000 0.49370  0.88300  0.47770  Biso   1.000  C
  H96      1.0000 0.47960  0.91160  0.42300  Biso   1.000  H
  C176     1.0000 0.48090  0.93500  0.45810  Biso   1.000  C
  C177     1.0000 0.49070  0.90640  0.49650  Biso   1.000  C
  H97      1.0000 0.49950  0.86620  0.48440  Biso   1.000  H
  H98      1.0000 0.47710  0.95190  0.45040  Biso   1.000  H
  C178     1.0000 0.48510  0.93180  0.48630  Biso   1.000  C
  H99      1.0000 0.49270  0.90390  0.51530  Biso   1.000  H
  C179     1.0000 0.48220  0.95670  0.50310  Biso   1.000  C
  C180     1.0000 0.45990  0.97350  0.49970  Biso   1.000  C
  H100     1.0000 0.44720  0.97000  0.48600  Biso   1.000  H
  Mo61     1.0000 0.43982  0.70833  0.39321  Biso   1.000  Mo
  O161     1.0000 0.47433  0.68835  0.39601  Biso   1.000  O
  O162     1.0000 0.41562  0.74306  0.39072  Biso   1.000  O
  O163     1.0000 0.44804  0.71782  0.43163  Biso   1.000  O
  O164     1.0000 0.44359  0.71363  0.35442  Biso   1.000  O
  Mo62     1.0000 0.46726  0.74734  0.44397  Biso   1.000  Mo
  Mo63     1.0000 0.43348  0.78085  0.39269  Biso   1.000  Mo
  Zn21     1.0000 0.50518  0.69106  0.42156  Biso   1.000  Zn
  O165     1.0000 0.49725  0.77488  0.44123  Biso   1.000  O
  O166     1.0000 0.44200  0.77386  0.42920  Biso   1.000  O
  O167     1.0000 0.50613  0.65906  0.44521  Biso   1.000  O
  C181     1.0000 0.50930  0.63730  0.43320  Biso   1.000  C
  C182     1.0000 0.51160  0.61420  0.45220  Biso   1.000  C
  O168     1.0000 0.51026  0.63492  0.40761  Biso   1.000  O
  C183     1.0000 0.51740  0.58970  0.44170  Biso   1.000  C
  C184     1.0000 0.50630  0.61700  0.47770  Biso   1.000  C
  H101     1.0000 0.52040  0.58840  0.42300  Biso   1.000  H
  C185     1.0000 0.51910  0.56500  0.45810  Biso   1.000  C
  C186     1.0000 0.50930  0.59360  0.49650  Biso   1.000  C
  H102     1.0000 0.50050  0.63380  0.48440  Biso   1.000  H
  H103     1.0000 0.52290  0.54810  0.45040  Biso   1.000  H
  C187     1.0000 0.51490  0.56820  0.48630  Biso   1.000  C
  H104     1.0000 0.50730  0.59610  0.51530  Biso   1.000  H
  C188     1.0000 0.51780  0.54330  0.50310  Biso   1.000  C
  C189     1.0000 0.54010  0.52650  0.49970  Biso   1.000  C
  H105     1.0000 0.55280  0.53000  0.48600  Biso   1.000  H
  Mo64     1.0000 0.93982  0.20833  0.89321  Biso   1.000  Mo
  O169     1.0000 0.97433  0.18835  0.89601  Biso   1.000  O
  O170     1.0000 0.91562  0.24306  0.89072  Biso   1.000  O
  O171     1.0000 0.94804  0.21782  0.93163  Biso   1.000  O
  O172     1.0000 0.94359  0.21363  0.85442  Biso   1.000  O
  Mo65     1.0000 0.96726  0.24734  0.94397  Biso   1.000  Mo
  Mo66     1.0000 0.93348  0.28085  0.89269  Biso   1.000  Mo
  Zn22     1.0000 0.00518  0.19106  0.92156  Biso   1.000  Zn
  O173     1.0000 0.99725  0.27488  0.94123  Biso   1.000  O
  O174     1.0000 0.94200  0.27386  0.92920  Biso   1.000  O
  O175     1.0000 0.00613  0.15906  0.94521  Biso   1.000  O
  C190     1.0000 0.00930  0.13730  0.93320  Biso   1.000  C
  C191     1.0000 0.01160  0.11420  0.95220  Biso   1.000  C
  O176     1.0000 0.01026  0.13492  0.90761  Biso   1.000  O
  C192     1.0000 0.01740  0.08970  0.94170  Biso   1.000  C
  C193     1.0000 0.00630  0.11700  0.97770  Biso   1.000  C
  H106     1.0000 0.02040  0.08840  0.92300  Biso   1.000  H
  C194     1.0000 0.01910  0.06500  0.95810  Biso   1.000  C
  C195     1.0000 0.00930  0.09360  0.99650  Biso   1.000  C
  H107     1.0000 0.00050  0.13380  0.98440  Biso   1.000  H
  H108     1.0000 0.02290  0.04810  0.95040  Biso   1.000  H
  C196     1.0000 0.01490  0.06820  0.98630  Biso   1.000  C
  H109     1.0000 0.00730  0.09610  0.01530  Biso   1.000  H
  C197     1.0000 0.01780  0.04330  0.00310  Biso   1.000  C
  C198     1.0000 0.04010  0.02650  0.99970  Biso   1.000  C
  H110     1.0000 0.05280  0.03000  0.98600  Biso   1.000  H
  Mo67     1.0000 0.56018  0.20833  0.10679  Biso   1.000  Mo
  O177     1.0000 0.52567  0.18835  0.10399  Biso   1.000  O
  O178     1.0000 0.58438  0.24306  0.10928  Biso   1.000  O
  O179     1.0000 0.55196  0.21782  0.06837  Biso   1.000  O
  O180     1.0000 0.55641  0.21363  0.14558  Biso   1.000  O
  Mo68     1.0000 0.53274  0.24734  0.05603  Biso   1.000  Mo
  Mo69     1.0000 0.56652  0.28085  0.10731  Biso   1.000  Mo
  Zn23     1.0000 0.49482  0.19106  0.07844  Biso   1.000  Zn
  O181     1.0000 0.50275  0.27488  0.05877  Biso   1.000  O
  O182     1.0000 0.55800  0.27386  0.07080  Biso   1.000  O
  O183     1.0000 0.49387  0.15906  0.05479  Biso   1.000  O
  C199     1.0000 0.49070  0.13730  0.06680  Biso   1.000  C
  C200     1.0000 0.48840  0.11420  0.04780  Biso   1.000  C
  O184     1.0000 0.48974  0.13492  0.09239  Biso   1.000  O
  C201     1.0000 0.48260  0.08970  0.05830  Biso   1.000  C
  C202     1.0000 0.49370  0.11700  0.02230  Biso   1.000  C
  H111     1.0000 0.47960  0.08840  0.07700  Biso   1.000  H
  C203     1.0000 0.48090  0.06500  0.04190  Biso   1.000  C
  C204     1.0000 0.49070  0.09360  0.00350  Biso   1.000  C
  H112     1.0000 0.49950  0.13380  0.01560  Biso   1.000  H
  H113     1.0000 0.47710  0.04810  0.04960  Biso   1.000  H
  C205     1.0000 0.48510  0.06820  0.01370  Biso   1.000  C
  H114     1.0000 0.49270  0.09610  0.98470  Biso   1.000  H
  C206     1.0000 0.48220  0.04330  0.99690  Biso   1.000  C
  C207     1.0000 0.45990  0.02650  0.00030  Biso   1.000  C
  H115     1.0000 0.44720  0.03000  0.01400  Biso   1.000  H
  Mo70     1.0000 0.06018  0.70833  0.60679  Biso   1.000  Mo
  O185     1.0000 0.02567  0.68835  0.60399  Biso   1.000  O
  O186     1.0000 0.08438  0.74306  0.60928  Biso   1.000  O
  O187     1.0000 0.05196  0.71782  0.56837  Biso   1.000  O
  O188     1.0000 0.05641  0.71363  0.64558  Biso   1.000  O
  Mo71     1.0000 0.03274  0.74734  0.55603  Biso   1.000  Mo
  Mo72     1.0000 0.06652  0.78085  0.60731  Biso   1.000  Mo
  Zn24     1.0000 0.99482  0.69106  0.57844  Biso   1.000  Zn
  O189     1.0000 0.00275  0.77488  0.55877  Biso   1.000  O
  O190     1.0000 0.05800  0.77386  0.57080  Biso   1.000  O
  O191     1.0000 0.99387  0.65906  0.55479  Biso   1.000  O
  C208     1.0000 0.99070  0.63730  0.56680  Biso   1.000  C
  C209     1.0000 0.98840  0.61420  0.54780  Biso   1.000  C
  O192     1.0000 0.98974  0.63492  0.59239  Biso   1.000  O
  C210     1.0000 0.98260  0.58970  0.55830  Biso   1.000  C
  C211     1.0000 0.99370  0.61700  0.52230  Biso   1.000  C
  H116     1.0000 0.97960  0.58840  0.57700  Biso   1.000  H
  C212     1.0000 0.98090  0.56500  0.54190  Biso   1.000  C
  C213     1.0000 0.99070  0.59360  0.50350  Biso   1.000  C
  H117     1.0000 0.99950  0.63380  0.51560  Biso   1.000  H
  H118     1.0000 0.97710  0.54810  0.54960  Biso   1.000  H
  C214     1.0000 0.98510  0.56820  0.51370  Biso   1.000  C
  H119     1.0000 0.99270  0.59610  0.48470  Biso   1.000  H
  C215     1.0000 0.98220  0.54330  0.49690  Biso   1.000  C
  C216     1.0000 0.95990  0.52650  0.50030  Biso   1.000  C
  H120     1.0000 0.94720  0.53000  0.51400  Biso   1.000  H
  Mo73     1.0000 0.31018  0.14321  0.54167  Biso   1.000  Mo
  O193     1.0000 0.27567  0.14601  0.56165  Biso   1.000  O
  O194     1.0000 0.33438  0.14072  0.50694  Biso   1.000  O
  O195     1.0000 0.30196  0.18163  0.53218  Biso   1.000  O
  O196     1.0000 0.30641  0.10442  0.53637  Biso   1.000  O
  Mo74     1.0000 0.28274  0.19397  0.50266  Biso   1.000  Mo
  Mo75     1.0000 0.31652  0.14269  0.46915  Biso   1.000  Mo
  Zn25     1.0000 0.24482  0.17156  0.55894  Biso   1.000  Zn
  O197     1.0000 0.25275  0.19123  0.47512  Biso   1.000  O
  O198     1.0000 0.30800  0.17920  0.47614  Biso   1.000  O
  O199     1.0000 0.24387  0.19521  0.59094  Biso   1.000  O
  C217     1.0000 0.24070  0.18320  0.61270  Biso   1.000  C
  C218     1.0000 0.23840  0.20220  0.63580  Biso   1.000  C
  O200     1.0000 0.23974  0.15761  0.61508  Biso   1.000  O
  C219     1.0000 0.23260  0.19170  0.66030  Biso   1.000  C
  C220     1.0000 0.24370  0.22770  0.63300  Biso   1.000  C
  H121     1.0000 0.22960  0.17300  0.66160  Biso   1.000  H
  C221     1.0000 0.23090  0.20810  0.68500  Biso   1.000  C
  C222     1.0000 0.24070  0.24650  0.65640  Biso   1.000  C
  H122     1.0000 0.24950  0.23440  0.61620  Biso   1.000  H
  H123     1.0000 0.22710  0.20040  0.70190  Biso   1.000  H
  C223     1.0000 0.23510  0.23630  0.68180  Biso   1.000  C
  H124     1.0000 0.24270  0.26530  0.65390  Biso   1.000  H
  C224     1.0000 0.23220  0.25310  0.70670  Biso   1.000  C
  C225     1.0000 0.20990  0.24970  0.72350  Biso   1.000  C
  H125     1.0000 0.19720  0.23600  0.72000  Biso   1.000  H
  Mo76     1.0000 0.81018  0.64321  0.04167  Biso   1.000  Mo
  O201     1.0000 0.77567  0.64601  0.06165  Biso   1.000  O
  O202     1.0000 0.83438  0.64072  0.00694  Biso   1.000  O
  O203     1.0000 0.80196  0.68163  0.03218  Biso   1.000  O
  O204     1.0000 0.80641  0.60442  0.03637  Biso   1.000  O
  Mo77     1.0000 0.78274  0.69397  0.00266  Biso   1.000  Mo
  Mo78     1.0000 0.81652  0.64269  0.96915  Biso   1.000  Mo
  Zn26     1.0000 0.74482  0.67156  0.05894  Biso   1.000  Zn
  O205     1.0000 0.75275  0.69123  0.97512  Biso   1.000  O
  O206     1.0000 0.80800  0.67920  0.97614  Biso   1.000  O
  O207     1.0000 0.74387  0.69521  0.09094  Biso   1.000  O
  C226     1.0000 0.74070  0.68320  0.11270  Biso   1.000  C
  C227     1.0000 0.73840  0.70220  0.13580  Biso   1.000  C
  O208     1.0000 0.73974  0.65761  0.11508  Biso   1.000  O
  C228     1.0000 0.73260  0.69170  0.16030  Biso   1.000  C
  C229     1.0000 0.74370  0.72770  0.13300  Biso   1.000  C
  H126     1.0000 0.72960  0.67300  0.16160  Biso   1.000  H
  C230     1.0000 0.73090  0.70810  0.18500  Biso   1.000  C
  C231     1.0000 0.74070  0.74650  0.15640  Biso   1.000  C
  H127     1.0000 0.74950  0.73440  0.11620  Biso   1.000  H
  H128     1.0000 0.72710  0.70040  0.20190  Biso   1.000  H
  C232     1.0000 0.73510  0.73630  0.18180  Biso   1.000  C
  H129     1.0000 0.74270  0.76530  0.15390  Biso   1.000  H
  C233     1.0000 0.73220  0.75310  0.20670  Biso   1.000  C
  C234     1.0000 0.70990  0.74970  0.22350  Biso   1.000  C
  H130     1.0000 0.69720  0.73600  0.22000  Biso   1.000  H
  Mo79     1.0000 0.18982  0.85679  0.04167  Biso   1.000  Mo
  O209     1.0000 0.22433  0.85399  0.06165  Biso   1.000  O
  O210     1.0000 0.16562  0.85928  0.00694  Biso   1.000  O
  O211     1.0000 0.19804  0.81837  0.03218  Biso   1.000  O
  O212     1.0000 0.19359  0.89558  0.03637  Biso   1.000  O
  Mo80     1.0000 0.21726  0.80603  0.00266  Biso   1.000  Mo
  Mo81     1.0000 0.18348  0.85731  0.96915  Biso   1.000  Mo
  Zn27     1.0000 0.25518  0.82844  0.05894  Biso   1.000  Zn
  O213     1.0000 0.24725  0.80877  0.97512  Biso   1.000  O
  O214     1.0000 0.19200  0.82080  0.97614  Biso   1.000  O
  O215     1.0000 0.25613  0.80479  0.09094  Biso   1.000  O
  C235     1.0000 0.25930  0.81680  0.11270  Biso   1.000  C
  C236     1.0000 0.26160  0.79780  0.13580  Biso   1.000  C
  O216     1.0000 0.26026  0.84239  0.11508  Biso   1.000  O
  C237     1.0000 0.26740  0.80830  0.16030  Biso   1.000  C
  C238     1.0000 0.25630  0.77230  0.13300  Biso   1.000  C
  H131     1.0000 0.27040  0.82700  0.16160  Biso   1.000  H
  C239     1.0000 0.26910  0.79190  0.18500  Biso   1.000  C
  C240     1.0000 0.25930  0.75350  0.15640  Biso   1.000  C
  H132     1.0000 0.25050  0.76560  0.11620  Biso   1.000  H
  H133     1.0000 0.27290  0.79960  0.20190  Biso   1.000  H
  C241     1.0000 0.26490  0.76370  0.18180  Biso   1.000  C
  H134     1.0000 0.25730  0.73470  0.15390  Biso   1.000  H
  C242     1.0000 0.26780  0.74690  0.20670  Biso   1.000  C
  C243     1.0000 0.29010  0.75030  0.22350  Biso   1.000  C
  H135     1.0000 0.30280  0.76400  0.22000  Biso   1.000  H
  Mo82     1.0000 0.68982  0.35679  0.54167  Biso   1.000  Mo
  O217     1.0000 0.72433  0.35399  0.56165  Biso   1.000  O
  O218     1.0000 0.66562  0.35928  0.50694  Biso   1.000  O
  O219     1.0000 0.69804  0.31837  0.53218  Biso   1.000  O
  O220     1.0000 0.69359  0.39558  0.53637  Biso   1.000  O
  Mo83     1.0000 0.71726  0.30603  0.50266  Biso   1.000  Mo
  Mo84     1.0000 0.68348  0.35731  0.46915  Biso   1.000  Mo
  Zn28     1.0000 0.75518  0.32844  0.55894  Biso   1.000  Zn
  O221     1.0000 0.74725  0.30877  0.47512  Biso   1.000  O
  O222     1.0000 0.69200  0.32080  0.47614  Biso   1.000  O
  O223     1.0000 0.75613  0.30479  0.59094  Biso   1.000  O
  C244     1.0000 0.75930  0.31680  0.61270  Biso   1.000  C
  C245     1.0000 0.76160  0.29780  0.63580  Biso   1.000  C
  O224     1.0000 0.76026  0.34239  0.61508  Biso   1.000  O
  C246     1.0000 0.76740  0.30830  0.66030  Biso   1.000  C
  C247     1.0000 0.75630  0.27230  0.63300  Biso   1.000  C
  H136     1.0000 0.77040  0.32700  0.66160  Biso   1.000  H
  C248     1.0000 0.76910  0.29190  0.68500  Biso   1.000  C
  C249     1.0000 0.75930  0.25350  0.65640  Biso   1.000  C
  H137     1.0000 0.75050  0.26560  0.61620  Biso   1.000  H
  H138     1.0000 0.77290  0.29960  0.70190  Biso   1.000  H
  C250     1.0000 0.76490  0.26370  0.68180  Biso   1.000  C
  H139     1.0000 0.75730  0.23470  0.65390  Biso   1.000  H
  C251     1.0000 0.76780  0.24690  0.70670  Biso   1.000  C
  C252     1.0000 0.79010  0.25030  0.72350  Biso   1.000  C
  H140     1.0000 0.80280  0.26400  0.72000  Biso   1.000  H
  Mo85     1.0000 0.81018  0.35679  0.45833  Biso   1.000  Mo
  O225     1.0000 0.77567  0.35399  0.43835  Biso   1.000  O
  O226     1.0000 0.83438  0.35928  0.49306  Biso   1.000  O
  O227     1.0000 0.80196  0.31837  0.46782  Biso   1.000  O
  O228     1.0000 0.80641  0.39558  0.46363  Biso   1.000  O
  Mo86     1.0000 0.78274  0.30603  0.49734  Biso   1.000  Mo
  Mo87     1.0000 0.81652  0.35731  0.53085  Biso   1.000  Mo
  Zn29     1.0000 0.74482  0.32844  0.44106  Biso   1.000  Zn
  O229     1.0000 0.75275  0.30877  0.52488  Biso   1.000  O
  O230     1.0000 0.80800  0.32080  0.52386  Biso   1.000  O
  O231     1.0000 0.74387  0.30479  0.40906  Biso   1.000  O
  C253     1.0000 0.74070  0.31680  0.38730  Biso   1.000  C
  C254     1.0000 0.73840  0.29780  0.36420  Biso   1.000  C
  O232     1.0000 0.73974  0.34239  0.38492  Biso   1.000  O
  C255     1.0000 0.73260  0.30830  0.33970  Biso   1.000  C
  C256     1.0000 0.74370  0.27230  0.36700  Biso   1.000  C
  H141     1.0000 0.72960  0.32700  0.33840  Biso   1.000  H
  C257     1.0000 0.73090  0.29190  0.31500  Biso   1.000  C
  C258     1.0000 0.74070  0.25350  0.34360  Biso   1.000  C
  H142     1.0000 0.74950  0.26560  0.38380  Biso   1.000  H
  H143     1.0000 0.72710  0.29960  0.29810  Biso   1.000  H
  C259     1.0000 0.73510  0.26370  0.31820  Biso   1.000  C
  H144     1.0000 0.74270  0.23470  0.34610  Biso   1.000  H
  C260     1.0000 0.73220  0.24690  0.29330  Biso   1.000  C
  C261     1.0000 0.70990  0.25030  0.27650  Biso   1.000  C
  H145     1.0000 0.69720  0.26400  0.28000  Biso   1.000  H
  Mo88     1.0000 0.31018  0.85679  0.95833  Biso   1.000  Mo
  O233     1.0000 0.27567  0.85399  0.93835  Biso   1.000  O
  O234     1.0000 0.33438  0.85928  0.99306  Biso   1.000  O
  O235     1.0000 0.30196  0.81837  0.96782  Biso   1.000  O
  O236     1.0000 0.30641  0.89558  0.96363  Biso   1.000  O
  Mo89     1.0000 0.28274  0.80603  0.99734  Biso   1.000  Mo
  Mo90     1.0000 0.31652  0.85731  0.03085  Biso   1.000  Mo
  Zn30     1.0000 0.24482  0.82844  0.94106  Biso   1.000  Zn
  O237     1.0000 0.25275  0.80877  0.02488  Biso   1.000  O
  O238     1.0000 0.30800  0.82080  0.02386  Biso   1.000  O
  O239     1.0000 0.24387  0.80479  0.90906  Biso   1.000  O
  C262     1.0000 0.24070  0.81680  0.88730  Biso   1.000  C
  C263     1.0000 0.23840  0.79780  0.86420  Biso   1.000  C
  O240     1.0000 0.23974  0.84239  0.88492  Biso   1.000  O
  C264     1.0000 0.23260  0.80830  0.83970  Biso   1.000  C
  C265     1.0000 0.24370  0.77230  0.86700  Biso   1.000  C
  H146     1.0000 0.22960  0.82700  0.83840  Biso   1.000  H
  C266     1.0000 0.23090  0.79190  0.81500  Biso   1.000  C
  C267     1.0000 0.24070  0.75350  0.84360  Biso   1.000  C
  H147     1.0000 0.24950  0.76560  0.88380  Biso   1.000  H
  H148     1.0000 0.22710  0.79960  0.79810  Biso   1.000  H
  C268     1.0000 0.23510  0.76370  0.81820  Biso   1.000  C
  H149     1.0000 0.24270  0.73470  0.84610  Biso   1.000  H
  C269     1.0000 0.23220  0.74690  0.79330  Biso   1.000  C
  C270     1.0000 0.20990  0.75030  0.77650  Biso   1.000  C
  H150     1.0000 0.19720  0.76400  0.78000  Biso   1.000  H
  Mo91     1.0000 0.68982  0.64321  0.95833  Biso   1.000  Mo
  O241     1.0000 0.72433  0.64601  0.93835  Biso   1.000  O
  O242     1.0000 0.66562  0.64072  0.99306  Biso   1.000  O
  O243     1.0000 0.69804  0.68163  0.96782  Biso   1.000  O
  O244     1.0000 0.69359  0.60442  0.96363  Biso   1.000  O
  Mo92     1.0000 0.71726  0.69397  0.99734  Biso   1.000  Mo
  Mo93     1.0000 0.68348  0.64269  0.03085  Biso   1.000  Mo
  Zn31     1.0000 0.75518  0.67156  0.94106  Biso   1.000  Zn
  O245     1.0000 0.74725  0.69123  0.02488  Biso   1.000  O
  O246     1.0000 0.69200  0.67920  0.02386  Biso   1.000  O
  O247     1.0000 0.75613  0.69521  0.90906  Biso   1.000  O
  C271     1.0000 0.75930  0.68320  0.88730  Biso   1.000  C
  C272     1.0000 0.76160  0.70220  0.86420  Biso   1.000  C
  O248     1.0000 0.76026  0.65761  0.88492  Biso   1.000  O
  C273     1.0000 0.76740  0.69170  0.83970  Biso   1.000  C
  C274     1.0000 0.75630  0.72770  0.86700  Biso   1.000  C
  H151     1.0000 0.77040  0.67300  0.83840  Biso   1.000  H
  C275     1.0000 0.76910  0.70810  0.81500  Biso   1.000  C
  C276     1.0000 0.75930  0.74650  0.84360  Biso   1.000  C
  H152     1.0000 0.75050  0.73440  0.88380  Biso   1.000  H
  H153     1.0000 0.77290  0.70040  0.79810  Biso   1.000  H
  C277     1.0000 0.76490  0.73630  0.81820  Biso   1.000  C
  H154     1.0000 0.75730  0.76530  0.84610  Biso   1.000  H
  C278     1.0000 0.76780  0.75310  0.79330  Biso   1.000  C
  C279     1.0000 0.79010  0.74970  0.77650  Biso   1.000  C
  H155     1.0000 0.80280  0.73600  0.78000  Biso   1.000  H
  Mo94     1.0000 0.18982  0.14321  0.45833  Biso   1.000  Mo
  O249     1.0000 0.22433  0.14601  0.43835  Biso   1.000  O
  O250     1.0000 0.16562  0.14072  0.49306  Biso   1.000  O
  O251     1.0000 0.19804  0.18163  0.46782  Biso   1.000  O
  O252     1.0000 0.19359  0.10442  0.46363  Biso   1.000  O
  Mo95     1.0000 0.21726  0.19397  0.49734  Biso   1.000  Mo
  Mo96     1.0000 0.18348  0.14269  0.53085  Biso   1.000  Mo
  Zn32     1.0000 0.25518  0.17156  0.44106  Biso   1.000  Zn
  O253     1.0000 0.24725  0.19123  0.52488  Biso   1.000  O
  O254     1.0000 0.19200  0.17920  0.52386  Biso   1.000  O
  O255     1.0000 0.25613  0.19521  0.40906  Biso   1.000  O
  C280     1.0000 0.25930  0.18320  0.38730  Biso   1.000  C
  C281     1.0000 0.26160  0.20220  0.36420  Biso   1.000  C
  O256     1.0000 0.26026  0.15761  0.38492  Biso   1.000  O
  C282     1.0000 0.26740  0.19170  0.33970  Biso   1.000  C
  C283     1.0000 0.25630  0.22770  0.36700  Biso   1.000  C
  H156     1.0000 0.27040  0.17300  0.33840  Biso   1.000  H
  C284     1.0000 0.26910  0.20810  0.31500  Biso   1.000  C
  C285     1.0000 0.25930  0.24650  0.34360  Biso   1.000  C
  H157     1.0000 0.25050  0.23440  0.38380  Biso   1.000  H
  H158     1.0000 0.27290  0.20040  0.29810  Biso   1.000  H
  C286     1.0000 0.26490  0.23630  0.31820  Biso   1.000  C
  H159     1.0000 0.25730  0.26530  0.34610  Biso   1.000  H
  C287     1.0000 0.26780  0.25310  0.29330  Biso   1.000  C
  C288     1.0000 0.29010  0.24970  0.27650  Biso   1.000  C
  H160     1.0000 0.30280  0.23600  0.28000  Biso   1.000  H
  Mo97     1.0000 0.64321  0.95833  0.68982  Biso   1.000  Mo
  O257     1.0000 0.64601  0.93835  0.72433  Biso   1.000  O
  O258     1.0000 0.64072  0.99306  0.66562  Biso   1.000  O
  O259     1.0000 0.68163  0.96782  0.69804  Biso   1.000  O
  O260     1.0000 0.60442  0.96363  0.69359  Biso   1.000  O
  Mo98     1.0000 0.69397  0.99734  0.71726  Biso   1.000  Mo
  Mo99     1.0000 0.64269  0.03085  0.68348  Biso   1.000  Mo
  Zn33     1.0000 0.67156  0.94106  0.75518  Biso   1.000  Zn
  O261     1.0000 0.69123  0.02488  0.74725  Biso   1.000  O
  O262     1.0000 0.67920  0.02386  0.69200  Biso   1.000  O
  O263     1.0000 0.69521  0.90906  0.75613  Biso   1.000  O
  C289     1.0000 0.68320  0.88730  0.75930  Biso   1.000  C
  C290     1.0000 0.70220  0.86420  0.76160  Biso   1.000  C
  O264     1.0000 0.65761  0.88492  0.76026  Biso   1.000  O
  C291     1.0000 0.69170  0.83970  0.76740  Biso   1.000  C
  C292     1.0000 0.72770  0.86700  0.75630  Biso   1.000  C
  H161     1.0000 0.67300  0.83840  0.77040  Biso   1.000  H
  C293     1.0000 0.70810  0.81500  0.76910  Biso   1.000  C
  C294     1.0000 0.74650  0.84360  0.75930  Biso   1.000  C
  H162     1.0000 0.73440  0.88380  0.75050  Biso   1.000  H
  H163     1.0000 0.70040  0.79810  0.77290  Biso   1.000  H
  C295     1.0000 0.73630  0.81820  0.76490  Biso   1.000  C
  H164     1.0000 0.76530  0.84610  0.75730  Biso   1.000  H
  C296     1.0000 0.75310  0.79330  0.76780  Biso   1.000  C
  C297     1.0000 0.74970  0.77650  0.79010  Biso   1.000  C
  H165     1.0000 0.73600  0.78000  0.80280  Biso   1.000  H
  Mo100    1.0000 0.14321  0.45833  0.18982  Biso   1.000  Mo
  O265     1.0000 0.14601  0.43835  0.22433  Biso   1.000  O
  O266     1.0000 0.14072  0.49306  0.16562  Biso   1.000  O
  O267     1.0000 0.18163  0.46782  0.19804  Biso   1.000  O
  O268     1.0000 0.10442  0.46363  0.19359  Biso   1.000  O
  Mo101    1.0000 0.19397  0.49734  0.21726  Biso   1.000  Mo
  Mo102    1.0000 0.14269  0.53085  0.18348  Biso   1.000  Mo
  Zn34     1.0000 0.17156  0.44106  0.25518  Biso   1.000  Zn
  O269     1.0000 0.19123  0.52488  0.24725  Biso   1.000  O
  O270     1.0000 0.17920  0.52386  0.19200  Biso   1.000  O
  O271     1.0000 0.19521  0.40906  0.25613  Biso   1.000  O
  C298     1.0000 0.18320  0.38730  0.25930  Biso   1.000  C
  C299     1.0000 0.20220  0.36420  0.26160  Biso   1.000  C
  O272     1.0000 0.15761  0.38492  0.26026  Biso   1.000  O
  C300     1.0000 0.19170  0.33970  0.26740  Biso   1.000  C
  C301     1.0000 0.22770  0.36700  0.25630  Biso   1.000  C
  H166     1.0000 0.17300  0.33840  0.27040  Biso   1.000  H
  C302     1.0000 0.20810  0.31500  0.26910  Biso   1.000  C
  C303     1.0000 0.24650  0.34360  0.25930  Biso   1.000  C
  H167     1.0000 0.23440  0.38380  0.25050  Biso   1.000  H
  H168     1.0000 0.20040  0.29810  0.27290  Biso   1.000  H
  C304     1.0000 0.23630  0.31820  0.26490  Biso   1.000  C
  H169     1.0000 0.26530  0.34610  0.25730  Biso   1.000  H
  C305     1.0000 0.25310  0.29330  0.26780  Biso   1.000  C
  C306     1.0000 0.24970  0.27650  0.29010  Biso   1.000  C
  H170     1.0000 0.23600  0.28000  0.30280  Biso   1.000  H
  Mo103    1.0000 0.35679  0.45833  0.81018  Biso   1.000  Mo
  O273     1.0000 0.35399  0.43835  0.77567  Biso   1.000  O
  O274     1.0000 0.35928  0.49306  0.83438  Biso   1.000  O
  O275     1.0000 0.31837  0.46782  0.80196  Biso   1.000  O
  O276     1.0000 0.39558  0.46363  0.80641  Biso   1.000  O
  Mo104    1.0000 0.30603  0.49734  0.78274  Biso   1.000  Mo
  Mo105    1.0000 0.35731  0.53085  0.81652  Biso   1.000  Mo
  Zn35     1.0000 0.32844  0.44106  0.74482  Biso   1.000  Zn
  O277     1.0000 0.30877  0.52488  0.75275  Biso   1.000  O
  O278     1.0000 0.32080  0.52386  0.80800  Biso   1.000  O
  O279     1.0000 0.30479  0.40906  0.74387  Biso   1.000  O
  C307     1.0000 0.31680  0.38730  0.74070  Biso   1.000  C
  C308     1.0000 0.29780  0.36420  0.73840  Biso   1.000  C
  O280     1.0000 0.34239  0.38492  0.73974  Biso   1.000  O
  C309     1.0000 0.30830  0.33970  0.73260  Biso   1.000  C
  C310     1.0000 0.27230  0.36700  0.74370  Biso   1.000  C
  H171     1.0000 0.32700  0.33840  0.72960  Biso   1.000  H
  C311     1.0000 0.29190  0.31500  0.73090  Biso   1.000  C
  C312     1.0000 0.25350  0.34360  0.74070  Biso   1.000  C
  H172     1.0000 0.26560  0.38380  0.74950  Biso   1.000  H
  H173     1.0000 0.29960  0.29810  0.72710  Biso   1.000  H
  C313     1.0000 0.26370  0.31820  0.73510  Biso   1.000  C
  H174     1.0000 0.23470  0.34610  0.74270  Biso   1.000  H
  C314     1.0000 0.24690  0.29330  0.73220  Biso   1.000  C
  C315     1.0000 0.25030  0.27650  0.70990  Biso   1.000  C
  H175     1.0000 0.26400  0.28000  0.69720  Biso   1.000  H
  Mo106    1.0000 0.85679  0.95833  0.31018  Biso   1.000  Mo
  O281     1.0000 0.85399  0.93835  0.27567  Biso   1.000  O
  O282     1.0000 0.85928  0.99306  0.33438  Biso   1.000  O
  O283     1.0000 0.81837  0.96782  0.30196  Biso   1.000  O
  O284     1.0000 0.89558  0.96363  0.30641  Biso   1.000  O
  Mo107    1.0000 0.80603  0.99734  0.28274  Biso   1.000  Mo
  Mo108    1.0000 0.85731  0.03085  0.31652  Biso   1.000  Mo
  Zn36     1.0000 0.82844  0.94106  0.24482  Biso   1.000  Zn
  O285     1.0000 0.80877  0.02488  0.25275  Biso   1.000  O
  O286     1.0000 0.82080  0.02386  0.30800  Biso   1.000  O
  O287     1.0000 0.80479  0.90906  0.24387  Biso   1.000  O
  C316     1.0000 0.81680  0.88730  0.24070  Biso   1.000  C
  C317     1.0000 0.79780  0.86420  0.23840  Biso   1.000  C
  O288     1.0000 0.84239  0.88492  0.23974  Biso   1.000  O
  C318     1.0000 0.80830  0.83970  0.23260  Biso   1.000  C
  C319     1.0000 0.77230  0.86700  0.24370  Biso   1.000  C
  H176     1.0000 0.82700  0.83840  0.22960  Biso   1.000  H
  C320     1.0000 0.79190  0.81500  0.23090  Biso   1.000  C
  C321     1.0000 0.75350  0.84360  0.24070  Biso   1.000  C
  H177     1.0000 0.76560  0.88380  0.24950  Biso   1.000  H
  H178     1.0000 0.79960  0.79810  0.22710  Biso   1.000  H
  C322     1.0000 0.76370  0.81820  0.23510  Biso   1.000  C
  H179     1.0000 0.73470  0.84610  0.24270  Biso   1.000  H
  C323     1.0000 0.74690  0.79330  0.23220  Biso   1.000  C
  C324     1.0000 0.75030  0.77650  0.20990  Biso   1.000  C
  H180     1.0000 0.76400  0.78000  0.19720  Biso   1.000  H
  Mo109    1.0000 0.85679  0.04167  0.18982  Biso   1.000  Mo
  O289     1.0000 0.85399  0.06165  0.22433  Biso   1.000  O
  O290     1.0000 0.85928  0.00694  0.16562  Biso   1.000  O
  O291     1.0000 0.81837  0.03218  0.19804  Biso   1.000  O
  O292     1.0000 0.89558  0.03637  0.19359  Biso   1.000  O
  Mo110    1.0000 0.80603  0.00266  0.21726  Biso   1.000  Mo
  Mo111    1.0000 0.85731  0.96915  0.18348  Biso   1.000  Mo
  Zn37     1.0000 0.82844  0.05894  0.25518  Biso   1.000  Zn
  O293     1.0000 0.80877  0.97512  0.24725  Biso   1.000  O
  O294     1.0000 0.82080  0.97614  0.19200  Biso   1.000  O
  O295     1.0000 0.80479  0.09094  0.25613  Biso   1.000  O
  C325     1.0000 0.81680  0.11270  0.25930  Biso   1.000  C
  C326     1.0000 0.79780  0.13580  0.26160  Biso   1.000  C
  O296     1.0000 0.84239  0.11508  0.26026  Biso   1.000  O
  C327     1.0000 0.80830  0.16030  0.26740  Biso   1.000  C
  C328     1.0000 0.77230  0.13300  0.25630  Biso   1.000  C
  H181     1.0000 0.82700  0.16160  0.27040  Biso   1.000  H
  C329     1.0000 0.79190  0.18500  0.26910  Biso   1.000  C
  C330     1.0000 0.75350  0.15640  0.25930  Biso   1.000  C
  H182     1.0000 0.76560  0.11620  0.25050  Biso   1.000  H
  H183     1.0000 0.79960  0.20190  0.27290  Biso   1.000  H
  C331     1.0000 0.76370  0.18180  0.26490  Biso   1.000  C
  H184     1.0000 0.73470  0.15390  0.25730  Biso   1.000  H
  C332     1.0000 0.74690  0.20670  0.26780  Biso   1.000  C
  C333     1.0000 0.75030  0.22350  0.29010  Biso   1.000  C
  H185     1.0000 0.76400  0.22000  0.30280  Biso   1.000  H
  Mo112    1.0000 0.35679  0.54167  0.68982  Biso   1.000  Mo
  O297     1.0000 0.35399  0.56165  0.72433  Biso   1.000  O
  O298     1.0000 0.35928  0.50694  0.66562  Biso   1.000  O
  O299     1.0000 0.31837  0.53218  0.69804  Biso   1.000  O
  O300     1.0000 0.39558  0.53637  0.69359  Biso   1.000  O
  Mo113    1.0000 0.30603  0.50266  0.71726  Biso   1.000  Mo
  Mo114    1.0000 0.35731  0.46915  0.68348  Biso   1.000  Mo
  Zn38     1.0000 0.32844  0.55894  0.75518  Biso   1.000  Zn
  O301     1.0000 0.30877  0.47512  0.74725  Biso   1.000  O
  O302     1.0000 0.32080  0.47614  0.69200  Biso   1.000  O
  O303     1.0000 0.30479  0.59094  0.75613  Biso   1.000  O
  C334     1.0000 0.31680  0.61270  0.75930  Biso   1.000  C
  C335     1.0000 0.29780  0.63580  0.76160  Biso   1.000  C
  O304     1.0000 0.34239  0.61508  0.76026  Biso   1.000  O
  C336     1.0000 0.30830  0.66030  0.76740  Biso   1.000  C
  C337     1.0000 0.27230  0.63300  0.75630  Biso   1.000  C
  H186     1.0000 0.32700  0.66160  0.77040  Biso   1.000  H
  C338     1.0000 0.29190  0.68500  0.76910  Biso   1.000  C
  C339     1.0000 0.25350  0.65640  0.75930  Biso   1.000  C
  H187     1.0000 0.26560  0.61620  0.75050  Biso   1.000  H
  H188     1.0000 0.29960  0.70190  0.77290  Biso   1.000  H
  C340     1.0000 0.26370  0.68180  0.76490  Biso   1.000  C
  H189     1.0000 0.23470  0.65390  0.75730  Biso   1.000  H
  C341     1.0000 0.24690  0.70670  0.76780  Biso   1.000  C
  C342     1.0000 0.25030  0.72350  0.79010  Biso   1.000  C
  H190     1.0000 0.26400  0.72000  0.80280  Biso   1.000  H
  Mo115    1.0000 0.14321  0.54167  0.31018  Biso   1.000  Mo
  O305     1.0000 0.14601  0.56165  0.27567  Biso   1.000  O
  O306     1.0000 0.14072  0.50694  0.33438  Biso   1.000  O
  O307     1.0000 0.18163  0.53218  0.30196  Biso   1.000  O
  O308     1.0000 0.10442  0.53637  0.30641  Biso   1.000  O
  Mo116    1.0000 0.19397  0.50266  0.28274  Biso   1.000  Mo
  Mo117    1.0000 0.14269  0.46915  0.31652  Biso   1.000  Mo
  Zn39     1.0000 0.17156  0.55894  0.24482  Biso   1.000  Zn
  O309     1.0000 0.19123  0.47512  0.25275  Biso   1.000  O
  O310     1.0000 0.17920  0.47614  0.30800  Biso   1.000  O
  O311     1.0000 0.19521  0.59094  0.24387  Biso   1.000  O
  C343     1.0000 0.18320  0.61270  0.24070  Biso   1.000  C
  C344     1.0000 0.20220  0.63580  0.23840  Biso   1.000  C
  O312     1.0000 0.15761  0.61508  0.23974  Biso   1.000  O
  C345     1.0000 0.19170  0.66030  0.23260  Biso   1.000  C
  C346     1.0000 0.22770  0.63300  0.24370  Biso   1.000  C
  H191     1.0000 0.17300  0.66160  0.22960  Biso   1.000  H
  C347     1.0000 0.20810  0.68500  0.23090  Biso   1.000  C
  C348     1.0000 0.24650  0.65640  0.24070  Biso   1.000  C
  H192     1.0000 0.23440  0.61620  0.24950  Biso   1.000  H
  H193     1.0000 0.20040  0.70190  0.22710  Biso   1.000  H
  C349     1.0000 0.23630  0.68180  0.23510  Biso   1.000  C
  H194     1.0000 0.26530  0.65390  0.24270  Biso   1.000  H
  C350     1.0000 0.25310  0.70670  0.23220  Biso   1.000  C
  C351     1.0000 0.24970  0.72350  0.20990  Biso   1.000  C
  H195     1.0000 0.23600  0.72000  0.19720  Biso   1.000  H
  Mo118    1.0000 0.64321  0.04167  0.81018  Biso   1.000  Mo
  O313     1.0000 0.64601  0.06165  0.77567  Biso   1.000  O
  O314     1.0000 0.64072  0.00694  0.83438  Biso   1.000  O
  O315     1.0000 0.68163  0.03218  0.80196  Biso   1.000  O
  O316     1.0000 0.60442  0.03637  0.80641  Biso   1.000  O
  Mo119    1.0000 0.69397  0.00266  0.78274  Biso   1.000  Mo
  Mo120    1.0000 0.64269  0.96915  0.81652  Biso   1.000  Mo
  Zn40     1.0000 0.67156  0.05894  0.74482  Biso   1.000  Zn
  O317     1.0000 0.69123  0.97512  0.75275  Biso   1.000  O
  O318     1.0000 0.67920  0.97614  0.80800  Biso   1.000  O
  O319     1.0000 0.69521  0.09094  0.74387  Biso   1.000  O
  C352     1.0000 0.68320  0.11270  0.74070  Biso   1.000  C
  C353     1.0000 0.70220  0.13580  0.73840  Biso   1.000  C
  O320     1.0000 0.65761  0.11508  0.73974  Biso   1.000  O
  C354     1.0000 0.69170  0.16030  0.73260  Biso   1.000  C
  C355     1.0000 0.72770  0.13300  0.74370  Biso   1.000  C
  H196     1.0000 0.67300  0.16160  0.72960  Biso   1.000  H
  C356     1.0000 0.70810  0.18500  0.73090  Biso   1.000  C
  C357     1.0000 0.74650  0.15640  0.74070  Biso   1.000  C
  H197     1.0000 0.73440  0.11620  0.74950  Biso   1.000  H
  H198     1.0000 0.70040  0.20190  0.72710  Biso   1.000  H
  C358     1.0000 0.73630  0.18180  0.73510  Biso   1.000  C
  H199     1.0000 0.76530  0.15390  0.74270  Biso   1.000  H
  C359     1.0000 0.75310  0.20670  0.73220  Biso   1.000  C
  C360     1.0000 0.74970  0.22350  0.70990  Biso   1.000  C
  H200     1.0000 0.73600  0.22000  0.69720  Biso   1.000  H
  Mo121    1.0000 0.45833  0.81018  0.35679  Biso   1.000  Mo
  O321     1.0000 0.43835  0.77567  0.35399  Biso   1.000  O
  O322     1.0000 0.49306  0.83438  0.35928  Biso   1.000  O
  O323     1.0000 0.46782  0.80196  0.31837  Biso   1.000  O
  O324     1.0000 0.46363  0.80641  0.39558  Biso   1.000  O
  Mo122    1.0000 0.49734  0.78274  0.30603  Biso   1.000  Mo
  Mo123    1.0000 0.53085  0.81652  0.35731  Biso   1.000  Mo
  Zn41     1.0000 0.44106  0.74482  0.32844  Biso   1.000  Zn
  O325     1.0000 0.52488  0.75275  0.30877  Biso   1.000  O
  O326     1.0000 0.52386  0.80800  0.32080  Biso   1.000  O
  O327     1.0000 0.40906  0.74387  0.30479  Biso   1.000  O
  C361     1.0000 0.38730  0.74070  0.31680  Biso   1.000  C
  C362     1.0000 0.36420  0.73840  0.29780  Biso   1.000  C
  O328     1.0000 0.38492  0.73974  0.34239  Biso   1.000  O
  C363     1.0000 0.33970  0.73260  0.30830  Biso   1.000  C
  C364     1.0000 0.36700  0.74370  0.27230  Biso   1.000  C
  H201     1.0000 0.33840  0.72960  0.32700  Biso   1.000  H
  C365     1.0000 0.31500  0.73090  0.29190  Biso   1.000  C
  C366     1.0000 0.34360  0.74070  0.25350  Biso   1.000  C
  H202     1.0000 0.38380  0.74950  0.26560  Biso   1.000  H
  H203     1.0000 0.29810  0.72710  0.29960  Biso   1.000  H
  C367     1.0000 0.31820  0.73510  0.26370  Biso   1.000  C
  H204     1.0000 0.34610  0.74270  0.23470  Biso   1.000  H
  C368     1.0000 0.29330  0.73220  0.24690  Biso   1.000  C
  C369     1.0000 0.27650  0.70990  0.25030  Biso   1.000  C
  H205     1.0000 0.28000  0.69720  0.26400  Biso   1.000  H
  Mo124    1.0000 0.95833  0.31018  0.85679  Biso   1.000  Mo
  O329     1.0000 0.93835  0.27567  0.85399  Biso   1.000  O
  O330     1.0000 0.99306  0.33438  0.85928  Biso   1.000  O
  O331     1.0000 0.96782  0.30196  0.81837  Biso   1.000  O
  O332     1.0000 0.96363  0.30641  0.89558  Biso   1.000  O
  Mo125    1.0000 0.99734  0.28274  0.80603  Biso   1.000  Mo
  Mo126    1.0000 0.03085  0.31652  0.85731  Biso   1.000  Mo
  Zn42     1.0000 0.94106  0.24482  0.82844  Biso   1.000  Zn
  O333     1.0000 0.02488  0.25275  0.80877  Biso   1.000  O
  O334     1.0000 0.02386  0.30800  0.82080  Biso   1.000  O
  O335     1.0000 0.90906  0.24387  0.80479  Biso   1.000  O
  C370     1.0000 0.88730  0.24070  0.81680  Biso   1.000  C
  C371     1.0000 0.86420  0.23840  0.79780  Biso   1.000  C
  O336     1.0000 0.88492  0.23974  0.84239  Biso   1.000  O
  C372     1.0000 0.83970  0.23260  0.80830  Biso   1.000  C
  C373     1.0000 0.86700  0.24370  0.77230  Biso   1.000  C
  H206     1.0000 0.83840  0.22960  0.82700  Biso   1.000  H
  C374     1.0000 0.81500  0.23090  0.79190  Biso   1.000  C
  C375     1.0000 0.84360  0.24070  0.75350  Biso   1.000  C
  H207     1.0000 0.88380  0.24950  0.76560  Biso   1.000  H
  H208     1.0000 0.79810  0.22710  0.79960  Biso   1.000  H
  C376     1.0000 0.81820  0.23510  0.76370  Biso   1.000  C
  H209     1.0000 0.84610  0.24270  0.73470  Biso   1.000  H
  C377     1.0000 0.79330  0.23220  0.74690  Biso   1.000  C
  C378     1.0000 0.77650  0.20990  0.75030  Biso   1.000  C
  H210     1.0000 0.78000  0.19720  0.76400  Biso   1.000  H
  Mo127    1.0000 0.95833  0.68982  0.64321  Biso   1.000  Mo
  O337     1.0000 0.93835  0.72433  0.64601  Biso   1.000  O
  O338     1.0000 0.99306  0.66562  0.64072  Biso   1.000  O
  O339     1.0000 0.96782  0.69804  0.68163  Biso   1.000  O
  O340     1.0000 0.96363  0.69359  0.60442  Biso   1.000  O
  Mo128    1.0000 0.99734  0.71726  0.69397  Biso   1.000  Mo
  Mo129    1.0000 0.03085  0.68348  0.64269  Biso   1.000  Mo
  Zn43     1.0000 0.94106  0.75518  0.67156  Biso   1.000  Zn
  O341     1.0000 0.02488  0.74725  0.69123  Biso   1.000  O
  O342     1.0000 0.02386  0.69200  0.67920  Biso   1.000  O
  O343     1.0000 0.90906  0.75613  0.69521  Biso   1.000  O
  C379     1.0000 0.88730  0.75930  0.68320  Biso   1.000  C
  C380     1.0000 0.86420  0.76160  0.70220  Biso   1.000  C
  O344     1.0000 0.88492  0.76026  0.65761  Biso   1.000  O
  C381     1.0000 0.83970  0.76740  0.69170  Biso   1.000  C
  C382     1.0000 0.86700  0.75630  0.72770  Biso   1.000  C
  H211     1.0000 0.83840  0.77040  0.67300  Biso   1.000  H
  C383     1.0000 0.81500  0.76910  0.70810  Biso   1.000  C
  C384     1.0000 0.84360  0.75930  0.74650  Biso   1.000  C
  H212     1.0000 0.88380  0.75050  0.73440  Biso   1.000  H
  H213     1.0000 0.79810  0.77290  0.70040  Biso   1.000  H
  C385     1.0000 0.81820  0.76490  0.73630  Biso   1.000  C
  H214     1.0000 0.84610  0.75730  0.76530  Biso   1.000  H
  C386     1.0000 0.79330  0.76780  0.75310  Biso   1.000  C
  C387     1.0000 0.77650  0.79010  0.74970  Biso   1.000  C
  H215     1.0000 0.78000  0.80280  0.73600  Biso   1.000  H
  Mo130    1.0000 0.45833  0.18982  0.14321  Biso   1.000  Mo
  O345     1.0000 0.43835  0.22433  0.14601  Biso   1.000  O
  O346     1.0000 0.49306  0.16562  0.14072  Biso   1.000  O
  O347     1.0000 0.46782  0.19804  0.18163  Biso   1.000  O
  O348     1.0000 0.46363  0.19359  0.10442  Biso   1.000  O
  Mo131    1.0000 0.49734  0.21726  0.19397  Biso   1.000  Mo
  Mo132    1.0000 0.53085  0.18348  0.14269  Biso   1.000  Mo
  Zn44     1.0000 0.44106  0.25518  0.17156  Biso   1.000  Zn
  O349     1.0000 0.52488  0.24725  0.19123  Biso   1.000  O
  O350     1.0000 0.52386  0.19200  0.17920  Biso   1.000  O
  O351     1.0000 0.40906  0.25613  0.19521  Biso   1.000  O
  C388     1.0000 0.38730  0.25930  0.18320  Biso   1.000  C
  C389     1.0000 0.36420  0.26160  0.20220  Biso   1.000  C
  O352     1.0000 0.38492  0.26026  0.15761  Biso   1.000  O
  C390     1.0000 0.33970  0.26740  0.19170  Biso   1.000  C
  C391     1.0000 0.36700  0.25630  0.22770  Biso   1.000  C
  H216     1.0000 0.33840  0.27040  0.17300  Biso   1.000  H
  C392     1.0000 0.31500  0.26910  0.20810  Biso   1.000  C
  C393     1.0000 0.34360  0.25930  0.24650  Biso   1.000  C
  H217     1.0000 0.38380  0.25050  0.23440  Biso   1.000  H
  H218     1.0000 0.29810  0.27290  0.20040  Biso   1.000  H
  C394     1.0000 0.31820  0.26490  0.23630  Biso   1.000  C
  H219     1.0000 0.34610  0.25730  0.26530  Biso   1.000  H
  C395     1.0000 0.29330  0.26780  0.25310  Biso   1.000  C
  C396     1.0000 0.27650  0.29010  0.24970  Biso   1.000  C
  H220     1.0000 0.28000  0.30280  0.23600  Biso   1.000  H
  Mo133    1.0000 0.54167  0.31018  0.14321  Biso   1.000  Mo
  O353     1.0000 0.56165  0.27567  0.14601  Biso   1.000  O
  O354     1.0000 0.50694  0.33438  0.14072  Biso   1.000  O
  O355     1.0000 0.53218  0.30196  0.18163  Biso   1.000  O
  O356     1.0000 0.53637  0.30641  0.10442  Biso   1.000  O
  Mo134    1.0000 0.50266  0.28274  0.19397  Biso   1.000  Mo
  Mo135    1.0000 0.46915  0.31652  0.14269  Biso   1.000  Mo
  Zn45     1.0000 0.55894  0.24482  0.17156  Biso   1.000  Zn
  O357     1.0000 0.47512  0.25275  0.19123  Biso   1.000  O
  O358     1.0000 0.47614  0.30800  0.17920  Biso   1.000  O
  O359     1.0000 0.59094  0.24387  0.19521  Biso   1.000  O
  C397     1.0000 0.61270  0.24070  0.18320  Biso   1.000  C
  C398     1.0000 0.63580  0.23840  0.20220  Biso   1.000  C
  O360     1.0000 0.61508  0.23974  0.15761  Biso   1.000  O
  C399     1.0000 0.66030  0.23260  0.19170  Biso   1.000  C
  C400     1.0000 0.63300  0.24370  0.22770  Biso   1.000  C
  H221     1.0000 0.66160  0.22960  0.17300  Biso   1.000  H
  C401     1.0000 0.68500  0.23090  0.20810  Biso   1.000  C
  C402     1.0000 0.65640  0.24070  0.24650  Biso   1.000  C
  H222     1.0000 0.61620  0.24950  0.23440  Biso   1.000  H
  H223     1.0000 0.70190  0.22710  0.20040  Biso   1.000  H
  C403     1.0000 0.68180  0.23510  0.23630  Biso   1.000  C
  H224     1.0000 0.65390  0.24270  0.26530  Biso   1.000  H
  C404     1.0000 0.70670  0.23220  0.25310  Biso   1.000  C
  C405     1.0000 0.72350  0.20990  0.24970  Biso   1.000  C
  H225     1.0000 0.72000  0.19720  0.23600  Biso   1.000  H
  Mo136    1.0000 0.04167  0.81018  0.64321  Biso   1.000  Mo
  O361     1.0000 0.06165  0.77567  0.64601  Biso   1.000  O
  O362     1.0000 0.00694  0.83438  0.64072  Biso   1.000  O
  O363     1.0000 0.03218  0.80196  0.68163  Biso   1.000  O
  O364     1.0000 0.03637  0.80641  0.60442  Biso   1.000  O
  Mo137    1.0000 0.00266  0.78274  0.69397  Biso   1.000  Mo
  Mo138    1.0000 0.96915  0.81652  0.64269  Biso   1.000  Mo
  Zn46     1.0000 0.05894  0.74482  0.67156  Biso   1.000  Zn
  O365     1.0000 0.97512  0.75275  0.69123  Biso   1.000  O
  O366     1.0000 0.97614  0.80800  0.67920  Biso   1.000  O
  O367     1.0000 0.09094  0.74387  0.69521  Biso   1.000  O
  C406     1.0000 0.11270  0.74070  0.68320  Biso   1.000  C
  C407     1.0000 0.13580  0.73840  0.70220  Biso   1.000  C
  O368     1.0000 0.11508  0.73974  0.65761  Biso   1.000  O
  C408     1.0000 0.16030  0.73260  0.69170  Biso   1.000  C
  C409     1.0000 0.13300  0.74370  0.72770  Biso   1.000  C
  H226     1.0000 0.16160  0.72960  0.67300  Biso   1.000  H
  C410     1.0000 0.18500  0.73090  0.70810  Biso   1.000  C
  C411     1.0000 0.15640  0.74070  0.74650  Biso   1.000  C
  H227     1.0000 0.11620  0.74950  0.73440  Biso   1.000  H
  H228     1.0000 0.20190  0.72710  0.70040  Biso   1.000  H
  C412     1.0000 0.18180  0.73510  0.73630  Biso   1.000  C
  H229     1.0000 0.15390  0.74270  0.76530  Biso   1.000  H
  C413     1.0000 0.20670  0.73220  0.75310  Biso   1.000  C
  C414     1.0000 0.22350  0.70990  0.74970  Biso   1.000  C
  H230     1.0000 0.22000  0.69720  0.73600  Biso   1.000  H
  Mo139    1.0000 0.04167  0.18982  0.85679  Biso   1.000  Mo
  O369     1.0000 0.06165  0.22433  0.85399  Biso   1.000  O
  O370     1.0000 0.00694  0.16562  0.85928  Biso   1.000  O
  O371     1.0000 0.03218  0.19804  0.81837  Biso   1.000  O
  O372     1.0000 0.03637  0.19359  0.89558  Biso   1.000  O
  Mo140    1.0000 0.00266  0.21726  0.80603  Biso   1.000  Mo
  Mo141    1.0000 0.96915  0.18348  0.85731  Biso   1.000  Mo
  Zn47     1.0000 0.05894  0.25518  0.82844  Biso   1.000  Zn
  O373     1.0000 0.97512  0.24725  0.80877  Biso   1.000  O
  O374     1.0000 0.97614  0.19200  0.82080  Biso   1.000  O
  O375     1.0000 0.09094  0.25613  0.80479  Biso   1.000  O
  C415     1.0000 0.11270  0.25930  0.81680  Biso   1.000  C
  C416     1.0000 0.13580  0.26160  0.79780  Biso   1.000  C
  O376     1.0000 0.11508  0.26026  0.84239  Biso   1.000  O
  C417     1.0000 0.16030  0.26740  0.80830  Biso   1.000  C
  C418     1.0000 0.13300  0.25630  0.77230  Biso   1.000  C
  H231     1.0000 0.16160  0.27040  0.82700  Biso   1.000  H
  C419     1.0000 0.18500  0.26910  0.79190  Biso   1.000  C
  C420     1.0000 0.15640  0.25930  0.75350  Biso   1.000  C
  H232     1.0000 0.11620  0.25050  0.76560  Biso   1.000  H
  H233     1.0000 0.20190  0.27290  0.79960  Biso   1.000  H
  C421     1.0000 0.18180  0.26490  0.76370  Biso   1.000  C
  H234     1.0000 0.15390  0.25730  0.73470  Biso   1.000  H
  C422     1.0000 0.20670  0.26780  0.74690  Biso   1.000  C
  C423     1.0000 0.22350  0.29010  0.75030  Biso   1.000  C
  H235     1.0000 0.22000  0.30280  0.76400  Biso   1.000  H
  Mo142    1.0000 0.54167  0.68982  0.35679  Biso   1.000  Mo
  O377     1.0000 0.56165  0.72433  0.35399  Biso   1.000  O
  O378     1.0000 0.50694  0.66562  0.35928  Biso   1.000  O
  O379     1.0000 0.53218  0.69804  0.31837  Biso   1.000  O
  O380     1.0000 0.53637  0.69359  0.39558  Biso   1.000  O
  Mo143    1.0000 0.50266  0.71726  0.30603  Biso   1.000  Mo
  Mo144    1.0000 0.46915  0.68348  0.35731  Biso   1.000  Mo
  Zn48     1.0000 0.55894  0.75518  0.32844  Biso   1.000  Zn
  O381     1.0000 0.47512  0.74725  0.30877  Biso   1.000  O
  O382     1.0000 0.47614  0.69200  0.32080  Biso   1.000  O
  O383     1.0000 0.59094  0.75613  0.30479  Biso   1.000  O
  C424     1.0000 0.61270  0.75930  0.31680  Biso   1.000  C
  C425     1.0000 0.63580  0.76160  0.29780  Biso   1.000  C
  O384     1.0000 0.61508  0.76026  0.34239  Biso   1.000  O
  C426     1.0000 0.66030  0.76740  0.30830  Biso   1.000  C
  C427     1.0000 0.63300  0.75630  0.27230  Biso   1.000  C
  H236     1.0000 0.66160  0.77040  0.32700  Biso   1.000  H
  C428     1.0000 0.68500  0.76910  0.29190  Biso   1.000  C
  C429     1.0000 0.65640  0.75930  0.25350  Biso   1.000  C
  H237     1.0000 0.61620  0.75050  0.26560  Biso   1.000  H
  H238     1.0000 0.70190  0.77290  0.29960  Biso   1.000  H
  C430     1.0000 0.68180  0.76490  0.26370  Biso   1.000  C
  H239     1.0000 0.65390  0.75730  0.23470  Biso   1.000  H
  C431     1.0000 0.70670  0.76780  0.24690  Biso   1.000  C
  C432     1.0000 0.72350  0.79010  0.25030  Biso   1.000  C
  H240     1.0000 0.72000  0.80280  0.26400  Biso   1.000  H
  Mo145    1.0000 0.68982  0.85679  0.45833  Biso   1.000  Mo
  O385     1.0000 0.72433  0.85399  0.43835  Biso   1.000  O
  O386     1.0000 0.66562  0.85928  0.49306  Biso   1.000  O
  O387     1.0000 0.69804  0.81837  0.46782  Biso   1.000  O
  O388     1.0000 0.69359  0.89558  0.46363  Biso   1.000  O
  Mo146    1.0000 0.71726  0.80603  0.49734  Biso   1.000  Mo
  Mo147    1.0000 0.68348  0.85731  0.53085  Biso   1.000  Mo
  Zn49     1.0000 0.75518  0.82844  0.44106  Biso   1.000  Zn
  O389     1.0000 0.74725  0.80877  0.52488  Biso   1.000  O
  O390     1.0000 0.69200  0.82080  0.52386  Biso   1.000  O
  O391     1.0000 0.75613  0.80479  0.40906  Biso   1.000  O
  C433     1.0000 0.75930  0.81680  0.38730  Biso   1.000  C
  C434     1.0000 0.76160  0.79780  0.36420  Biso   1.000  C
  O392     1.0000 0.76026  0.84239  0.38492  Biso   1.000  O
  C435     1.0000 0.76740  0.80830  0.33970  Biso   1.000  C
  C436     1.0000 0.75630  0.77230  0.36700  Biso   1.000  C
  H241     1.0000 0.77040  0.82700  0.33840  Biso   1.000  H
  C437     1.0000 0.76910  0.79190  0.31500  Biso   1.000  C
  C438     1.0000 0.75930  0.75350  0.34360  Biso   1.000  C
  H242     1.0000 0.75050  0.76560  0.38380  Biso   1.000  H
  H243     1.0000 0.77290  0.79960  0.29810  Biso   1.000  H
  C439     1.0000 0.76490  0.76370  0.31820  Biso   1.000  C
  H244     1.0000 0.75730  0.73470  0.34610  Biso   1.000  H
  C440     1.0000 0.76780  0.74690  0.29330  Biso   1.000  C
  C441     1.0000 0.79010  0.75030  0.27650  Biso   1.000  C
  H245     1.0000 0.80280  0.76400  0.28000  Biso   1.000  H
  Mo148    1.0000 0.18982  0.35679  0.95833  Biso   1.000  Mo
  O393     1.0000 0.22433  0.35399  0.93835  Biso   1.000  O
  O394     1.0000 0.16562  0.35928  0.99306  Biso   1.000  O
  O395     1.0000 0.19804  0.31837  0.96782  Biso   1.000  O
  O396     1.0000 0.19359  0.39558  0.96363  Biso   1.000  O
  Mo149    1.0000 0.21726  0.30603  0.99734  Biso   1.000  Mo
  Mo150    1.0000 0.18348  0.35731  0.03085  Biso   1.000  Mo
  Zn50     1.0000 0.25518  0.32844  0.94106  Biso   1.000  Zn
  O397     1.0000 0.24725  0.30877  0.02488  Biso   1.000  O
  O398     1.0000 0.19200  0.32080  0.02386  Biso   1.000  O
  O399     1.0000 0.25613  0.30479  0.90906  Biso   1.000  O
  C442     1.0000 0.25930  0.31680  0.88730  Biso   1.000  C
  C443     1.0000 0.26160  0.29780  0.86420  Biso   1.000  C
  O400     1.0000 0.26026  0.34239  0.88492  Biso   1.000  O
  C444     1.0000 0.26740  0.30830  0.83970  Biso   1.000  C
  C445     1.0000 0.25630  0.27230  0.86700  Biso   1.000  C
  H246     1.0000 0.27040  0.32700  0.83840  Biso   1.000  H
  C446     1.0000 0.26910  0.29190  0.81500  Biso   1.000  C
  C447     1.0000 0.25930  0.25350  0.84360  Biso   1.000  C
  H247     1.0000 0.25050  0.26560  0.88380  Biso   1.000  H
  H248     1.0000 0.27290  0.29960  0.79810  Biso   1.000  H
  C448     1.0000 0.26490  0.26370  0.81820  Biso   1.000  C
  H249     1.0000 0.25730  0.23470  0.84610  Biso   1.000  H
  C449     1.0000 0.26780  0.24690  0.79330  Biso   1.000  C
  C450     1.0000 0.29010  0.25030  0.77650  Biso   1.000  C
  H250     1.0000 0.30280  0.26400  0.78000  Biso   1.000  H
  Mo151    1.0000 0.81018  0.14321  0.95833  Biso   1.000  Mo
  O401     1.0000 0.77567  0.14601  0.93835  Biso   1.000  O
  O402     1.0000 0.83438  0.14072  0.99306  Biso   1.000  O
  O403     1.0000 0.80196  0.18163  0.96782  Biso   1.000  O
  O404     1.0000 0.80641  0.10442  0.96363  Biso   1.000  O
  Mo152    1.0000 0.78274  0.19397  0.99734  Biso   1.000  Mo
  Mo153    1.0000 0.81652  0.14269  0.03085  Biso   1.000  Mo
  Zn51     1.0000 0.74482  0.17156  0.94106  Biso   1.000  Zn
  O405     1.0000 0.75275  0.19123  0.02488  Biso   1.000  O
  O406     1.0000 0.80800  0.17920  0.02386  Biso   1.000  O
  O407     1.0000 0.74387  0.19521  0.90906  Biso   1.000  O
  C451     1.0000 0.74070  0.18320  0.88730  Biso   1.000  C
  C452     1.0000 0.73840  0.20220  0.86420  Biso   1.000  C
  O408     1.0000 0.73974  0.15761  0.88492  Biso   1.000  O
  C453     1.0000 0.73260  0.19170  0.83970  Biso   1.000  C
  C454     1.0000 0.74370  0.22770  0.86700  Biso   1.000  C
  H251     1.0000 0.72960  0.17300  0.83840  Biso   1.000  H
  C455     1.0000 0.73090  0.20810  0.81500  Biso   1.000  C
  C456     1.0000 0.74070  0.24650  0.84360  Biso   1.000  C
  H252     1.0000 0.74950  0.23440  0.88380  Biso   1.000  H
  H253     1.0000 0.72710  0.20040  0.79810  Biso   1.000  H
  C457     1.0000 0.73510  0.23630  0.81820  Biso   1.000  C
  H254     1.0000 0.74270  0.26530  0.84610  Biso   1.000  H
  C458     1.0000 0.73220  0.25310  0.79330  Biso   1.000  C
  C459     1.0000 0.70990  0.24970  0.77650  Biso   1.000  C
  H255     1.0000 0.69720  0.23600  0.78000  Biso   1.000  H
  Mo154    1.0000 0.31018  0.64321  0.45833  Biso   1.000  Mo
  O409     1.0000 0.27567  0.64601  0.43835  Biso   1.000  O
  O410     1.0000 0.33438  0.64072  0.49306  Biso   1.000  O
  O411     1.0000 0.30196  0.68163  0.46782  Biso   1.000  O
  O412     1.0000 0.30641  0.60442  0.46363  Biso   1.000  O
  Mo155    1.0000 0.28274  0.69397  0.49734  Biso   1.000  Mo
  Mo156    1.0000 0.31652  0.64269  0.53085  Biso   1.000  Mo
  Zn52     1.0000 0.24482  0.67156  0.44106  Biso   1.000  Zn
  O413     1.0000 0.25275  0.69123  0.52488  Biso   1.000  O
  O414     1.0000 0.30800  0.67920  0.52386  Biso   1.000  O
  O415     1.0000 0.24387  0.69521  0.40906  Biso   1.000  O
  C460     1.0000 0.24070  0.68320  0.38730  Biso   1.000  C
  C461     1.0000 0.23840  0.70220  0.36420  Biso   1.000  C
  O416     1.0000 0.23974  0.65761  0.38492  Biso   1.000  O
  C462     1.0000 0.23260  0.69170  0.33970  Biso   1.000  C
  C463     1.0000 0.24370  0.72770  0.36700  Biso   1.000  C
  H256     1.0000 0.22960  0.67300  0.33840  Biso   1.000  H
  C464     1.0000 0.23090  0.70810  0.31500  Biso   1.000  C
  C465     1.0000 0.24070  0.74650  0.34360  Biso   1.000  C
  H257     1.0000 0.24950  0.73440  0.38380  Biso   1.000  H
  H258     1.0000 0.22710  0.70040  0.29810  Biso   1.000  H
  C466     1.0000 0.23510  0.73630  0.31820  Biso   1.000  C
  H259     1.0000 0.24270  0.76530  0.34610  Biso   1.000  H
  C467     1.0000 0.23220  0.75310  0.29330  Biso   1.000  C
  C468     1.0000 0.20990  0.74970  0.27650  Biso   1.000  C
  H260     1.0000 0.19720  0.73600  0.28000  Biso   1.000  H
  Mo157    1.0000 0.18982  0.64321  0.54167  Biso   1.000  Mo
  O417     1.0000 0.22433  0.64601  0.56165  Biso   1.000  O
  O418     1.0000 0.16562  0.64072  0.50694  Biso   1.000  O
  O419     1.0000 0.19804  0.68163  0.53218  Biso   1.000  O
  O420     1.0000 0.19359  0.60442  0.53637  Biso   1.000  O
  Mo158    1.0000 0.21726  0.69397  0.50266  Biso   1.000  Mo
  Mo159    1.0000 0.18348  0.64269  0.46915  Biso   1.000  Mo
  Zn53     1.0000 0.25518  0.67156  0.55894  Biso   1.000  Zn
  O421     1.0000 0.24725  0.69123  0.47512  Biso   1.000  O
  O422     1.0000 0.19200  0.67920  0.47614  Biso   1.000  O
  O423     1.0000 0.25613  0.69521  0.59094  Biso   1.000  O
  C469     1.0000 0.25930  0.68320  0.61270  Biso   1.000  C
  C470     1.0000 0.26160  0.70220  0.63580  Biso   1.000  C
  O424     1.0000 0.26026  0.65761  0.61508  Biso   1.000  O
  C471     1.0000 0.26740  0.69170  0.66030  Biso   1.000  C
  C472     1.0000 0.25630  0.72770  0.63300  Biso   1.000  C
  H261     1.0000 0.27040  0.67300  0.66160  Biso   1.000  H
  C473     1.0000 0.26910  0.70810  0.68500  Biso   1.000  C
  C474     1.0000 0.25930  0.74650  0.65640  Biso   1.000  C
  H262     1.0000 0.25050  0.73440  0.61620  Biso   1.000  H
  H263     1.0000 0.27290  0.70040  0.70190  Biso   1.000  H
  C475     1.0000 0.26490  0.73630  0.68180  Biso   1.000  C
  H264     1.0000 0.25730  0.76530  0.65390  Biso   1.000  H
  C476     1.0000 0.26780  0.75310  0.70670  Biso   1.000  C
  C477     1.0000 0.29010  0.74970  0.72350  Biso   1.000  C
  H265     1.0000 0.30280  0.73600  0.72000  Biso   1.000  H
  Mo160    1.0000 0.68982  0.14321  0.04167  Biso   1.000  Mo
  O425     1.0000 0.72433  0.14601  0.06165  Biso   1.000  O
  O426     1.0000 0.66562  0.14072  0.00694  Biso   1.000  O
  O427     1.0000 0.69804  0.18163  0.03218  Biso   1.000  O
  O428     1.0000 0.69359  0.10442  0.03637  Biso   1.000  O
  Mo161    1.0000 0.71726  0.19397  0.00266  Biso   1.000  Mo
  Mo162    1.0000 0.68348  0.14269  0.96915  Biso   1.000  Mo
  Zn54     1.0000 0.75518  0.17156  0.05894  Biso   1.000  Zn
  O429     1.0000 0.74725  0.19123  0.97512  Biso   1.000  O
  O430     1.0000 0.69200  0.17920  0.97614  Biso   1.000  O
  O431     1.0000 0.75613  0.19521  0.09094  Biso   1.000  O
  C478     1.0000 0.75930  0.18320  0.11270  Biso   1.000  C
  C479     1.0000 0.76160  0.20220  0.13580  Biso   1.000  C
  O432     1.0000 0.76026  0.15761  0.11508  Biso   1.000  O
  C480     1.0000 0.76740  0.19170  0.16030  Biso   1.000  C
  C481     1.0000 0.75630  0.22770  0.13300  Biso   1.000  C
  H266     1.0000 0.77040  0.17300  0.16160  Biso   1.000  H
  C482     1.0000 0.76910  0.20810  0.18500  Biso   1.000  C
  C483     1.0000 0.75930  0.24650  0.15640  Biso   1.000  C
  H267     1.0000 0.75050  0.23440  0.11620  Biso   1.000  H
  H268     1.0000 0.77290  0.20040  0.20190  Biso   1.000  H
  C484     1.0000 0.76490  0.23630  0.18180  Biso   1.000  C
  H269     1.0000 0.75730  0.26530  0.15390  Biso   1.000  H
  C485     1.0000 0.76780  0.25310  0.20670  Biso   1.000  C
  C486     1.0000 0.79010  0.24970  0.22350  Biso   1.000  C
  H270     1.0000 0.80280  0.23600  0.22000  Biso   1.000  H
  Mo163    1.0000 0.31018  0.35679  0.04167  Biso   1.000  Mo
  O433     1.0000 0.27567  0.35399  0.06165  Biso   1.000  O
  O434     1.0000 0.33438  0.35928  0.00694  Biso   1.000  O
  O435     1.0000 0.30196  0.31837  0.03218  Biso   1.000  O
  O436     1.0000 0.30641  0.39558  0.03637  Biso   1.000  O
  Mo164    1.0000 0.28274  0.30603  0.00266  Biso   1.000  Mo
  Mo165    1.0000 0.31652  0.35731  0.96915  Biso   1.000  Mo
  Zn55     1.0000 0.24482  0.32844  0.05894  Biso   1.000  Zn
  O437     1.0000 0.25275  0.30877  0.97512  Biso   1.000  O
  O438     1.0000 0.30800  0.32080  0.97614  Biso   1.000  O
  O439     1.0000 0.24387  0.30479  0.09094  Biso   1.000  O
  C487     1.0000 0.24070  0.31680  0.11270  Biso   1.000  C
  C488     1.0000 0.23840  0.29780  0.13580  Biso   1.000  C
  O440     1.0000 0.23974  0.34239  0.11508  Biso   1.000  O
  C489     1.0000 0.23260  0.30830  0.16030  Biso   1.000  C
  C490     1.0000 0.24370  0.27230  0.13300  Biso   1.000  C
  H271     1.0000 0.22960  0.32700  0.16160  Biso   1.000  H
  C491     1.0000 0.23090  0.29190  0.18500  Biso   1.000  C
  C492     1.0000 0.24070  0.25350  0.15640  Biso   1.000  C
  H272     1.0000 0.24950  0.26560  0.11620  Biso   1.000  H
  H273     1.0000 0.22710  0.29960  0.20190  Biso   1.000  H
  C493     1.0000 0.23510  0.26370  0.18180  Biso   1.000  C
  H274     1.0000 0.24270  0.23470  0.15390  Biso   1.000  H
  C494     1.0000 0.23220  0.24690  0.20670  Biso   1.000  C
  C495     1.0000 0.20990  0.25030  0.22350  Biso   1.000  C
  H275     1.0000 0.19720  0.26400  0.22000  Biso   1.000  H
  Mo166    1.0000 0.81018  0.85679  0.54167  Biso   1.000  Mo
  O441     1.0000 0.77567  0.85399  0.56165  Biso   1.000  O
  O442     1.0000 0.83438  0.85928  0.50694  Biso   1.000  O
  O443     1.0000 0.80196  0.81837  0.53218  Biso   1.000  O
  O444     1.0000 0.80641  0.89558  0.53637  Biso   1.000  O
  Mo167    1.0000 0.78274  0.80603  0.50266  Biso   1.000  Mo
  Mo168    1.0000 0.81652  0.85731  0.46915  Biso   1.000  Mo
  Zn56     1.0000 0.74482  0.82844  0.55894  Biso   1.000  Zn
  O445     1.0000 0.75275  0.80877  0.47512  Biso   1.000  O
  O446     1.0000 0.80800  0.82080  0.47614  Biso   1.000  O
  O447     1.0000 0.74387  0.80479  0.59094  Biso   1.000  O
  C496     1.0000 0.74070  0.81680  0.61270  Biso   1.000  C
  C497     1.0000 0.73840  0.79780  0.63580  Biso   1.000  C
  O448     1.0000 0.73974  0.84239  0.61508  Biso   1.000  O
  C498     1.0000 0.73260  0.80830  0.66030  Biso   1.000  C
  C499     1.0000 0.74370  0.77230  0.63300  Biso   1.000  C
  H276     1.0000 0.72960  0.82700  0.66160  Biso   1.000  H
  C500     1.0000 0.73090  0.79190  0.68500  Biso   1.000  C
  C501     1.0000 0.74070  0.75350  0.65640  Biso   1.000  C
  H277     1.0000 0.74950  0.76560  0.61620  Biso   1.000  H
  H278     1.0000 0.72710  0.79960  0.70190  Biso   1.000  H
  C502     1.0000 0.73510  0.76370  0.68180  Biso   1.000  C
  H279     1.0000 0.74270  0.73470  0.65390  Biso   1.000  H
  C503     1.0000 0.73220  0.74690  0.70670  Biso   1.000  C
  C504     1.0000 0.70990  0.75030  0.72350  Biso   1.000  C
  H280     1.0000 0.69720  0.76400  0.72000  Biso   1.000  H
  Mo169    1.0000 0.35679  0.04167  0.31018  Biso   1.000  Mo
  O449     1.0000 0.35399  0.06165  0.27567  Biso   1.000  O
  O450     1.0000 0.35928  0.00694  0.33438  Biso   1.000  O
  O451     1.0000 0.31837  0.03218  0.30196  Biso   1.000  O
  O452     1.0000 0.39558  0.03637  0.30641  Biso   1.000  O
  Mo170    1.0000 0.30603  0.00266  0.28274  Biso   1.000  Mo
  Mo171    1.0000 0.35731  0.96915  0.31652  Biso   1.000  Mo
  Zn57     1.0000 0.32844  0.05894  0.24482  Biso   1.000  Zn
  O453     1.0000 0.30877  0.97512  0.25275  Biso   1.000  O
  O454     1.0000 0.32080  0.97614  0.30800  Biso   1.000  O
  O455     1.0000 0.30479  0.09094  0.24387  Biso   1.000  O
  C505     1.0000 0.31680  0.11270  0.24070  Biso   1.000  C
  C506     1.0000 0.29780  0.13580  0.23840  Biso   1.000  C
  O456     1.0000 0.34239  0.11508  0.23974  Biso   1.000  O
  C507     1.0000 0.30830  0.16030  0.23260  Biso   1.000  C
  C508     1.0000 0.27230  0.13300  0.24370  Biso   1.000  C
  H281     1.0000 0.32700  0.16160  0.22960  Biso   1.000  H
  C509     1.0000 0.29190  0.18500  0.23090  Biso   1.000  C
  C510     1.0000 0.25350  0.15640  0.24070  Biso   1.000  C
  H282     1.0000 0.26560  0.11620  0.24950  Biso   1.000  H
  H283     1.0000 0.29960  0.20190  0.22710  Biso   1.000  H
  C511     1.0000 0.26370  0.18180  0.23510  Biso   1.000  C
  H284     1.0000 0.23470  0.15390  0.24270  Biso   1.000  H
  C512     1.0000 0.24690  0.20670  0.23220  Biso   1.000  C
  C513     1.0000 0.25030  0.22350  0.20990  Biso   1.000  C
  H285     1.0000 0.26400  0.22000  0.19720  Biso   1.000  H
  Mo172    1.0000 0.85679  0.54167  0.81018  Biso   1.000  Mo
  O457     1.0000 0.85399  0.56165  0.77567  Biso   1.000  O
  O458     1.0000 0.85928  0.50694  0.83438  Biso   1.000  O
  O459     1.0000 0.81837  0.53218  0.80196  Biso   1.000  O
  O460     1.0000 0.89558  0.53637  0.80641  Biso   1.000  O
  Mo173    1.0000 0.80603  0.50266  0.78274  Biso   1.000  Mo
  Mo174    1.0000 0.85731  0.46915  0.81652  Biso   1.000  Mo
  Zn58     1.0000 0.82844  0.55894  0.74482  Biso   1.000  Zn
  O461     1.0000 0.80877  0.47512  0.75275  Biso   1.000  O
  O462     1.0000 0.82080  0.47614  0.80800  Biso   1.000  O
  O463     1.0000 0.80479  0.59094  0.74387  Biso   1.000  O
  C514     1.0000 0.81680  0.61270  0.74070  Biso   1.000  C
  C515     1.0000 0.79780  0.63580  0.73840  Biso   1.000  C
  O464     1.0000 0.84239  0.61508  0.73974  Biso   1.000  O
  C516     1.0000 0.80830  0.66030  0.73260  Biso   1.000  C
  C517     1.0000 0.77230  0.63300  0.74370  Biso   1.000  C
  H286     1.0000 0.82700  0.66160  0.72960  Biso   1.000  H
  C518     1.0000 0.79190  0.68500  0.73090  Biso   1.000  C
  C519     1.0000 0.75350  0.65640  0.74070  Biso   1.000  C
  H287     1.0000 0.76560  0.61620  0.74950  Biso   1.000  H
  H288     1.0000 0.79960  0.70190  0.72710  Biso   1.000  H
  C520     1.0000 0.76370  0.68180  0.73510  Biso   1.000  C
  H289     1.0000 0.73470  0.65390  0.74270  Biso   1.000  H
  C521     1.0000 0.74690  0.70670  0.73220  Biso   1.000  C
  C522     1.0000 0.75030  0.72350  0.70990  Biso   1.000  C
  H290     1.0000 0.76400  0.72000  0.69720  Biso   1.000  H
  Mo175    1.0000 0.64321  0.54167  0.18982  Biso   1.000  Mo
  O465     1.0000 0.64601  0.56165  0.22433  Biso   1.000  O
  O466     1.0000 0.64072  0.50694  0.16562  Biso   1.000  O
  O467     1.0000 0.68163  0.53218  0.19804  Biso   1.000  O
  O468     1.0000 0.60442  0.53637  0.19359  Biso   1.000  O
  Mo176    1.0000 0.69397  0.50266  0.21726  Biso   1.000  Mo
  Mo177    1.0000 0.64269  0.46915  0.18348  Biso   1.000  Mo
  Zn59     1.0000 0.67156  0.55894  0.25518  Biso   1.000  Zn
  O469     1.0000 0.69123  0.47512  0.24725  Biso   1.000  O
  O470     1.0000 0.67920  0.47614  0.19200  Biso   1.000  O
  O471     1.0000 0.69521  0.59094  0.25613  Biso   1.000  O
  C523     1.0000 0.68320  0.61270  0.25930  Biso   1.000  C
  C524     1.0000 0.70220  0.63580  0.26160  Biso   1.000  C
  O472     1.0000 0.65761  0.61508  0.26026  Biso   1.000  O
  C525     1.0000 0.69170  0.66030  0.26740  Biso   1.000  C
  C526     1.0000 0.72770  0.63300  0.25630  Biso   1.000  C
  H291     1.0000 0.67300  0.66160  0.27040  Biso   1.000  H
  C527     1.0000 0.70810  0.68500  0.26910  Biso   1.000  C
  C528     1.0000 0.74650  0.65640  0.25930  Biso   1.000  C
  H292     1.0000 0.73440  0.61620  0.25050  Biso   1.000  H
  H293     1.0000 0.70040  0.70190  0.27290  Biso   1.000  H
  C529     1.0000 0.73630  0.68180  0.26490  Biso   1.000  C
  H294     1.0000 0.76530  0.65390  0.25730  Biso   1.000  H
  C530     1.0000 0.75310  0.70670  0.26780  Biso   1.000  C
  C531     1.0000 0.74970  0.72350  0.29010  Biso   1.000  C
  H295     1.0000 0.73600  0.72000  0.30280  Biso   1.000  H
  Mo178    1.0000 0.14321  0.04167  0.68982  Biso   1.000  Mo
  O473     1.0000 0.14601  0.06165  0.72433  Biso   1.000  O
  O474     1.0000 0.14072  0.00694  0.66562  Biso   1.000  O
  O475     1.0000 0.18163  0.03218  0.69804  Biso   1.000  O
  O476     1.0000 0.10442  0.03637  0.69359  Biso   1.000  O
  Mo179    1.0000 0.19397  0.00266  0.71726  Biso   1.000  Mo
  Mo180    1.0000 0.14269  0.96915  0.68348  Biso   1.000  Mo
  Zn60     1.0000 0.17156  0.05894  0.75518  Biso   1.000  Zn
  O477     1.0000 0.19123  0.97512  0.74725  Biso   1.000  O
  O478     1.0000 0.17920  0.97614  0.69200  Biso   1.000  O
  O479     1.0000 0.19521  0.09094  0.75613  Biso   1.000  O
  C532     1.0000 0.18320  0.11270  0.75930  Biso   1.000  C
  C533     1.0000 0.20220  0.13580  0.76160  Biso   1.000  C
  O480     1.0000 0.15761  0.11508  0.76026  Biso   1.000  O
  C534     1.0000 0.19170  0.16030  0.76740  Biso   1.000  C
  C535     1.0000 0.22770  0.13300  0.75630  Biso   1.000  C
  H296     1.0000 0.17300  0.16160  0.77040  Biso   1.000  H
  C536     1.0000 0.20810  0.18500  0.76910  Biso   1.000  C
  C537     1.0000 0.24650  0.15640  0.75930  Biso   1.000  C
  H297     1.0000 0.23440  0.11620  0.75050  Biso   1.000  H
  H298     1.0000 0.20040  0.20190  0.77290  Biso   1.000  H
  C538     1.0000 0.23630  0.18180  0.76490  Biso   1.000  C
  H299     1.0000 0.26530  0.15390  0.75730  Biso   1.000  H
  C539     1.0000 0.25310  0.20670  0.76780  Biso   1.000  C
  C540     1.0000 0.24970  0.22350  0.79010  Biso   1.000  C
  H300     1.0000 0.23600  0.22000  0.80280  Biso   1.000  H
  Mo181    1.0000 0.14321  0.95833  0.81018  Biso   1.000  Mo
  O481     1.0000 0.14601  0.93835  0.77567  Biso   1.000  O
  O482     1.0000 0.14072  0.99306  0.83438  Biso   1.000  O
  O483     1.0000 0.18163  0.96782  0.80196  Biso   1.000  O
  O484     1.0000 0.10442  0.96363  0.80641  Biso   1.000  O
  Mo182    1.0000 0.19397  0.99734  0.78274  Biso   1.000  Mo
  Mo183    1.0000 0.14269  0.03085  0.81652  Biso   1.000  Mo
  Zn61     1.0000 0.17156  0.94106  0.74482  Biso   1.000  Zn
  O485     1.0000 0.19123  0.02488  0.75275  Biso   1.000  O
  O486     1.0000 0.17920  0.02386  0.80800  Biso   1.000  O
  O487     1.0000 0.19521  0.90906  0.74387  Biso   1.000  O
  C541     1.0000 0.18320  0.88730  0.74070  Biso   1.000  C
  C542     1.0000 0.20220  0.86420  0.73840  Biso   1.000  C
  O488     1.0000 0.15761  0.88492  0.73974  Biso   1.000  O
  C543     1.0000 0.19170  0.83970  0.73260  Biso   1.000  C
  C544     1.0000 0.22770  0.86700  0.74370  Biso   1.000  C
  H301     1.0000 0.17300  0.83840  0.72960  Biso   1.000  H
  C545     1.0000 0.20810  0.81500  0.73090  Biso   1.000  C
  C546     1.0000 0.24650  0.84360  0.74070  Biso   1.000  C
  H302     1.0000 0.23440  0.88380  0.74950  Biso   1.000  H
  H303     1.0000 0.20040  0.79810  0.72710  Biso   1.000  H
  C547     1.0000 0.23630  0.81820  0.73510  Biso   1.000  C
  H304     1.0000 0.26530  0.84610  0.74270  Biso   1.000  H
  C548     1.0000 0.25310  0.79330  0.73220  Biso   1.000  C
  C549     1.0000 0.24970  0.77650  0.70990  Biso   1.000  C
  H305     1.0000 0.23600  0.78000  0.69720  Biso   1.000  H
  Mo184    1.0000 0.64321  0.45833  0.31018  Biso   1.000  Mo
  O489     1.0000 0.64601  0.43835  0.27567  Biso   1.000  O
  O490     1.0000 0.64072  0.49306  0.33438  Biso   1.000  O
  O491     1.0000 0.68163  0.46782  0.30196  Biso   1.000  O
  O492     1.0000 0.60442  0.46363  0.30641  Biso   1.000  O
  Mo185    1.0000 0.69397  0.49734  0.28274  Biso   1.000  Mo
  Mo186    1.0000 0.64269  0.53085  0.31652  Biso   1.000  Mo
  Zn62     1.0000 0.67156  0.44106  0.24482  Biso   1.000  Zn
  O493     1.0000 0.69123  0.52488  0.25275  Biso   1.000  O
  O494     1.0000 0.67920  0.52386  0.30800  Biso   1.000  O
  O495     1.0000 0.69521  0.40906  0.24387  Biso   1.000  O
  C550     1.0000 0.68320  0.38730  0.24070  Biso   1.000  C
  C551     1.0000 0.70220  0.36420  0.23840  Biso   1.000  C
  O496     1.0000 0.65761  0.38492  0.23974  Biso   1.000  O
  C552     1.0000 0.69170  0.33970  0.23260  Biso   1.000  C
  C553     1.0000 0.72770  0.36700  0.24370  Biso   1.000  C
  H306     1.0000 0.67300  0.33840  0.22960  Biso   1.000  H
  C554     1.0000 0.70810  0.31500  0.23090  Biso   1.000  C
  C555     1.0000 0.74650  0.34360  0.24070  Biso   1.000  C
  H307     1.0000 0.73440  0.38380  0.24950  Biso   1.000  H
  H308     1.0000 0.70040  0.29810  0.22710  Biso   1.000  H
  C556     1.0000 0.73630  0.31820  0.23510  Biso   1.000  C
  H309     1.0000 0.76530  0.34610  0.24270  Biso   1.000  H
  C557     1.0000 0.75310  0.29330  0.23220  Biso   1.000  C
  C558     1.0000 0.74970  0.27650  0.20990  Biso   1.000  C
  H310     1.0000 0.73600  0.28000  0.19720  Biso   1.000  H
  Mo187    1.0000 0.85679  0.45833  0.68982  Biso   1.000  Mo
  O497     1.0000 0.85399  0.43835  0.72433  Biso   1.000  O
  O498     1.0000 0.85928  0.49306  0.66562  Biso   1.000  O
  O499     1.0000 0.81837  0.46782  0.69804  Biso   1.000  O
  O500     1.0000 0.89558  0.46363  0.69359  Biso   1.000  O
  Mo188    1.0000 0.80603  0.49734  0.71726  Biso   1.000  Mo
  Mo189    1.0000 0.85731  0.53085  0.68348  Biso   1.000  Mo
  Zn63     1.0000 0.82844  0.44106  0.75518  Biso   1.000  Zn
  O501     1.0000 0.80877  0.52488  0.74725  Biso   1.000  O
  O502     1.0000 0.82080  0.52386  0.69200  Biso   1.000  O
  O503     1.0000 0.80479  0.40906  0.75613  Biso   1.000  O
  C559     1.0000 0.81680  0.38730  0.75930  Biso   1.000  C
  C560     1.0000 0.79780  0.36420  0.76160  Biso   1.000  C
  O504     1.0000 0.84239  0.38492  0.76026  Biso   1.000  O
  C561     1.0000 0.80830  0.33970  0.76740  Biso   1.000  C
  C562     1.0000 0.77230  0.36700  0.75630  Biso   1.000  C
  H311     1.0000 0.82700  0.33840  0.77040  Biso   1.000  H
  C563     1.0000 0.79190  0.31500  0.76910  Biso   1.000  C
  C564     1.0000 0.75350  0.34360  0.75930  Biso   1.000  C
  H312     1.0000 0.76560  0.38380  0.75050  Biso   1.000  H
  H313     1.0000 0.79960  0.29810  0.77290  Biso   1.000  H
  C565     1.0000 0.76370  0.31820  0.76490  Biso   1.000  C
  H314     1.0000 0.73470  0.34610  0.75730  Biso   1.000  H
  C566     1.0000 0.74690  0.29330  0.76780  Biso   1.000  C
  C567     1.0000 0.75030  0.27650  0.79010  Biso   1.000  C
  H315     1.0000 0.76400  0.28000  0.80280  Biso   1.000  H
  Mo190    1.0000 0.35679  0.95833  0.18982  Biso   1.000  Mo
  O505     1.0000 0.35399  0.93835  0.22433  Biso   1.000  O
  O506     1.0000 0.35928  0.99306  0.16562  Biso   1.000  O
  O507     1.0000 0.31837  0.96782  0.19804  Biso   1.000  O
  O508     1.0000 0.39558  0.96363  0.19359  Biso   1.000  O
  Mo191    1.0000 0.30603  0.99734  0.21726  Biso   1.000  Mo
  Mo192    1.0000 0.35731  0.03085  0.18348  Biso   1.000  Mo
  Zn64     1.0000 0.32844  0.94106  0.25518  Biso   1.000  Zn
  O509     1.0000 0.30877  0.02488  0.24725  Biso   1.000  O
  O510     1.0000 0.32080  0.02386  0.19200  Biso   1.000  O
  O511     1.0000 0.30479  0.90906  0.25613  Biso   1.000  O
  C568     1.0000 0.31680  0.88730  0.25930  Biso   1.000  C
  C569     1.0000 0.29780  0.86420  0.26160  Biso   1.000  C
  O512     1.0000 0.34239  0.88492  0.26026  Biso   1.000  O
  C570     1.0000 0.30830  0.83970  0.26740  Biso   1.000  C
  C571     1.0000 0.27230  0.86700  0.25630  Biso   1.000  C
  H316     1.0000 0.32700  0.83840  0.27040  Biso   1.000  H
  C572     1.0000 0.29190  0.81500  0.26910  Biso   1.000  C
  C573     1.0000 0.25350  0.84360  0.25930  Biso   1.000  C
  H317     1.0000 0.26560  0.88380  0.25050  Biso   1.000  H
  H318     1.0000 0.29960  0.79810  0.27290  Biso   1.000  H
  C574     1.0000 0.26370  0.81820  0.26490  Biso   1.000  C
  H319     1.0000 0.23470  0.84610  0.25730  Biso   1.000  H
  C575     1.0000 0.24690  0.79330  0.26780  Biso   1.000  C
  C576     1.0000 0.25030  0.77650  0.29010  Biso   1.000  C
  H320     1.0000 0.26400  0.78000  0.30280  Biso   1.000  H
  Mo193    1.0000 0.54167  0.18982  0.64321  Biso   1.000  Mo
  O513     1.0000 0.56165  0.22433  0.64601  Biso   1.000  O
  O514     1.0000 0.50694  0.16562  0.64072  Biso   1.000  O
  O515     1.0000 0.53218  0.19804  0.68163  Biso   1.000  O
  O516     1.0000 0.53637  0.19359  0.60442  Biso   1.000  O
  Mo194    1.0000 0.50266  0.21726  0.69397  Biso   1.000  Mo
  Mo195    1.0000 0.46915  0.18348  0.64269  Biso   1.000  Mo
  Zn65     1.0000 0.55894  0.25518  0.67156  Biso   1.000  Zn
  O517     1.0000 0.47512  0.24725  0.69123  Biso   1.000  O
  O518     1.0000 0.47614  0.19200  0.67920  Biso   1.000  O
  O519     1.0000 0.59094  0.25613  0.69521  Biso   1.000  O
  C577     1.0000 0.61270  0.25930  0.68320  Biso   1.000  C
  C578     1.0000 0.63580  0.26160  0.70220  Biso   1.000  C
  O520     1.0000 0.61508  0.26026  0.65761  Biso   1.000  O
  C579     1.0000 0.66030  0.26740  0.69170  Biso   1.000  C
  C580     1.0000 0.63300  0.25630  0.72770  Biso   1.000  C
  H321     1.0000 0.66160  0.27040  0.67300  Biso   1.000  H
  C581     1.0000 0.68500  0.26910  0.70810  Biso   1.000  C
  C582     1.0000 0.65640  0.25930  0.74650  Biso   1.000  C
  H322     1.0000 0.61620  0.25050  0.73440  Biso   1.000  H
  H323     1.0000 0.70190  0.27290  0.70040  Biso   1.000  H
  C583     1.0000 0.68180  0.26490  0.73630  Biso   1.000  C
  H324     1.0000 0.65390  0.25730  0.76530  Biso   1.000  H
  C584     1.0000 0.70670  0.26780  0.75310  Biso   1.000  C
  C585     1.0000 0.72350  0.29010  0.74970  Biso   1.000  C
  H325     1.0000 0.72000  0.30280  0.73600  Biso   1.000  H
  Mo196    1.0000 0.04167  0.68982  0.14321  Biso   1.000  Mo
  O521     1.0000 0.06165  0.72433  0.14601  Biso   1.000  O
  O522     1.0000 0.00694  0.66562  0.14072  Biso   1.000  O
  O523     1.0000 0.03218  0.69804  0.18163  Biso   1.000  O
  O524     1.0000 0.03637  0.69359  0.10442  Biso   1.000  O
  Mo197    1.0000 0.00266  0.71726  0.19397  Biso   1.000  Mo
  Mo198    1.0000 0.96915  0.68348  0.14269  Biso   1.000  Mo
  Zn66     1.0000 0.05894  0.75518  0.17156  Biso   1.000  Zn
  O525     1.0000 0.97512  0.74725  0.19123  Biso   1.000  O
  O526     1.0000 0.97614  0.69200  0.17920  Biso   1.000  O
  O527     1.0000 0.09094  0.75613  0.19521  Biso   1.000  O
  C586     1.0000 0.11270  0.75930  0.18320  Biso   1.000  C
  C587     1.0000 0.13580  0.76160  0.20220  Biso   1.000  C
  O528     1.0000 0.11508  0.76026  0.15761  Biso   1.000  O
  C588     1.0000 0.16030  0.76740  0.19170  Biso   1.000  C
  C589     1.0000 0.13300  0.75630  0.22770  Biso   1.000  C
  H326     1.0000 0.16160  0.77040  0.17300  Biso   1.000  H
  C590     1.0000 0.18500  0.76910  0.20810  Biso   1.000  C
  C591     1.0000 0.15640  0.75930  0.24650  Biso   1.000  C
  H327     1.0000 0.11620  0.75050  0.23440  Biso   1.000  H
  H328     1.0000 0.20190  0.77290  0.20040  Biso   1.000  H
  C592     1.0000 0.18180  0.76490  0.23630  Biso   1.000  C
  H329     1.0000 0.15390  0.75730  0.26530  Biso   1.000  H
  C593     1.0000 0.20670  0.76780  0.25310  Biso   1.000  C
  C594     1.0000 0.22350  0.79010  0.24970  Biso   1.000  C
  H330     1.0000 0.22000  0.80280  0.23600  Biso   1.000  H
  Mo199    1.0000 0.04167  0.31018  0.35679  Biso   1.000  Mo
  O529     1.0000 0.06165  0.27567  0.35399  Biso   1.000  O
  O530     1.0000 0.00694  0.33438  0.35928  Biso   1.000  O
  O531     1.0000 0.03218  0.30196  0.31837  Biso   1.000  O
  O532     1.0000 0.03637  0.30641  0.39558  Biso   1.000  O
  Mo200    1.0000 0.00266  0.28274  0.30603  Biso   1.000  Mo
  Mo201    1.0000 0.96915  0.31652  0.35731  Biso   1.000  Mo
  Zn67     1.0000 0.05894  0.24482  0.32844  Biso   1.000  Zn
  O533     1.0000 0.97512  0.25275  0.30877  Biso   1.000  O
  O534     1.0000 0.97614  0.30800  0.32080  Biso   1.000  O
  O535     1.0000 0.09094  0.24387  0.30479  Biso   1.000  O
  C595     1.0000 0.11270  0.24070  0.31680  Biso   1.000  C
  C596     1.0000 0.13580  0.23840  0.29780  Biso   1.000  C
  O536     1.0000 0.11508  0.23974  0.34239  Biso   1.000  O
  C597     1.0000 0.16030  0.23260  0.30830  Biso   1.000  C
  C598     1.0000 0.13300  0.24370  0.27230  Biso   1.000  C
  H331     1.0000 0.16160  0.22960  0.32700  Biso   1.000  H
  C599     1.0000 0.18500  0.23090  0.29190  Biso   1.000  C
  C600     1.0000 0.15640  0.24070  0.25350  Biso   1.000  C
  H332     1.0000 0.11620  0.24950  0.26560  Biso   1.000  H
  H333     1.0000 0.20190  0.22710  0.29960  Biso   1.000  H
  C601     1.0000 0.18180  0.23510  0.26370  Biso   1.000  C
  H334     1.0000 0.15390  0.24270  0.23470  Biso   1.000  H
  C602     1.0000 0.20670  0.23220  0.24690  Biso   1.000  C
  C603     1.0000 0.22350  0.20990  0.25030  Biso   1.000  C
  H335     1.0000 0.22000  0.19720  0.26400  Biso   1.000  H
  Mo202    1.0000 0.54167  0.81018  0.85679  Biso   1.000  Mo
  O537     1.0000 0.56165  0.77567  0.85399  Biso   1.000  O
  O538     1.0000 0.50694  0.83438  0.85928  Biso   1.000  O
  O539     1.0000 0.53218  0.80196  0.81837  Biso   1.000  O
  O540     1.0000 0.53637  0.80641  0.89558  Biso   1.000  O
  Mo203    1.0000 0.50266  0.78274  0.80603  Biso   1.000  Mo
  Mo204    1.0000 0.46915  0.81652  0.85731  Biso   1.000  Mo
  Zn68     1.0000 0.55894  0.74482  0.82844  Biso   1.000  Zn
  O541     1.0000 0.47512  0.75275  0.80877  Biso   1.000  O
  O542     1.0000 0.47614  0.80800  0.82080  Biso   1.000  O
  O543     1.0000 0.59094  0.74387  0.80479  Biso   1.000  O
  C604     1.0000 0.61270  0.74070  0.81680  Biso   1.000  C
  C605     1.0000 0.63580  0.73840  0.79780  Biso   1.000  C
  O544     1.0000 0.61508  0.73974  0.84239  Biso   1.000  O
  C606     1.0000 0.66030  0.73260  0.80830  Biso   1.000  C
  C607     1.0000 0.63300  0.74370  0.77230  Biso   1.000  C
  H336     1.0000 0.66160  0.72960  0.82700  Biso   1.000  H
  C608     1.0000 0.68500  0.73090  0.79190  Biso   1.000  C
  C609     1.0000 0.65640  0.74070  0.75350  Biso   1.000  C
  H337     1.0000 0.61620  0.74950  0.76560  Biso   1.000  H
  H338     1.0000 0.70190  0.72710  0.79960  Biso   1.000  H
  C610     1.0000 0.68180  0.73510  0.76370  Biso   1.000  C
  H339     1.0000 0.65390  0.74270  0.73470  Biso   1.000  H
  C611     1.0000 0.70670  0.73220  0.74690  Biso   1.000  C
  C612     1.0000 0.72350  0.70990  0.75030  Biso   1.000  C
  H340     1.0000 0.72000  0.69720  0.76400  Biso   1.000  H
  Mo205    1.0000 0.45833  0.68982  0.85679  Biso   1.000  Mo
  O545     1.0000 0.43835  0.72433  0.85399  Biso   1.000  O
  O546     1.0000 0.49306  0.66562  0.85928  Biso   1.000  O
  O547     1.0000 0.46782  0.69804  0.81837  Biso   1.000  O
  O548     1.0000 0.46363  0.69359  0.89558  Biso   1.000  O
  Mo206    1.0000 0.49734  0.71726  0.80603  Biso   1.000  Mo
  Mo207    1.0000 0.53085  0.68348  0.85731  Biso   1.000  Mo
  Zn69     1.0000 0.44106  0.75518  0.82844  Biso   1.000  Zn
  O549     1.0000 0.52488  0.74725  0.80877  Biso   1.000  O
  O550     1.0000 0.52386  0.69200  0.82080  Biso   1.000  O
  O551     1.0000 0.40906  0.75613  0.80479  Biso   1.000  O
  C613     1.0000 0.38730  0.75930  0.81680  Biso   1.000  C
  C614     1.0000 0.36420  0.76160  0.79780  Biso   1.000  C
  O552     1.0000 0.38492  0.76026  0.84239  Biso   1.000  O
  C615     1.0000 0.33970  0.76740  0.80830  Biso   1.000  C
  C616     1.0000 0.36700  0.75630  0.77230  Biso   1.000  C
  H341     1.0000 0.33840  0.77040  0.82700  Biso   1.000  H
  C617     1.0000 0.31500  0.76910  0.79190  Biso   1.000  C
  C618     1.0000 0.34360  0.75930  0.75350  Biso   1.000  C
  H342     1.0000 0.38380  0.75050  0.76560  Biso   1.000  H
  H343     1.0000 0.29810  0.77290  0.79960  Biso   1.000  H
  C619     1.0000 0.31820  0.76490  0.76370  Biso   1.000  C
  H344     1.0000 0.34610  0.75730  0.73470  Biso   1.000  H
  C620     1.0000 0.29330  0.76780  0.74690  Biso   1.000  C
  C621     1.0000 0.27650  0.79010  0.75030  Biso   1.000  C
  H345     1.0000 0.28000  0.80280  0.76400  Biso   1.000  H
  Mo208    1.0000 0.95833  0.18982  0.35679  Biso   1.000  Mo
  O553     1.0000 0.93835  0.22433  0.35399  Biso   1.000  O
  O554     1.0000 0.99306  0.16562  0.35928  Biso   1.000  O
  O555     1.0000 0.96782  0.19804  0.31837  Biso   1.000  O
  O556     1.0000 0.96363  0.19359  0.39558  Biso   1.000  O
  Mo209    1.0000 0.99734  0.21726  0.30603  Biso   1.000  Mo
  Mo210    1.0000 0.03085  0.18348  0.35731  Biso   1.000  Mo
  Zn70     1.0000 0.94106  0.25518  0.32844  Biso   1.000  Zn
  O557     1.0000 0.02488  0.24725  0.30877  Biso   1.000  O
  O558     1.0000 0.02386  0.19200  0.32080  Biso   1.000  O
  O559     1.0000 0.90906  0.25613  0.30479  Biso   1.000  O
  C622     1.0000 0.88730  0.25930  0.31680  Biso   1.000  C
  C623     1.0000 0.86420  0.26160  0.29780  Biso   1.000  C
  O560     1.0000 0.88492  0.26026  0.34239  Biso   1.000  O
  C624     1.0000 0.83970  0.26740  0.30830  Biso   1.000  C
  C625     1.0000 0.86700  0.25630  0.27230  Biso   1.000  C
  H346     1.0000 0.83840  0.27040  0.32700  Biso   1.000  H
  C626     1.0000 0.81500  0.26910  0.29190  Biso   1.000  C
  C627     1.0000 0.84360  0.25930  0.25350  Biso   1.000  C
  H347     1.0000 0.88380  0.25050  0.26560  Biso   1.000  H
  H348     1.0000 0.79810  0.27290  0.29960  Biso   1.000  H
  C628     1.0000 0.81820  0.26490  0.26370  Biso   1.000  C
  H349     1.0000 0.84610  0.25730  0.23470  Biso   1.000  H
  C629     1.0000 0.79330  0.26780  0.24690  Biso   1.000  C
  C630     1.0000 0.77650  0.29010  0.25030  Biso   1.000  C
  H350     1.0000 0.78000  0.30280  0.26400  Biso   1.000  H
  Mo211    1.0000 0.95833  0.81018  0.14321  Biso   1.000  Mo
  O561     1.0000 0.93835  0.77567  0.14601  Biso   1.000  O
  O562     1.0000 0.99306  0.83438  0.14072  Biso   1.000  O
  O563     1.0000 0.96782  0.80196  0.18163  Biso   1.000  O
  O564     1.0000 0.96363  0.80641  0.10442  Biso   1.000  O
  Mo212    1.0000 0.99734  0.78274  0.19397  Biso   1.000  Mo
  Mo213    1.0000 0.03085  0.81652  0.14269  Biso   1.000  Mo
  Zn71     1.0000 0.94106  0.74482  0.17156  Biso   1.000  Zn
  O565     1.0000 0.02488  0.75275  0.19123  Biso   1.000  O
  O566     1.0000 0.02386  0.80800  0.17920  Biso   1.000  O
  O567     1.0000 0.90906  0.74387  0.19521  Biso   1.000  O
  C631     1.0000 0.88730  0.74070  0.18320  Biso   1.000  C
  C632     1.0000 0.86420  0.73840  0.20220  Biso   1.000  C
  O568     1.0000 0.88492  0.73974  0.15761  Biso   1.000  O
  C633     1.0000 0.83970  0.73260  0.19170  Biso   1.000  C
  C634     1.0000 0.86700  0.74370  0.22770  Biso   1.000  C
  H351     1.0000 0.83840  0.72960  0.17300  Biso   1.000  H
  C635     1.0000 0.81500  0.73090  0.20810  Biso   1.000  C
  C636     1.0000 0.84360  0.74070  0.24650  Biso   1.000  C
  H352     1.0000 0.88380  0.74950  0.23440  Biso   1.000  H
  H353     1.0000 0.79810  0.72710  0.20040  Biso   1.000  H
  C637     1.0000 0.81820  0.73510  0.23630  Biso   1.000  C
  H354     1.0000 0.84610  0.74270  0.26530  Biso   1.000  H
  C638     1.0000 0.79330  0.73220  0.25310  Biso   1.000  C
  C639     1.0000 0.77650  0.70990  0.24970  Biso   1.000  C
  H355     1.0000 0.78000  0.69720  0.23600  Biso   1.000  H
  Mo214    1.0000 0.45833  0.31018  0.64321  Biso   1.000  Mo
  O569     1.0000 0.43835  0.27567  0.64601  Biso   1.000  O
  O570     1.0000 0.49306  0.33438  0.64072  Biso   1.000  O
  O571     1.0000 0.46782  0.30196  0.68163  Biso   1.000  O
  O572     1.0000 0.46363  0.30641  0.60442  Biso   1.000  O
  Mo215    1.0000 0.49734  0.28274  0.69397  Biso   1.000  Mo
  Mo216    1.0000 0.53085  0.31652  0.64269  Biso   1.000  Mo
  Zn72     1.0000 0.44106  0.24482  0.67156  Biso   1.000  Zn
  O573     1.0000 0.52488  0.25275  0.69123  Biso   1.000  O
  O574     1.0000 0.52386  0.30800  0.67920  Biso   1.000  O
  O575     1.0000 0.40906  0.24387  0.69521  Biso   1.000  O
  C640     1.0000 0.38730  0.24070  0.68320  Biso   1.000  C
  C641     1.0000 0.36420  0.23840  0.70220  Biso   1.000  C
  O576     1.0000 0.38492  0.23974  0.65761  Biso   1.000  O
  C642     1.0000 0.33970  0.23260  0.69170  Biso   1.000  C
  C643     1.0000 0.36700  0.24370  0.72770  Biso   1.000  C
  H356     1.0000 0.33840  0.22960  0.67300  Biso   1.000  H
  C644     1.0000 0.31500  0.23090  0.70810  Biso   1.000  C
  C645     1.0000 0.34360  0.24070  0.74650  Biso   1.000  C
  H357     1.0000 0.38380  0.24950  0.73440  Biso   1.000  H
  H358     1.0000 0.29810  0.22710  0.70040  Biso   1.000  H
  C646     1.0000 0.31820  0.23510  0.73630  Biso   1.000  C
  H359     1.0000 0.34610  0.24270  0.76530  Biso   1.000  H
  C647     1.0000 0.29330  0.23220  0.75310  Biso   1.000  C
  C648     1.0000 0.27650  0.20990  0.74970  Biso   1.000  C
  H360     1.0000 0.28000  0.19720  0.73600  Biso   1.000  H
  Mo217    1.0000 0.39321  0.06018  0.20833  Biso   1.000  Mo
  O577     1.0000 0.39601  0.02567  0.18835  Biso   1.000  O
  O578     1.0000 0.39072  0.08438  0.24306  Biso   1.000  O
  O579     1.0000 0.43163  0.05196  0.21782  Biso   1.000  O
  O580     1.0000 0.35442  0.05641  0.21363  Biso   1.000  O
  Mo218    1.0000 0.44397  0.03274  0.24734  Biso   1.000  Mo
  Mo219    1.0000 0.39269  0.06652  0.28085  Biso   1.000  Mo
  Zn73     1.0000 0.42156  0.99482  0.19106  Biso   1.000  Zn
  O581     1.0000 0.44123  0.00275  0.27488  Biso   1.000  O
  O582     1.0000 0.42920  0.05800  0.27386  Biso   1.000  O
  O583     1.0000 0.44521  0.99387  0.15906  Biso   1.000  O
  C649     1.0000 0.43320  0.99070  0.13730  Biso   1.000  C
  C650     1.0000 0.45220  0.98840  0.11420  Biso   1.000  C
  O584     1.0000 0.40761  0.98974  0.13492  Biso   1.000  O
  C651     1.0000 0.44170  0.98260  0.08970  Biso   1.000  C
  C652     1.0000 0.47770  0.99370  0.11700  Biso   1.000  C
  H361     1.0000 0.42300  0.97960  0.08840  Biso   1.000  H
  C653     1.0000 0.45810  0.98090  0.06500  Biso   1.000  C
  C654     1.0000 0.49650  0.99070  0.09360  Biso   1.000  C
  H362     1.0000 0.48440  0.99950  0.13380  Biso   1.000  H
  H363     1.0000 0.45040  0.97710  0.04810  Biso   1.000  H
  C655     1.0000 0.48630  0.98510  0.06820  Biso   1.000  C
  H364     1.0000 0.51530  0.99270  0.09610  Biso   1.000  H
  C656     1.0000 0.50310  0.98220  0.04330  Biso   1.000  C
  C657     1.0000 0.49970  0.95990  0.02650  Biso   1.000  C
  H365     1.0000 0.48600  0.94720  0.03000  Biso   1.000  H
  Mo220    1.0000 0.89321  0.56018  0.70833  Biso   1.000  Mo
  O585     1.0000 0.89601  0.52567  0.68835  Biso   1.000  O
  O586     1.0000 0.89072  0.58438  0.74306  Biso   1.000  O
  O587     1.0000 0.93163  0.55196  0.71782  Biso   1.000  O
  O588     1.0000 0.85442  0.55641  0.71363  Biso   1.000  O
  Mo221    1.0000 0.94397  0.53274  0.74734  Biso   1.000  Mo
  Mo222    1.0000 0.89269  0.56652  0.78085  Biso   1.000  Mo
  Zn74     1.0000 0.92156  0.49482  0.69106  Biso   1.000  Zn
  O589     1.0000 0.94123  0.50275  0.77488  Biso   1.000  O
  O590     1.0000 0.92920  0.55800  0.77386  Biso   1.000  O
  O591     1.0000 0.94521  0.49387  0.65906  Biso   1.000  O
  C658     1.0000 0.93320  0.49070  0.63730  Biso   1.000  C
  C659     1.0000 0.95220  0.48840  0.61420  Biso   1.000  C
  O592     1.0000 0.90761  0.48974  0.63492  Biso   1.000  O
  C660     1.0000 0.94170  0.48260  0.58970  Biso   1.000  C
  C661     1.0000 0.97770  0.49370  0.61700  Biso   1.000  C
  H366     1.0000 0.92300  0.47960  0.58840  Biso   1.000  H
  C662     1.0000 0.95810  0.48090  0.56500  Biso   1.000  C
  C663     1.0000 0.99650  0.49070  0.59360  Biso   1.000  C
  H367     1.0000 0.98440  0.49950  0.63380  Biso   1.000  H
  H368     1.0000 0.95040  0.47710  0.54810  Biso   1.000  H
  C664     1.0000 0.98630  0.48510  0.56820  Biso   1.000  C
  H369     1.0000 0.01530  0.49270  0.59610  Biso   1.000  H
  C665     1.0000 0.00310  0.48220  0.54330  Biso   1.000  C
  C666     1.0000 0.99970  0.45990  0.52650  Biso   1.000  C
  H370     1.0000 0.98600  0.44720  0.53000  Biso   1.000  H
  Mo223    1.0000 0.10679  0.93982  0.70833  Biso   1.000  Mo
  O593     1.0000 0.10399  0.97433  0.68835  Biso   1.000  O
  O594     1.0000 0.10928  0.91562  0.74306  Biso   1.000  O
  O595     1.0000 0.06837  0.94804  0.71782  Biso   1.000  O
  O596     1.0000 0.14558  0.94359  0.71363  Biso   1.000  O
  Mo224    1.0000 0.05603  0.96726  0.74734  Biso   1.000  Mo
  Mo225    1.0000 0.10731  0.93348  0.78085  Biso   1.000  Mo
  Zn75     1.0000 0.07844  0.00518  0.69106  Biso   1.000  Zn
  O597     1.0000 0.05877  0.99725  0.77488  Biso   1.000  O
  O598     1.0000 0.07080  0.94200  0.77386  Biso   1.000  O
  O599     1.0000 0.05479  0.00613  0.65906  Biso   1.000  O
  C667     1.0000 0.06680  0.00930  0.63730  Biso   1.000  C
  C668     1.0000 0.04780  0.01160  0.61420  Biso   1.000  C
  O600     1.0000 0.09239  0.01026  0.63492  Biso   1.000  O
  C669     1.0000 0.05830  0.01740  0.58970  Biso   1.000  C
  C670     1.0000 0.02230  0.00630  0.61700  Biso   1.000  C
  H371     1.0000 0.07700  0.02040  0.58840  Biso   1.000  H
  C671     1.0000 0.04190  0.01910  0.56500  Biso   1.000  C
  C672     1.0000 0.00350  0.00930  0.59360  Biso   1.000  C
  H372     1.0000 0.01560  0.00050  0.63380  Biso   1.000  H
  H373     1.0000 0.04960  0.02290  0.54810  Biso   1.000  H
  C673     1.0000 0.01370  0.01490  0.56820  Biso   1.000  C
  H374     1.0000 0.98470  0.00730  0.59610  Biso   1.000  H
  C674     1.0000 0.99690  0.01780  0.54330  Biso   1.000  C
  C675     1.0000 0.00030  0.04010  0.52650  Biso   1.000  C
  H375     1.0000 0.01400  0.05280  0.53000  Biso   1.000  H
  Mo226    1.0000 0.60679  0.43982  0.20833  Biso   1.000  Mo
  O601     1.0000 0.60399  0.47433  0.18835  Biso   1.000  O
  O602     1.0000 0.60928  0.41562  0.24306  Biso   1.000  O
  O603     1.0000 0.56837  0.44804  0.21782  Biso   1.000  O
  O604     1.0000 0.64558  0.44359  0.21363  Biso   1.000  O
  Mo227    1.0000 0.55603  0.46726  0.24734  Biso   1.000  Mo
  Mo228    1.0000 0.60731  0.43348  0.28085  Biso   1.000  Mo
  Zn76     1.0000 0.57844  0.50518  0.19106  Biso   1.000  Zn
  O605     1.0000 0.55877  0.49725  0.27488  Biso   1.000  O
  O606     1.0000 0.57080  0.44200  0.27386  Biso   1.000  O
  O607     1.0000 0.55479  0.50613  0.15906  Biso   1.000  O
  C676     1.0000 0.56680  0.50930  0.13730  Biso   1.000  C
  C677     1.0000 0.54780  0.51160  0.11420  Biso   1.000  C
  O608     1.0000 0.59239  0.51026  0.13492  Biso   1.000  O
  C678     1.0000 0.55830  0.51740  0.08970  Biso   1.000  C
  C679     1.0000 0.52230  0.50630  0.11700  Biso   1.000  C
  H376     1.0000 0.57700  0.52040  0.08840  Biso   1.000  H
  C680     1.0000 0.54190  0.51910  0.06500  Biso   1.000  C
  C681     1.0000 0.50350  0.50930  0.09360  Biso   1.000  C
  H377     1.0000 0.51560  0.50050  0.13380  Biso   1.000  H
  H378     1.0000 0.54960  0.52290  0.04810  Biso   1.000  H
  C682     1.0000 0.51370  0.51490  0.06820  Biso   1.000  C
  H379     1.0000 0.48470  0.50730  0.09610  Biso   1.000  H
  C683     1.0000 0.49690  0.51780  0.04330  Biso   1.000  C
  C684     1.0000 0.50030  0.54010  0.02650  Biso   1.000  C
  H380     1.0000 0.51400  0.55280  0.03000  Biso   1.000  H
  Mo229    1.0000 0.60679  0.56018  0.29167  Biso   1.000  Mo
  O609     1.0000 0.60399  0.52567  0.31165  Biso   1.000  O
  O610     1.0000 0.60928  0.58438  0.25694  Biso   1.000  O
  O611     1.0000 0.56837  0.55196  0.28218  Biso   1.000  O
  O612     1.0000 0.64558  0.55641  0.28637  Biso   1.000  O
  Mo230    1.0000 0.55603  0.53274  0.25266  Biso   1.000  Mo
  Mo231    1.0000 0.60731  0.56652  0.21915  Biso   1.000  Mo
  Zn77     1.0000 0.57844  0.49482  0.30894  Biso   1.000  Zn
  O613     1.0000 0.55877  0.50275  0.22512  Biso   1.000  O
  O614     1.0000 0.57080  0.55800  0.22614  Biso   1.000  O
  O615     1.0000 0.55479  0.49387  0.34094  Biso   1.000  O
  C685     1.0000 0.56680  0.49070  0.36270  Biso   1.000  C
  C686     1.0000 0.54780  0.48840  0.38580  Biso   1.000  C
  O616     1.0000 0.59239  0.48974  0.36508  Biso   1.000  O
  C687     1.0000 0.55830  0.48260  0.41030  Biso   1.000  C
  C688     1.0000 0.52230  0.49370  0.38300  Biso   1.000  C
  H381     1.0000 0.57700  0.47960  0.41160  Biso   1.000  H
  C689     1.0000 0.54190  0.48090  0.43500  Biso   1.000  C
  C690     1.0000 0.50350  0.49070  0.40640  Biso   1.000  C
  H382     1.0000 0.51560  0.49950  0.36620  Biso   1.000  H
  H383     1.0000 0.54960  0.47710  0.45190  Biso   1.000  H
  C691     1.0000 0.51370  0.48510  0.43180  Biso   1.000  C
  H384     1.0000 0.48470  0.49270  0.40390  Biso   1.000  H
  C692     1.0000 0.49690  0.48220  0.45670  Biso   1.000  C
  C693     1.0000 0.50030  0.45990  0.47350  Biso   1.000  C
  H385     1.0000 0.51400  0.44720  0.47000  Biso   1.000  H
  Mo232    1.0000 0.10679  0.06018  0.79167  Biso   1.000  Mo
  O617     1.0000 0.10399  0.02567  0.81165  Biso   1.000  O
  O618     1.0000 0.10928  0.08438  0.75694  Biso   1.000  O
  O619     1.0000 0.06837  0.05196  0.78218  Biso   1.000  O
  O620     1.0000 0.14558  0.05641  0.78637  Biso   1.000  O
  Mo233    1.0000 0.05603  0.03274  0.75266  Biso   1.000  Mo
  Mo234    1.0000 0.10731  0.06652  0.71915  Biso   1.000  Mo
  Zn78     1.0000 0.07844  0.99482  0.80894  Biso   1.000  Zn
  O621     1.0000 0.05877  0.00275  0.72512  Biso   1.000  O
  O622     1.0000 0.07080  0.05800  0.72614  Biso   1.000  O
  O623     1.0000 0.05479  0.99387  0.84094  Biso   1.000  O
  C694     1.0000 0.06680  0.99070  0.86270  Biso   1.000  C
  C695     1.0000 0.04780  0.98840  0.88580  Biso   1.000  C
  O624     1.0000 0.09239  0.98974  0.86508  Biso   1.000  O
  C696     1.0000 0.05830  0.98260  0.91030  Biso   1.000  C
  C697     1.0000 0.02230  0.99370  0.88300  Biso   1.000  C
  H386     1.0000 0.07700  0.97960  0.91160  Biso   1.000  H
  C698     1.0000 0.04190  0.98090  0.93500  Biso   1.000  C
  C699     1.0000 0.00350  0.99070  0.90640  Biso   1.000  C
  H387     1.0000 0.01560  0.99950  0.86620  Biso   1.000  H
  H388     1.0000 0.04960  0.97710  0.95190  Biso   1.000  H
  C700     1.0000 0.01370  0.98510  0.93180  Biso   1.000  C
  H389     1.0000 0.98470  0.99270  0.90390  Biso   1.000  H
  C701     1.0000 0.99690  0.98220  0.95670  Biso   1.000  C
  C702     1.0000 0.00030  0.95990  0.97350  Biso   1.000  C
  H390     1.0000 0.01400  0.94720  0.97000  Biso   1.000  H
  Mo235    1.0000 0.89321  0.43982  0.79167  Biso   1.000  Mo
  O625     1.0000 0.89601  0.47433  0.81165  Biso   1.000  O
  O626     1.0000 0.89072  0.41562  0.75694  Biso   1.000  O
  O627     1.0000 0.93163  0.44804  0.78218  Biso   1.000  O
  O628     1.0000 0.85442  0.44359  0.78637  Biso   1.000  O
  Mo236    1.0000 0.94397  0.46726  0.75266  Biso   1.000  Mo
  Mo237    1.0000 0.89269  0.43348  0.71915  Biso   1.000  Mo
  Zn79     1.0000 0.92156  0.50518  0.80894  Biso   1.000  Zn
  O629     1.0000 0.94123  0.49725  0.72512  Biso   1.000  O
  O630     1.0000 0.92920  0.44200  0.72614  Biso   1.000  O
  O631     1.0000 0.94521  0.50613  0.84094  Biso   1.000  O
  C703     1.0000 0.93320  0.50930  0.86270  Biso   1.000  C
  C704     1.0000 0.95220  0.51160  0.88580  Biso   1.000  C
  O632     1.0000 0.90761  0.51026  0.86508  Biso   1.000  O
  C705     1.0000 0.94170  0.51740  0.91030  Biso   1.000  C
  C706     1.0000 0.97770  0.50630  0.88300  Biso   1.000  C
  H391     1.0000 0.92300  0.52040  0.91160  Biso   1.000  H
  C707     1.0000 0.95810  0.51910  0.93500  Biso   1.000  C
  C708     1.0000 0.99650  0.50930  0.90640  Biso   1.000  C
  H392     1.0000 0.98440  0.50050  0.86620  Biso   1.000  H
  H393     1.0000 0.95040  0.52290  0.95190  Biso   1.000  H
  C709     1.0000 0.98630  0.51490  0.93180  Biso   1.000  C
  H394     1.0000 0.01530  0.50730  0.90390  Biso   1.000  H
  C710     1.0000 0.00310  0.51780  0.95670  Biso   1.000  C
  C711     1.0000 0.99970  0.54010  0.97350  Biso   1.000  C
  H395     1.0000 0.98600  0.55280  0.97000  Biso   1.000  H
  Mo238    1.0000 0.39321  0.93982  0.29167  Biso   1.000  Mo
  O633     1.0000 0.39601  0.97433  0.31165  Biso   1.000  O
  O634     1.0000 0.39072  0.91562  0.25694  Biso   1.000  O
  O635     1.0000 0.43163  0.94804  0.28218  Biso   1.000  O
  O636     1.0000 0.35442  0.94359  0.28637  Biso   1.000  O
  Mo239    1.0000 0.44397  0.96726  0.25266  Biso   1.000  Mo
  Mo240    1.0000 0.39269  0.93348  0.21915  Biso   1.000  Mo
  Zn80     1.0000 0.42156  0.00518  0.30894  Biso   1.000  Zn
  O637     1.0000 0.44123  0.99725  0.22512  Biso   1.000  O
  O638     1.0000 0.42920  0.94200  0.22614  Biso   1.000  O
  O639     1.0000 0.44521  0.00613  0.34094  Biso   1.000  O
  C712     1.0000 0.43320  0.00930  0.36270  Biso   1.000  C
  C713     1.0000 0.45220  0.01160  0.38580  Biso   1.000  C
  O640     1.0000 0.40761  0.01026  0.36508  Biso   1.000  O
  C714     1.0000 0.44170  0.01740  0.41030  Biso   1.000  C
  C715     1.0000 0.47770  0.00630  0.38300  Biso   1.000  C
  H396     1.0000 0.42300  0.02040  0.41160  Biso   1.000  H
  C716     1.0000 0.45810  0.01910  0.43500  Biso   1.000  C
  C717     1.0000 0.49650  0.00930  0.40640  Biso   1.000  C
  H397     1.0000 0.48440  0.00050  0.36620  Biso   1.000  H
  H398     1.0000 0.45040  0.02290  0.45190  Biso   1.000  H
  C718     1.0000 0.48630  0.01490  0.43180  Biso   1.000  C
  H399     1.0000 0.51530  0.00730  0.40390  Biso   1.000  H
  C719     1.0000 0.50310  0.01780  0.45670  Biso   1.000  C
  C720     1.0000 0.49970  0.04010  0.47350  Biso   1.000  C
  H400     1.0000 0.48600  0.05280  0.47000  Biso   1.000  H
  Mo241    1.0000 0.20833  0.39321  0.06018  Biso   1.000  Mo
  O641     1.0000 0.18835  0.39601  0.02567  Biso   1.000  O
  O642     1.0000 0.24306  0.39072  0.08438  Biso   1.000  O
  O643     1.0000 0.21782  0.43163  0.05196  Biso   1.000  O
  O644     1.0000 0.21363  0.35442  0.05641  Biso   1.000  O
  Mo242    1.0000 0.24734  0.44397  0.03274  Biso   1.000  Mo
  Mo243    1.0000 0.28085  0.39269  0.06652  Biso   1.000  Mo
  Zn81     1.0000 0.19106  0.42156  0.99482  Biso   1.000  Zn
  O645     1.0000 0.27488  0.44123  0.00275  Biso   1.000  O
  O646     1.0000 0.27386  0.42920  0.05800  Biso   1.000  O
  O647     1.0000 0.15906  0.44521  0.99387  Biso   1.000  O
  C721     1.0000 0.13730  0.43320  0.99070  Biso   1.000  C
  C722     1.0000 0.11420  0.45220  0.98840  Biso   1.000  C
  O648     1.0000 0.13492  0.40761  0.98974  Biso   1.000  O
  C723     1.0000 0.08970  0.44170  0.98260  Biso   1.000  C
  C724     1.0000 0.11700  0.47770  0.99370  Biso   1.000  C
  H401     1.0000 0.08840  0.42300  0.97960  Biso   1.000  H
  C725     1.0000 0.06500  0.45810  0.98090  Biso   1.000  C
  C726     1.0000 0.09360  0.49650  0.99070  Biso   1.000  C
  H402     1.0000 0.13380  0.48440  0.99950  Biso   1.000  H
  H403     1.0000 0.04810  0.45040  0.97710  Biso   1.000  H
  C727     1.0000 0.06820  0.48630  0.98510  Biso   1.000  C
  H404     1.0000 0.09610  0.51530  0.99270  Biso   1.000  H
  C728     1.0000 0.04330  0.50310  0.98220  Biso   1.000  C
  C729     1.0000 0.02650  0.49970  0.95990  Biso   1.000  C
  H405     1.0000 0.03000  0.48600  0.94720  Biso   1.000  H
  Mo244    1.0000 0.70833  0.89321  0.56018  Biso   1.000  Mo
  O649     1.0000 0.68835  0.89601  0.52567  Biso   1.000  O
  O650     1.0000 0.74306  0.89072  0.58438  Biso   1.000  O
  O651     1.0000 0.71782  0.93163  0.55196  Biso   1.000  O
  O652     1.0000 0.71363  0.85442  0.55641  Biso   1.000  O
  Mo245    1.0000 0.74734  0.94397  0.53274  Biso   1.000  Mo
  Mo246    1.0000 0.78085  0.89269  0.56652  Biso   1.000  Mo
  Zn82     1.0000 0.69106  0.92156  0.49482  Biso   1.000  Zn
  O653     1.0000 0.77488  0.94123  0.50275  Biso   1.000  O
  O654     1.0000 0.77386  0.92920  0.55800  Biso   1.000  O
  O655     1.0000 0.65906  0.94521  0.49387  Biso   1.000  O
  C730     1.0000 0.63730  0.93320  0.49070  Biso   1.000  C
  C731     1.0000 0.61420  0.95220  0.48840  Biso   1.000  C
  O656     1.0000 0.63492  0.90761  0.48974  Biso   1.000  O
  C732     1.0000 0.58970  0.94170  0.48260  Biso   1.000  C
  C733     1.0000 0.61700  0.97770  0.49370  Biso   1.000  C
  H406     1.0000 0.58840  0.92300  0.47960  Biso   1.000  H
  C734     1.0000 0.56500  0.95810  0.48090  Biso   1.000  C
  C735     1.0000 0.59360  0.99650  0.49070  Biso   1.000  C
  H407     1.0000 0.63380  0.98440  0.49950  Biso   1.000  H
  H408     1.0000 0.54810  0.95040  0.47710  Biso   1.000  H
  C736     1.0000 0.56820  0.98630  0.48510  Biso   1.000  C
  H409     1.0000 0.59610  0.01530  0.49270  Biso   1.000  H
  C737     1.0000 0.54330  0.00310  0.48220  Biso   1.000  C
  C738     1.0000 0.52650  0.99970  0.45990  Biso   1.000  C
  H410     1.0000 0.53000  0.98600  0.44720  Biso   1.000  H
  Mo247    1.0000 0.70833  0.10679  0.93982  Biso   1.000  Mo
  O657     1.0000 0.68835  0.10399  0.97433  Biso   1.000  O
  O658     1.0000 0.74306  0.10928  0.91562  Biso   1.000  O
  O659     1.0000 0.71782  0.06837  0.94804  Biso   1.000  O
  O660     1.0000 0.71363  0.14558  0.94359  Biso   1.000  O
  Mo248    1.0000 0.74734  0.05603  0.96726  Biso   1.000  Mo
  Mo249    1.0000 0.78085  0.10731  0.93348  Biso   1.000  Mo
  Zn83     1.0000 0.69106  0.07844  0.00518  Biso   1.000  Zn
  O661     1.0000 0.77488  0.05877  0.99725  Biso   1.000  O
  O662     1.0000 0.77386  0.07080  0.94200  Biso   1.000  O
  O663     1.0000 0.65906  0.05479  0.00613  Biso   1.000  O
  C739     1.0000 0.63730  0.06680  0.00930  Biso   1.000  C
  C740     1.0000 0.61420  0.04780  0.01160  Biso   1.000  C
  O664     1.0000 0.63492  0.09239  0.01026  Biso   1.000  O
  C741     1.0000 0.58970  0.05830  0.01740  Biso   1.000  C
  C742     1.0000 0.61700  0.02230  0.00630  Biso   1.000  C
  H411     1.0000 0.58840  0.07700  0.02040  Biso   1.000  H
  C743     1.0000 0.56500  0.04190  0.01910  Biso   1.000  C
  C744     1.0000 0.59360  0.00350  0.00930  Biso   1.000  C
  H412     1.0000 0.63380  0.01560  0.00050  Biso   1.000  H
  H413     1.0000 0.54810  0.04960  0.02290  Biso   1.000  H
  C745     1.0000 0.56820  0.01370  0.01490  Biso   1.000  C
  H414     1.0000 0.59610  0.98470  0.00730  Biso   1.000  H
  C746     1.0000 0.54330  0.99690  0.01780  Biso   1.000  C
  C747     1.0000 0.52650  0.00030  0.04010  Biso   1.000  C
  H415     1.0000 0.53000  0.01400  0.05280  Biso   1.000  H
  Mo250    1.0000 0.20833  0.60679  0.43982  Biso   1.000  Mo
  O665     1.0000 0.18835  0.60399  0.47433  Biso   1.000  O
  O666     1.0000 0.24306  0.60928  0.41562  Biso   1.000  O
  O667     1.0000 0.21782  0.56837  0.44804  Biso   1.000  O
  O668     1.0000 0.21363  0.64558  0.44359  Biso   1.000  O
  Mo251    1.0000 0.24734  0.55603  0.46726  Biso   1.000  Mo
  Mo252    1.0000 0.28085  0.60731  0.43348  Biso   1.000  Mo
  Zn84     1.0000 0.19106  0.57844  0.50518  Biso   1.000  Zn
  O669     1.0000 0.27488  0.55877  0.49725  Biso   1.000  O
  O670     1.0000 0.27386  0.57080  0.44200  Biso   1.000  O
  O671     1.0000 0.15906  0.55479  0.50613  Biso   1.000  O
  C748     1.0000 0.13730  0.56680  0.50930  Biso   1.000  C
  C749     1.0000 0.11420  0.54780  0.51160  Biso   1.000  C
  O672     1.0000 0.13492  0.59239  0.51026  Biso   1.000  O
  C750     1.0000 0.08970  0.55830  0.51740  Biso   1.000  C
  C751     1.0000 0.11700  0.52230  0.50630  Biso   1.000  C
  H416     1.0000 0.08840  0.57700  0.52040  Biso   1.000  H
  C752     1.0000 0.06500  0.54190  0.51910  Biso   1.000  C
  C753     1.0000 0.09360  0.50350  0.50930  Biso   1.000  C
  H417     1.0000 0.13380  0.51560  0.50050  Biso   1.000  H
  H418     1.0000 0.04810  0.54960  0.52290  Biso   1.000  H
  C754     1.0000 0.06820  0.51370  0.51490  Biso   1.000  C
  H419     1.0000 0.09610  0.48470  0.50730  Biso   1.000  H
  C755     1.0000 0.04330  0.49690  0.51780  Biso   1.000  C
  C756     1.0000 0.02650  0.50030  0.54010  Biso   1.000  C
  H420     1.0000 0.03000  0.51400  0.55280  Biso   1.000  H
  Mo253    1.0000 0.29167  0.60679  0.56018  Biso   1.000  Mo
  O673     1.0000 0.31165  0.60399  0.52567  Biso   1.000  O
  O674     1.0000 0.25694  0.60928  0.58438  Biso   1.000  O
  O675     1.0000 0.28218  0.56837  0.55196  Biso   1.000  O
  O676     1.0000 0.28637  0.64558  0.55641  Biso   1.000  O
  Mo254    1.0000 0.25266  0.55603  0.53274  Biso   1.000  Mo
  Mo255    1.0000 0.21915  0.60731  0.56652  Biso   1.000  Mo
  Zn85     1.0000 0.30894  0.57844  0.49482  Biso   1.000  Zn
  O677     1.0000 0.22512  0.55877  0.50275  Biso   1.000  O
  O678     1.0000 0.22614  0.57080  0.55800  Biso   1.000  O
  O679     1.0000 0.34094  0.55479  0.49387  Biso   1.000  O
  C757     1.0000 0.36270  0.56680  0.49070  Biso   1.000  C
  C758     1.0000 0.38580  0.54780  0.48840  Biso   1.000  C
  O680     1.0000 0.36508  0.59239  0.48974  Biso   1.000  O
  C759     1.0000 0.41030  0.55830  0.48260  Biso   1.000  C
  C760     1.0000 0.38300  0.52230  0.49370  Biso   1.000  C
  H421     1.0000 0.41160  0.57700  0.47960  Biso   1.000  H
  C761     1.0000 0.43500  0.54190  0.48090  Biso   1.000  C
  C762     1.0000 0.40640  0.50350  0.49070  Biso   1.000  C
  H422     1.0000 0.36620  0.51560  0.49950  Biso   1.000  H
  H423     1.0000 0.45190  0.54960  0.47710  Biso   1.000  H
  C763     1.0000 0.43180  0.51370  0.48510  Biso   1.000  C
  H424     1.0000 0.40390  0.48470  0.49270  Biso   1.000  H
  C764     1.0000 0.45670  0.49690  0.48220  Biso   1.000  C
  C765     1.0000 0.47350  0.50030  0.45990  Biso   1.000  C
  H425     1.0000 0.47000  0.51400  0.44720  Biso   1.000  H
  Mo256    1.0000 0.79167  0.10679  0.06018  Biso   1.000  Mo
  O681     1.0000 0.81165  0.10399  0.02567  Biso   1.000  O
  O682     1.0000 0.75694  0.10928  0.08438  Biso   1.000  O
  O683     1.0000 0.78218  0.06837  0.05196  Biso   1.000  O
  O684     1.0000 0.78637  0.14558  0.05641  Biso   1.000  O
  Mo257    1.0000 0.75266  0.05603  0.03274  Biso   1.000  Mo
  Mo258    1.0000 0.71915  0.10731  0.06652  Biso   1.000  Mo
  Zn86     1.0000 0.80894  0.07844  0.99482  Biso   1.000  Zn
  O685     1.0000 0.72512  0.05877  0.00275  Biso   1.000  O
  O686     1.0000 0.72614  0.07080  0.05800  Biso   1.000  O
  O687     1.0000 0.84094  0.05479  0.99387  Biso   1.000  O
  C766     1.0000 0.86270  0.06680  0.99070  Biso   1.000  C
  C767     1.0000 0.88580  0.04780  0.98840  Biso   1.000  C
  O688     1.0000 0.86508  0.09239  0.98974  Biso   1.000  O
  C768     1.0000 0.91030  0.05830  0.98260  Biso   1.000  C
  C769     1.0000 0.88300  0.02230  0.99370  Biso   1.000  C
  H426     1.0000 0.91160  0.07700  0.97960  Biso   1.000  H
  C770     1.0000 0.93500  0.04190  0.98090  Biso   1.000  C
  C771     1.0000 0.90640  0.00350  0.99070  Biso   1.000  C
  H427     1.0000 0.86620  0.01560  0.99950  Biso   1.000  H
  H428     1.0000 0.95190  0.04960  0.97710  Biso   1.000  H
  C772     1.0000 0.93180  0.01370  0.98510  Biso   1.000  C
  H429     1.0000 0.90390  0.98470  0.99270  Biso   1.000  H
  C773     1.0000 0.95670  0.99690  0.98220  Biso   1.000  C
  C774     1.0000 0.97350  0.00030  0.95990  Biso   1.000  C
  H430     1.0000 0.97000  0.01400  0.94720  Biso   1.000  H
  Mo259    1.0000 0.79167  0.89321  0.43982  Biso   1.000  Mo
  O689     1.0000 0.81165  0.89601  0.47433  Biso   1.000  O
  O690     1.0000 0.75694  0.89072  0.41562  Biso   1.000  O
  O691     1.0000 0.78218  0.93163  0.44804  Biso   1.000  O
  O692     1.0000 0.78637  0.85442  0.44359  Biso   1.000  O
  Mo260    1.0000 0.75266  0.94397  0.46726  Biso   1.000  Mo
  Mo261    1.0000 0.71915  0.89269  0.43348  Biso   1.000  Mo
  Zn87     1.0000 0.80894  0.92156  0.50518  Biso   1.000  Zn
  O693     1.0000 0.72512  0.94123  0.49725  Biso   1.000  O
  O694     1.0000 0.72614  0.92920  0.44200  Biso   1.000  O
  O695     1.0000 0.84094  0.94521  0.50613  Biso   1.000  O
  C775     1.0000 0.86270  0.93320  0.50930  Biso   1.000  C
  C776     1.0000 0.88580  0.95220  0.51160  Biso   1.000  C
  O696     1.0000 0.86508  0.90761  0.51026  Biso   1.000  O
  C777     1.0000 0.91030  0.94170  0.51740  Biso   1.000  C
  C778     1.0000 0.88300  0.97770  0.50630  Biso   1.000  C
  H431     1.0000 0.91160  0.92300  0.52040  Biso   1.000  H
  C779     1.0000 0.93500  0.95810  0.51910  Biso   1.000  C
  C780     1.0000 0.90640  0.99650  0.50930  Biso   1.000  C
  H432     1.0000 0.86620  0.98440  0.50050  Biso   1.000  H
  H433     1.0000 0.95190  0.95040  0.52290  Biso   1.000  H
  C781     1.0000 0.93180  0.98630  0.51490  Biso   1.000  C
  H434     1.0000 0.90390  0.01530  0.50730  Biso   1.000  H
  C782     1.0000 0.95670  0.00310  0.51780  Biso   1.000  C
  C783     1.0000 0.97350  0.99970  0.54010  Biso   1.000  C
  H435     1.0000 0.97000  0.98600  0.55280  Biso   1.000  H
  Mo262    1.0000 0.29167  0.39321  0.93982  Biso   1.000  Mo
  O697     1.0000 0.31165  0.39601  0.97433  Biso   1.000  O
  O698     1.0000 0.25694  0.39072  0.91562  Biso   1.000  O
  O699     1.0000 0.28218  0.43163  0.94804  Biso   1.000  O
  O700     1.0000 0.28637  0.35442  0.94359  Biso   1.000  O
  Mo263    1.0000 0.25266  0.44397  0.96726  Biso   1.000  Mo
  Mo264    1.0000 0.21915  0.39269  0.93348  Biso   1.000  Mo
  Zn88     1.0000 0.30894  0.42156  0.00518  Biso   1.000  Zn
  O701     1.0000 0.22512  0.44123  0.99725  Biso   1.000  O
  O702     1.0000 0.22614  0.42920  0.94200  Biso   1.000  O
  O703     1.0000 0.34094  0.44521  0.00613  Biso   1.000  O
  C784     1.0000 0.36270  0.43320  0.00930  Biso   1.000  C
  C785     1.0000 0.38580  0.45220  0.01160  Biso   1.000  C
  O704     1.0000 0.36508  0.40761  0.01026  Biso   1.000  O
  C786     1.0000 0.41030  0.44170  0.01740  Biso   1.000  C
  C787     1.0000 0.38300  0.47770  0.00630  Biso   1.000  C
  H436     1.0000 0.41160  0.42300  0.02040  Biso   1.000  H
  C788     1.0000 0.43500  0.45810  0.01910  Biso   1.000  C
  C789     1.0000 0.40640  0.49650  0.00930  Biso   1.000  C
  H437     1.0000 0.36620  0.48440  0.00050  Biso   1.000  H
  H438     1.0000 0.45190  0.45040  0.02290  Biso   1.000  H
  C790     1.0000 0.43180  0.48630  0.01490  Biso   1.000  C
  H439     1.0000 0.40390  0.51530  0.00730  Biso   1.000  H
  C791     1.0000 0.45670  0.50310  0.01780  Biso   1.000  C
  C792     1.0000 0.47350  0.49970  0.04010  Biso   1.000  C
  H440     1.0000 0.47000  0.48600  0.05280  Biso   1.000  H
  Mo265    1.0000 0.06018  0.20833  0.39321  Biso   1.000  Mo
  O705     1.0000 0.02567  0.18835  0.39601  Biso   1.000  O
  O706     1.0000 0.08438  0.24306  0.39072  Biso   1.000  O
  O707     1.0000 0.05196  0.21782  0.43163  Biso   1.000  O
  O708     1.0000 0.05641  0.21363  0.35442  Biso   1.000  O
  Mo266    1.0000 0.03274  0.24734  0.44397  Biso   1.000  Mo
  Mo267    1.0000 0.06652  0.28085  0.39269  Biso   1.000  Mo
  Zn89     1.0000 0.99482  0.19106  0.42156  Biso   1.000  Zn
  O709     1.0000 0.00275  0.27488  0.44123  Biso   1.000  O
  O710     1.0000 0.05800  0.27386  0.42920  Biso   1.000  O
  O711     1.0000 0.99387  0.15906  0.44521  Biso   1.000  O
  C793     1.0000 0.99070  0.13730  0.43320  Biso   1.000  C
  C794     1.0000 0.98840  0.11420  0.45220  Biso   1.000  C
  O712     1.0000 0.98974  0.13492  0.40761  Biso   1.000  O
  C795     1.0000 0.98260  0.08970  0.44170  Biso   1.000  C
  C796     1.0000 0.99370  0.11700  0.47770  Biso   1.000  C
  H441     1.0000 0.97960  0.08840  0.42300  Biso   1.000  H
  C797     1.0000 0.98090  0.06500  0.45810  Biso   1.000  C
  C798     1.0000 0.99070  0.09360  0.49650  Biso   1.000  C
  H442     1.0000 0.99950  0.13380  0.48440  Biso   1.000  H
  H443     1.0000 0.97710  0.04810  0.45040  Biso   1.000  H
  C799     1.0000 0.98510  0.06820  0.48630  Biso   1.000  C
  H444     1.0000 0.99270  0.09610  0.51530  Biso   1.000  H
  C800     1.0000 0.98220  0.04330  0.50310  Biso   1.000  C
  C801     1.0000 0.95990  0.02650  0.49970  Biso   1.000  C
  H445     1.0000 0.94720  0.03000  0.48600  Biso   1.000  H
  Mo268    1.0000 0.56018  0.70833  0.89321  Biso   1.000  Mo
  O713     1.0000 0.52567  0.68835  0.89601  Biso   1.000  O
  O714     1.0000 0.58438  0.74306  0.89072  Biso   1.000  O
  O715     1.0000 0.55196  0.71782  0.93163  Biso   1.000  O
  O716     1.0000 0.55641  0.71363  0.85442  Biso   1.000  O
  Mo269    1.0000 0.53274  0.74734  0.94397  Biso   1.000  Mo
  Mo270    1.0000 0.56652  0.78085  0.89269  Biso   1.000  Mo
  Zn90     1.0000 0.49482  0.69106  0.92156  Biso   1.000  Zn
  O717     1.0000 0.50275  0.77488  0.94123  Biso   1.000  O
  O718     1.0000 0.55800  0.77386  0.92920  Biso   1.000  O
  O719     1.0000 0.49387  0.65906  0.94521  Biso   1.000  O
  C802     1.0000 0.49070  0.63730  0.93320  Biso   1.000  C
  C803     1.0000 0.48840  0.61420  0.95220  Biso   1.000  C
  O720     1.0000 0.48974  0.63492  0.90761  Biso   1.000  O
  C804     1.0000 0.48260  0.58970  0.94170  Biso   1.000  C
  C805     1.0000 0.49370  0.61700  0.97770  Biso   1.000  C
  H446     1.0000 0.47960  0.58840  0.92300  Biso   1.000  H
  C806     1.0000 0.48090  0.56500  0.95810  Biso   1.000  C
  C807     1.0000 0.49070  0.59360  0.99650  Biso   1.000  C
  H447     1.0000 0.49950  0.63380  0.98440  Biso   1.000  H
  H448     1.0000 0.47710  0.54810  0.95040  Biso   1.000  H
  C808     1.0000 0.48510  0.56820  0.98630  Biso   1.000  C
  H449     1.0000 0.49270  0.59610  0.01530  Biso   1.000  H
  C809     1.0000 0.48220  0.54330  0.00310  Biso   1.000  C
  C810     1.0000 0.45990  0.52650  0.99970  Biso   1.000  C
  H450     1.0000 0.44720  0.53000  0.98600  Biso   1.000  H
  Mo271    1.0000 0.93982  0.70833  0.10679  Biso   1.000  Mo
  O721     1.0000 0.97433  0.68835  0.10399  Biso   1.000  O
  O722     1.0000 0.91562  0.74306  0.10928  Biso   1.000  O
  O723     1.0000 0.94804  0.71782  0.06837  Biso   1.000  O
  O724     1.0000 0.94359  0.71363  0.14558  Biso   1.000  O
  Mo272    1.0000 0.96726  0.74734  0.05603  Biso   1.000  Mo
  Mo273    1.0000 0.93348  0.78085  0.10731  Biso   1.000  Mo
  Zn91     1.0000 0.00518  0.69106  0.07844  Biso   1.000  Zn
  O725     1.0000 0.99725  0.77488  0.05877  Biso   1.000  O
  O726     1.0000 0.94200  0.77386  0.07080  Biso   1.000  O
  O727     1.0000 0.00613  0.65906  0.05479  Biso   1.000  O
  C811     1.0000 0.00930  0.63730  0.06680  Biso   1.000  C
  C812     1.0000 0.01160  0.61420  0.04780  Biso   1.000  C
  O728     1.0000 0.01026  0.63492  0.09239  Biso   1.000  O
  C813     1.0000 0.01740  0.58970  0.05830  Biso   1.000  C
  C814     1.0000 0.00630  0.61700  0.02230  Biso   1.000  C
  H451     1.0000 0.02040  0.58840  0.07700  Biso   1.000  H
  C815     1.0000 0.01910  0.56500  0.04190  Biso   1.000  C
  C816     1.0000 0.00930  0.59360  0.00350  Biso   1.000  C
  H452     1.0000 0.00050  0.63380  0.01560  Biso   1.000  H
  H453     1.0000 0.02290  0.54810  0.04960  Biso   1.000  H
  C817     1.0000 0.01490  0.56820  0.01370  Biso   1.000  C
  H454     1.0000 0.00730  0.59610  0.98470  Biso   1.000  H
  C818     1.0000 0.01780  0.54330  0.99690  Biso   1.000  C
  C819     1.0000 0.04010  0.52650  0.00030  Biso   1.000  C
  H455     1.0000 0.05280  0.53000  0.01400  Biso   1.000  H
  Mo274    1.0000 0.43982  0.20833  0.60679  Biso   1.000  Mo
  O729     1.0000 0.47433  0.18835  0.60399  Biso   1.000  O
  O730     1.0000 0.41562  0.24306  0.60928  Biso   1.000  O
  O731     1.0000 0.44804  0.21782  0.56837  Biso   1.000  O
  O732     1.0000 0.44359  0.21363  0.64558  Biso   1.000  O
  Mo275    1.0000 0.46726  0.24734  0.55603  Biso   1.000  Mo
  Mo276    1.0000 0.43348  0.28085  0.60731  Biso   1.000  Mo
  Zn92     1.0000 0.50518  0.19106  0.57844  Biso   1.000  Zn
  O733     1.0000 0.49725  0.27488  0.55877  Biso   1.000  O
  O734     1.0000 0.44200  0.27386  0.57080  Biso   1.000  O
  O735     1.0000 0.50613  0.15906  0.55479  Biso   1.000  O
  C820     1.0000 0.50930  0.13730  0.56680  Biso   1.000  C
  C821     1.0000 0.51160  0.11420  0.54780  Biso   1.000  C
  O736     1.0000 0.51026  0.13492  0.59239  Biso   1.000  O
  C822     1.0000 0.51740  0.08970  0.55830  Biso   1.000  C
  C823     1.0000 0.50630  0.11700  0.52230  Biso   1.000  C
  H456     1.0000 0.52040  0.08840  0.57700  Biso   1.000  H
  C824     1.0000 0.51910  0.06500  0.54190  Biso   1.000  C
  C825     1.0000 0.50930  0.09360  0.50350  Biso   1.000  C
  H457     1.0000 0.50050  0.13380  0.51560  Biso   1.000  H
  H458     1.0000 0.52290  0.04810  0.54960  Biso   1.000  H
  C826     1.0000 0.51490  0.06820  0.51370  Biso   1.000  C
  H459     1.0000 0.50730  0.09610  0.48470  Biso   1.000  H
  C827     1.0000 0.51780  0.04330  0.49690  Biso   1.000  C
  C828     1.0000 0.54010  0.02650  0.50030  Biso   1.000  C
  H460     1.0000 0.55280  0.03000  0.51400  Biso   1.000  H
  Mo277    1.0000 0.56018  0.29167  0.60679  Biso   1.000  Mo
  O737     1.0000 0.52567  0.31165  0.60399  Biso   1.000  O
  O738     1.0000 0.58438  0.25694  0.60928  Biso   1.000  O
  O739     1.0000 0.55196  0.28218  0.56837  Biso   1.000  O
  O740     1.0000 0.55641  0.28637  0.64558  Biso   1.000  O
  Mo278    1.0000 0.53274  0.25266  0.55603  Biso   1.000  Mo
  Mo279    1.0000 0.56652  0.21915  0.60731  Biso   1.000  Mo
  Zn93     1.0000 0.49482  0.30894  0.57844  Biso   1.000  Zn
  O741     1.0000 0.50275  0.22512  0.55877  Biso   1.000  O
  O742     1.0000 0.55800  0.22614  0.57080  Biso   1.000  O
  O743     1.0000 0.49387  0.34094  0.55479  Biso   1.000  O
  C829     1.0000 0.49070  0.36270  0.56680  Biso   1.000  C
  C830     1.0000 0.48840  0.38580  0.54780  Biso   1.000  C
  O744     1.0000 0.48974  0.36508  0.59239  Biso   1.000  O
  C831     1.0000 0.48260  0.41030  0.55830  Biso   1.000  C
  C832     1.0000 0.49370  0.38300  0.52230  Biso   1.000  C
  H461     1.0000 0.47960  0.41160  0.57700  Biso   1.000  H
  C833     1.0000 0.48090  0.43500  0.54190  Biso   1.000  C
  C834     1.0000 0.49070  0.40640  0.50350  Biso   1.000  C
  H462     1.0000 0.49950  0.36620  0.51560  Biso   1.000  H
  H463     1.0000 0.47710  0.45190  0.54960  Biso   1.000  H
  C835     1.0000 0.48510  0.43180  0.51370  Biso   1.000  C
  H464     1.0000 0.49270  0.40390  0.48470  Biso   1.000  H
  C836     1.0000 0.48220  0.45670  0.49690  Biso   1.000  C
  C837     1.0000 0.45990  0.47350  0.50030  Biso   1.000  C
  H465     1.0000 0.44720  0.47000  0.51400  Biso   1.000  H
  Mo280    1.0000 0.06018  0.79167  0.10679  Biso   1.000  Mo
  O745     1.0000 0.02567  0.81165  0.10399  Biso   1.000  O
  O746     1.0000 0.08438  0.75694  0.10928  Biso   1.000  O
  O747     1.0000 0.05196  0.78218  0.06837  Biso   1.000  O
  O748     1.0000 0.05641  0.78637  0.14558  Biso   1.000  O
  Mo281    1.0000 0.03274  0.75266  0.05603  Biso   1.000  Mo
  Mo282    1.0000 0.06652  0.71915  0.10731  Biso   1.000  Mo
  Zn94     1.0000 0.99482  0.80894  0.07844  Biso   1.000  Zn
  O749     1.0000 0.00275  0.72512  0.05877  Biso   1.000  O
  O750     1.0000 0.05800  0.72614  0.07080  Biso   1.000  O
  O751     1.0000 0.99387  0.84094  0.05479  Biso   1.000  O
  C838     1.0000 0.99070  0.86270  0.06680  Biso   1.000  C
  C839     1.0000 0.98840  0.88580  0.04780  Biso   1.000  C
  O752     1.0000 0.98974  0.86508  0.09239  Biso   1.000  O
  C840     1.0000 0.98260  0.91030  0.05830  Biso   1.000  C
  C841     1.0000 0.99370  0.88300  0.02230  Biso   1.000  C
  H466     1.0000 0.97960  0.91160  0.07700  Biso   1.000  H
  C842     1.0000 0.98090  0.93500  0.04190  Biso   1.000  C
  C843     1.0000 0.99070  0.90640  0.00350  Biso   1.000  C
  H467     1.0000 0.99950  0.86620  0.01560  Biso   1.000  H
  H468     1.0000 0.97710  0.95190  0.04960  Biso   1.000  H
  C844     1.0000 0.98510  0.93180  0.01370  Biso   1.000  C
  H469     1.0000 0.99270  0.90390  0.98470  Biso   1.000  H
  C845     1.0000 0.98220  0.95670  0.99690  Biso   1.000  C
  C846     1.0000 0.95990  0.97350  0.00030  Biso   1.000  C
  H470     1.0000 0.94720  0.97000  0.01400  Biso   1.000  H
  Mo283    1.0000 0.43982  0.79167  0.89321  Biso   1.000  Mo
  O753     1.0000 0.47433  0.81165  0.89601  Biso   1.000  O
  O754     1.0000 0.41562  0.75694  0.89072  Biso   1.000  O
  O755     1.0000 0.44804  0.78218  0.93163  Biso   1.000  O
  O756     1.0000 0.44359  0.78637  0.85442  Biso   1.000  O
  Mo284    1.0000 0.46726  0.75266  0.94397  Biso   1.000  Mo
  Mo285    1.0000 0.43348  0.71915  0.89269  Biso   1.000  Mo
  Zn95     1.0000 0.50518  0.80894  0.92156  Biso   1.000  Zn
  O757     1.0000 0.49725  0.72512  0.94123  Biso   1.000  O
  O758     1.0000 0.44200  0.72614  0.92920  Biso   1.000  O
  O759     1.0000 0.50613  0.84094  0.94521  Biso   1.000  O
  C847     1.0000 0.50930  0.86270  0.93320  Biso   1.000  C
  C848     1.0000 0.51160  0.88580  0.95220  Biso   1.000  C
  O760     1.0000 0.51026  0.86508  0.90761  Biso   1.000  O
  C849     1.0000 0.51740  0.91030  0.94170  Biso   1.000  C
  C850     1.0000 0.50630  0.88300  0.97770  Biso   1.000  C
  H471     1.0000 0.52040  0.91160  0.92300  Biso   1.000  H
  C851     1.0000 0.51910  0.93500  0.95810  Biso   1.000  C
  C852     1.0000 0.50930  0.90640  0.99650  Biso   1.000  C
  H472     1.0000 0.50050  0.86620  0.98440  Biso   1.000  H
  H473     1.0000 0.52290  0.95190  0.95040  Biso   1.000  H
  C853     1.0000 0.51490  0.93180  0.98630  Biso   1.000  C
  H474     1.0000 0.50730  0.90390  0.01530  Biso   1.000  H
  C854     1.0000 0.51780  0.95670  0.00310  Biso   1.000  C
  C855     1.0000 0.54010  0.97350  0.99970  Biso   1.000  C
  H475     1.0000 0.55280  0.97000  0.98600  Biso   1.000  H
  Mo286    1.0000 0.93982  0.29167  0.39321  Biso   1.000  Mo
  O761     1.0000 0.97433  0.31165  0.39601  Biso   1.000  O
  O762     1.0000 0.91562  0.25694  0.39072  Biso   1.000  O
  O763     1.0000 0.94804  0.28218  0.43163  Biso   1.000  O
  O764     1.0000 0.94359  0.28637  0.35442  Biso   1.000  O
  Mo287    1.0000 0.96726  0.25266  0.44397  Biso   1.000  Mo
  Mo288    1.0000 0.93348  0.21915  0.39269  Biso   1.000  Mo
  Zn96     1.0000 0.00518  0.30894  0.42156  Biso   1.000  Zn
  O765     1.0000 0.99725  0.22512  0.44123  Biso   1.000  O
  O766     1.0000 0.94200  0.22614  0.42920  Biso   1.000  O
  O767     1.0000 0.00613  0.34094  0.44521  Biso   1.000  O
  C856     1.0000 0.00930  0.36270  0.43320  Biso   1.000  C
  C857     1.0000 0.01160  0.38580  0.45220  Biso   1.000  C
  O768     1.0000 0.01026  0.36508  0.40761  Biso   1.000  O
  C858     1.0000 0.01740  0.41030  0.44170  Biso   1.000  C
  C859     1.0000 0.00630  0.38300  0.47770  Biso   1.000  C
  H476     1.0000 0.02040  0.41160  0.42300  Biso   1.000  H
  C860     1.0000 0.01910  0.43500  0.45810  Biso   1.000  C
  C861     1.0000 0.00930  0.40640  0.49650  Biso   1.000  C
  H477     1.0000 0.00050  0.36620  0.48440  Biso   1.000  H
  H478     1.0000 0.02290  0.45190  0.45040  Biso   1.000  H
  C862     1.0000 0.01490  0.43180  0.48630  Biso   1.000  C
  H479     1.0000 0.00730  0.40390  0.51530  Biso   1.000  H
  C863     1.0000 0.01780  0.45670  0.50310  Biso   1.000  C
  C864     1.0000 0.04010  0.47350  0.49970  Biso   1.000  C
  H480     1.0000 0.05280  0.47000  0.48600  Biso   1.000  H
