data_image0
_cell_length_a       34.1837
_cell_length_b       34.1837
_cell_length_c       34.1837
_cell_angle_alpha    90
_cell_angle_beta     90
_cell_angle_gamma    90

_symmetry_space_group_name_H-M    "P 1"
_symmetry_int_tables_number       1

loop_
  _symmetry_equiv_pos_as_xyz
  'x, y, z'

loop_
  _atom_site_label
  _atom_site_occupancy
  _atom_site_fract_x
  _atom_site_fract_y
  _atom_site_fract_z
  _atom_site_thermal_displace_type
  _atom_site_B_iso_or_equiv
  _atom_site_type_symbol
  Nd1      1.0000 0.63051  0.54254  0.70156  Biso   1.000  Nd
  Nd2      1.0000 0.54760  0.61930  0.70766  Biso   1.000  Nd
  Ge1      1.0000 0.71648  0.59943  0.71519  Biso   1.000  Ge
  Ge2      1.0000 0.63904  0.63880  0.75445  Biso   1.000  Ge
  Ge3      1.0000 0.54117  0.52872  0.64982  Biso   1.000  Ge
  Ge4      1.0000 0.49561  0.60442  0.61853  Biso   1.000  Ge
  C1       1.0000 0.75200  0.56940  0.74790  Biso   1.000  C
  C2       1.0000 0.73380  0.55440  0.78530  Biso   1.000  C
  C3       1.0000 0.69280  0.53760  0.78120  Biso   1.000  C
  C4       1.0000 0.63630  0.62570  0.81010  Biso   1.000  C
  C5       1.0000 0.60540  0.64800  0.82950  Biso   1.000  C
  C6       1.0000 0.56840  0.64990  0.80670  Biso   1.000  C
  C7       1.0000 0.50970  0.49540  0.68250  Biso   1.000  C
  C8       1.0000 0.52880  0.45590  0.69390  Biso   1.000  C
  C9       1.0000 0.56530  0.46180  0.71630  Biso   1.000  C
  C10      1.0000 0.44040  0.60920  0.62530  Biso   1.000  C
  C11      1.0000 0.42490  0.58390  0.65780  Biso   1.000  C
  C12      1.0000 0.45000  0.58450  0.69390  Biso   1.000  C
  O1       1.0000 0.69010  0.63740  0.74010  Biso   1.000  O
  O2       1.0000 0.56690  0.50410  0.61240  Biso   1.000  O
  O3       1.0000 0.51220  0.55500  0.61430  Biso   1.000  O
  O4       1.0000 0.74310  0.63810  0.69010  Biso   1.000  O
  O5       1.0000 0.61900  0.61200  0.71500  Biso   1.000  O
  O6       1.0000 0.68890  0.57510  0.67980  Biso   1.000  O
  O7       1.0000 0.57060  0.56350  0.67250  Biso   1.000  O
  O8       1.0000 0.64200  0.52790  0.63490  Biso   1.000  O
  O9       1.0000 0.67050  0.55530  0.75780  Biso   1.000  O
  O10      1.0000 0.68310  0.50930  0.80010  Biso   1.000  O
  O11      1.0000 0.57340  0.64840  0.76880  Biso   1.000  O
  O12      1.0000 0.53710  0.65420  0.82110  Biso   1.000  O
  O13      1.0000 0.59130  0.48530  0.70290  Biso   1.000  O
  O14      1.0000 0.57200  0.44150  0.74660  Biso   1.000  O
  O15      1.0000 0.48690  0.58430  0.68950  Biso   1.000  O
  O16      1.0000 0.43620  0.58410  0.72670  Biso   1.000  O
  Nd3      1.0000 0.13051  0.04254  0.20156  Biso   1.000  Nd
  Nd4      1.0000 0.04760  0.11930  0.20766  Biso   1.000  Nd
  Ge5      1.0000 0.21648  0.09943  0.21519  Biso   1.000  Ge
  Ge6      1.0000 0.13904  0.13880  0.25445  Biso   1.000  Ge
  Ge7      1.0000 0.04117  0.02872  0.14982  Biso   1.000  Ge
  Ge8      1.0000 0.99561  0.10442  0.11853  Biso   1.000  Ge
  C13      1.0000 0.25200  0.06940  0.24790  Biso   1.000  C
  C14      1.0000 0.23380  0.05440  0.28530  Biso   1.000  C
  C15      1.0000 0.19280  0.03760  0.28120  Biso   1.000  C
  C16      1.0000 0.13630  0.12570  0.31010  Biso   1.000  C
  C17      1.0000 0.10540  0.14800  0.32950  Biso   1.000  C
  C18      1.0000 0.06840  0.14990  0.30670  Biso   1.000  C
  C19      1.0000 0.00970  0.99540  0.18250  Biso   1.000  C
  C20      1.0000 0.02880  0.95590  0.19390  Biso   1.000  C
  C21      1.0000 0.06530  0.96180  0.21630  Biso   1.000  C
  C22      1.0000 0.94040  0.10920  0.12530  Biso   1.000  C
  C23      1.0000 0.92490  0.08390  0.15780  Biso   1.000  C
  C24      1.0000 0.95000  0.08450  0.19390  Biso   1.000  C
  O17      1.0000 0.19010  0.13740  0.24010  Biso   1.000  O
  O18      1.0000 0.06690  0.00410  0.11240  Biso   1.000  O
  O19      1.0000 0.01220  0.05500  0.11430  Biso   1.000  O
  O20      1.0000 0.24310  0.13810  0.19010  Biso   1.000  O
  O21      1.0000 0.11900  0.11200  0.21500  Biso   1.000  O
  O22      1.0000 0.18890  0.07510  0.17980  Biso   1.000  O
  O23      1.0000 0.07060  0.06350  0.17250  Biso   1.000  O
  O24      1.0000 0.14200  0.02790  0.13490  Biso   1.000  O
  O25      1.0000 0.17050  0.05530  0.25780  Biso   1.000  O
  O26      1.0000 0.18310  0.00930  0.30010  Biso   1.000  O
  O27      1.0000 0.07340  0.14840  0.26880  Biso   1.000  O
  O28      1.0000 0.03710  0.15420  0.32110  Biso   1.000  O
  O29      1.0000 0.09130  0.98530  0.20290  Biso   1.000  O
  O30      1.0000 0.07200  0.94150  0.24660  Biso   1.000  O
  O31      1.0000 0.98690  0.08430  0.18950  Biso   1.000  O
  O32      1.0000 0.93620  0.08410  0.22670  Biso   1.000  O
  Nd5      1.0000 0.86949  0.45746  0.20156  Biso   1.000  Nd
  Nd6      1.0000 0.95240  0.38070  0.20766  Biso   1.000  Nd
  Ge9      1.0000 0.78352  0.40057  0.21519  Biso   1.000  Ge
  Ge10     1.0000 0.86096  0.36120  0.25445  Biso   1.000  Ge
  Ge11     1.0000 0.95883  0.47128  0.14982  Biso   1.000  Ge
  Ge12     1.0000 0.00439  0.39558  0.11853  Biso   1.000  Ge
  C25      1.0000 0.74800  0.43060  0.24790  Biso   1.000  C
  C26      1.0000 0.76620  0.44560  0.28530  Biso   1.000  C
  C27      1.0000 0.80720  0.46240  0.28120  Biso   1.000  C
  C28      1.0000 0.86370  0.37430  0.31010  Biso   1.000  C
  C29      1.0000 0.89460  0.35200  0.32950  Biso   1.000  C
  C30      1.0000 0.93160  0.35010  0.30670  Biso   1.000  C
  C31      1.0000 0.99030  0.50460  0.18250  Biso   1.000  C
  C32      1.0000 0.97120  0.54410  0.19390  Biso   1.000  C
  C33      1.0000 0.93470  0.53820  0.21630  Biso   1.000  C
  C34      1.0000 0.05960  0.39080  0.12530  Biso   1.000  C
  C35      1.0000 0.07510  0.41610  0.15780  Biso   1.000  C
  C36      1.0000 0.05000  0.41550  0.19390  Biso   1.000  C
  O33      1.0000 0.80990  0.36260  0.24010  Biso   1.000  O
  O34      1.0000 0.93310  0.49590  0.11240  Biso   1.000  O
  O35      1.0000 0.98780  0.44500  0.11430  Biso   1.000  O
  O36      1.0000 0.75690  0.36190  0.19010  Biso   1.000  O
  O37      1.0000 0.88100  0.38800  0.21500  Biso   1.000  O
  O38      1.0000 0.81110  0.42490  0.17980  Biso   1.000  O
  O39      1.0000 0.92940  0.43650  0.17250  Biso   1.000  O
  O40      1.0000 0.85800  0.47210  0.13490  Biso   1.000  O
  O41      1.0000 0.82950  0.44470  0.25780  Biso   1.000  O
  O42      1.0000 0.81690  0.49070  0.30010  Biso   1.000  O
  O43      1.0000 0.92660  0.35160  0.26880  Biso   1.000  O
  O44      1.0000 0.96290  0.34580  0.32110  Biso   1.000  O
  O45      1.0000 0.90870  0.51470  0.20290  Biso   1.000  O
  O46      1.0000 0.92800  0.55850  0.24660  Biso   1.000  O
  O47      1.0000 0.01310  0.41570  0.18950  Biso   1.000  O
  O48      1.0000 0.06380  0.41590  0.22670  Biso   1.000  O
  Nd7      1.0000 0.36949  0.95746  0.70156  Biso   1.000  Nd
  Nd8      1.0000 0.45240  0.88070  0.70766  Biso   1.000  Nd
  Ge13     1.0000 0.28352  0.90057  0.71519  Biso   1.000  Ge
  Ge14     1.0000 0.36096  0.86120  0.75445  Biso   1.000  Ge
  Ge15     1.0000 0.45883  0.97128  0.64982  Biso   1.000  Ge
  Ge16     1.0000 0.50439  0.89558  0.61853  Biso   1.000  Ge
  C37      1.0000 0.24800  0.93060  0.74790  Biso   1.000  C
  C38      1.0000 0.26620  0.94560  0.78530  Biso   1.000  C
  C39      1.0000 0.30720  0.96240  0.78120  Biso   1.000  C
  C40      1.0000 0.36370  0.87430  0.81010  Biso   1.000  C
  C41      1.0000 0.39460  0.85200  0.82950  Biso   1.000  C
  C42      1.0000 0.43160  0.85010  0.80670  Biso   1.000  C
  C43      1.0000 0.49030  0.00460  0.68250  Biso   1.000  C
  C44      1.0000 0.47120  0.04410  0.69390  Biso   1.000  C
  C45      1.0000 0.43470  0.03820  0.71630  Biso   1.000  C
  C46      1.0000 0.55960  0.89080  0.62530  Biso   1.000  C
  C47      1.0000 0.57510  0.91610  0.65780  Biso   1.000  C
  C48      1.0000 0.55000  0.91550  0.69390  Biso   1.000  C
  O49      1.0000 0.30990  0.86260  0.74010  Biso   1.000  O
  O50      1.0000 0.43310  0.99590  0.61240  Biso   1.000  O
  O51      1.0000 0.48780  0.94500  0.61430  Biso   1.000  O
  O52      1.0000 0.25690  0.86190  0.69010  Biso   1.000  O
  O53      1.0000 0.38100  0.88800  0.71500  Biso   1.000  O
  O54      1.0000 0.31110  0.92490  0.67980  Biso   1.000  O
  O55      1.0000 0.42940  0.93650  0.67250  Biso   1.000  O
  O56      1.0000 0.35800  0.97210  0.63490  Biso   1.000  O
  O57      1.0000 0.32950  0.94470  0.75780  Biso   1.000  O
  O58      1.0000 0.31690  0.99070  0.80010  Biso   1.000  O
  O59      1.0000 0.42660  0.85160  0.76880  Biso   1.000  O
  O60      1.0000 0.46290  0.84580  0.82110  Biso   1.000  O
  O61      1.0000 0.40870  0.01470  0.70290  Biso   1.000  O
  O62      1.0000 0.42800  0.05850  0.74660  Biso   1.000  O
  O63      1.0000 0.51310  0.91570  0.68950  Biso   1.000  O
  O64      1.0000 0.56380  0.91590  0.72670  Biso   1.000  O
  Nd9      1.0000 0.36949  0.04254  0.79844  Biso   1.000  Nd
  Nd10     1.0000 0.45240  0.11930  0.79234  Biso   1.000  Nd
  Ge17     1.0000 0.28352  0.09943  0.78481  Biso   1.000  Ge
  Ge18     1.0000 0.36096  0.13880  0.74555  Biso   1.000  Ge
  Ge19     1.0000 0.45883  0.02872  0.85018  Biso   1.000  Ge
  Ge20     1.0000 0.50439  0.10442  0.88147  Biso   1.000  Ge
  C49      1.0000 0.24800  0.06940  0.75210  Biso   1.000  C
  C50      1.0000 0.26620  0.05440  0.71470  Biso   1.000  C
  C51      1.0000 0.30720  0.03760  0.71880  Biso   1.000  C
  C52      1.0000 0.36370  0.12570  0.68990  Biso   1.000  C
  C53      1.0000 0.39460  0.14800  0.67050  Biso   1.000  C
  C54      1.0000 0.43160  0.14990  0.69330  Biso   1.000  C
  C55      1.0000 0.49030  0.99540  0.81750  Biso   1.000  C
  C56      1.0000 0.47120  0.95590  0.80610  Biso   1.000  C
  C57      1.0000 0.43470  0.96180  0.78370  Biso   1.000  C
  C58      1.0000 0.55960  0.10920  0.87470  Biso   1.000  C
  C59      1.0000 0.57510  0.08390  0.84220  Biso   1.000  C
  C60      1.0000 0.55000  0.08450  0.80610  Biso   1.000  C
  O65      1.0000 0.30990  0.13740  0.75990  Biso   1.000  O
  O66      1.0000 0.43310  0.00410  0.88760  Biso   1.000  O
  O67      1.0000 0.48780  0.05500  0.88570  Biso   1.000  O
  O68      1.0000 0.25690  0.13810  0.80990  Biso   1.000  O
  O69      1.0000 0.38100  0.11200  0.78500  Biso   1.000  O
  O70      1.0000 0.31110  0.07510  0.82020  Biso   1.000  O
  O71      1.0000 0.42940  0.06350  0.82750  Biso   1.000  O
  O72      1.0000 0.35800  0.02790  0.86510  Biso   1.000  O
  O73      1.0000 0.32950  0.05530  0.74220  Biso   1.000  O
  O74      1.0000 0.31690  0.00930  0.69990  Biso   1.000  O
  O75      1.0000 0.42660  0.14840  0.73120  Biso   1.000  O
  O76      1.0000 0.46290  0.15420  0.67890  Biso   1.000  O
  O77      1.0000 0.40870  0.98530  0.79710  Biso   1.000  O
  O78      1.0000 0.42800  0.94150  0.75340  Biso   1.000  O
  O79      1.0000 0.51310  0.08430  0.81050  Biso   1.000  O
  O80      1.0000 0.56380  0.08410  0.77330  Biso   1.000  O
  Nd11     1.0000 0.86949  0.54254  0.29844  Biso   1.000  Nd
  Nd12     1.0000 0.95240  0.61930  0.29234  Biso   1.000  Nd
  Ge21     1.0000 0.78352  0.59943  0.28481  Biso   1.000  Ge
  Ge22     1.0000 0.86096  0.63880  0.24555  Biso   1.000  Ge
  Ge23     1.0000 0.95883  0.52872  0.35018  Biso   1.000  Ge
  Ge24     1.0000 0.00439  0.60442  0.38147  Biso   1.000  Ge
  C61      1.0000 0.74800  0.56940  0.25210  Biso   1.000  C
  C62      1.0000 0.76620  0.55440  0.21470  Biso   1.000  C
  C63      1.0000 0.80720  0.53760  0.21880  Biso   1.000  C
  C64      1.0000 0.86370  0.62570  0.18990  Biso   1.000  C
  C65      1.0000 0.89460  0.64800  0.17050  Biso   1.000  C
  C66      1.0000 0.93160  0.64990  0.19330  Biso   1.000  C
  C67      1.0000 0.99030  0.49540  0.31750  Biso   1.000  C
  C68      1.0000 0.97120  0.45590  0.30610  Biso   1.000  C
  C69      1.0000 0.93470  0.46180  0.28370  Biso   1.000  C
  C70      1.0000 0.05960  0.60920  0.37470  Biso   1.000  C
  C71      1.0000 0.07510  0.58390  0.34220  Biso   1.000  C
  C72      1.0000 0.05000  0.58450  0.30610  Biso   1.000  C
  O81      1.0000 0.80990  0.63740  0.25990  Biso   1.000  O
  O82      1.0000 0.93310  0.50410  0.38760  Biso   1.000  O
  O83      1.0000 0.98780  0.55500  0.38570  Biso   1.000  O
  O84      1.0000 0.75690  0.63810  0.30990  Biso   1.000  O
  O85      1.0000 0.88100  0.61200  0.28500  Biso   1.000  O
  O86      1.0000 0.81110  0.57510  0.32020  Biso   1.000  O
  O87      1.0000 0.92940  0.56350  0.32750  Biso   1.000  O
  O88      1.0000 0.85800  0.52790  0.36510  Biso   1.000  O
  O89      1.0000 0.82950  0.55530  0.24220  Biso   1.000  O
  O90      1.0000 0.81690  0.50930  0.19990  Biso   1.000  O
  O91      1.0000 0.92660  0.64840  0.23120  Biso   1.000  O
  O92      1.0000 0.96290  0.65420  0.17890  Biso   1.000  O
  O93      1.0000 0.90870  0.48530  0.29710  Biso   1.000  O
  O94      1.0000 0.92800  0.44150  0.25340  Biso   1.000  O
  O95      1.0000 0.01310  0.58430  0.31050  Biso   1.000  O
  O96      1.0000 0.06380  0.58410  0.27330  Biso   1.000  O
  Nd13     1.0000 0.13051  0.95746  0.29844  Biso   1.000  Nd
  Nd14     1.0000 0.04760  0.88070  0.29234  Biso   1.000  Nd
  Ge25     1.0000 0.21648  0.90057  0.28481  Biso   1.000  Ge
  Ge26     1.0000 0.13904  0.86120  0.24555  Biso   1.000  Ge
  Ge27     1.0000 0.04117  0.97128  0.35018  Biso   1.000  Ge
  Ge28     1.0000 0.99561  0.89558  0.38147  Biso   1.000  Ge
  C73      1.0000 0.25200  0.93060  0.25210  Biso   1.000  C
  C74      1.0000 0.23380  0.94560  0.21470  Biso   1.000  C
  C75      1.0000 0.19280  0.96240  0.21880  Biso   1.000  C
  C76      1.0000 0.13630  0.87430  0.18990  Biso   1.000  C
  C77      1.0000 0.10540  0.85200  0.17050  Biso   1.000  C
  C78      1.0000 0.06840  0.85010  0.19330  Biso   1.000  C
  C79      1.0000 0.00970  0.00460  0.31750  Biso   1.000  C
  C80      1.0000 0.02880  0.04410  0.30610  Biso   1.000  C
  C81      1.0000 0.06530  0.03820  0.28370  Biso   1.000  C
  C82      1.0000 0.94040  0.89080  0.37470  Biso   1.000  C
  C83      1.0000 0.92490  0.91610  0.34220  Biso   1.000  C
  C84      1.0000 0.95000  0.91550  0.30610  Biso   1.000  C
  O97      1.0000 0.19010  0.86260  0.25990  Biso   1.000  O
  O98      1.0000 0.06690  0.99590  0.38760  Biso   1.000  O
  O99      1.0000 0.01220  0.94500  0.38570  Biso   1.000  O
  O100     1.0000 0.24310  0.86190  0.30990  Biso   1.000  O
  O101     1.0000 0.11900  0.88800  0.28500  Biso   1.000  O
  O102     1.0000 0.18890  0.92490  0.32020  Biso   1.000  O
  O103     1.0000 0.07060  0.93650  0.32750  Biso   1.000  O
  O104     1.0000 0.14200  0.97210  0.36510  Biso   1.000  O
  O105     1.0000 0.17050  0.94470  0.24220  Biso   1.000  O
  O106     1.0000 0.18310  0.99070  0.19990  Biso   1.000  O
  O107     1.0000 0.07340  0.85160  0.23120  Biso   1.000  O
  O108     1.0000 0.03710  0.84580  0.17890  Biso   1.000  O
  O109     1.0000 0.09130  0.01470  0.29710  Biso   1.000  O
  O110     1.0000 0.07200  0.05850  0.25340  Biso   1.000  O
  O111     1.0000 0.98690  0.91570  0.31050  Biso   1.000  O
  O112     1.0000 0.93620  0.91590  0.27330  Biso   1.000  O
  Nd15     1.0000 0.63051  0.45746  0.79844  Biso   1.000  Nd
  Nd16     1.0000 0.54760  0.38070  0.79234  Biso   1.000  Nd
  Ge29     1.0000 0.71648  0.40057  0.78481  Biso   1.000  Ge
  Ge30     1.0000 0.63904  0.36120  0.74555  Biso   1.000  Ge
  Ge31     1.0000 0.54117  0.47128  0.85018  Biso   1.000  Ge
  Ge32     1.0000 0.49561  0.39558  0.88147  Biso   1.000  Ge
  C85      1.0000 0.75200  0.43060  0.75210  Biso   1.000  C
  C86      1.0000 0.73380  0.44560  0.71470  Biso   1.000  C
  C87      1.0000 0.69280  0.46240  0.71880  Biso   1.000  C
  C88      1.0000 0.63630  0.37430  0.68990  Biso   1.000  C
  C89      1.0000 0.60540  0.35200  0.67050  Biso   1.000  C
  C90      1.0000 0.56840  0.35010  0.69330  Biso   1.000  C
  C91      1.0000 0.50970  0.50460  0.81750  Biso   1.000  C
  C92      1.0000 0.52880  0.54410  0.80610  Biso   1.000  C
  C93      1.0000 0.56530  0.53820  0.78370  Biso   1.000  C
  C94      1.0000 0.44040  0.39080  0.87470  Biso   1.000  C
  C95      1.0000 0.42490  0.41610  0.84220  Biso   1.000  C
  C96      1.0000 0.45000  0.41550  0.80610  Biso   1.000  C
  O113     1.0000 0.69010  0.36260  0.75990  Biso   1.000  O
  O114     1.0000 0.56690  0.49590  0.88760  Biso   1.000  O
  O115     1.0000 0.51220  0.44500  0.88570  Biso   1.000  O
  O116     1.0000 0.74310  0.36190  0.80990  Biso   1.000  O
  O117     1.0000 0.61900  0.38800  0.78500  Biso   1.000  O
  O118     1.0000 0.68890  0.42490  0.82020  Biso   1.000  O
  O119     1.0000 0.57060  0.43650  0.82750  Biso   1.000  O
  O120     1.0000 0.64200  0.47210  0.86510  Biso   1.000  O
  O121     1.0000 0.67050  0.44470  0.74220  Biso   1.000  O
  O122     1.0000 0.68310  0.49070  0.69990  Biso   1.000  O
  O123     1.0000 0.57340  0.35160  0.73120  Biso   1.000  O
  O124     1.0000 0.53710  0.34580  0.67890  Biso   1.000  O
  O125     1.0000 0.59130  0.51470  0.79710  Biso   1.000  O
  O126     1.0000 0.57200  0.55850  0.75340  Biso   1.000  O
  O127     1.0000 0.48690  0.41570  0.81050  Biso   1.000  O
  O128     1.0000 0.43620  0.41590  0.77330  Biso   1.000  O
  Nd17     1.0000 0.70156  0.63051  0.54254  Biso   1.000  Nd
  Nd18     1.0000 0.70766  0.54760  0.61930  Biso   1.000  Nd
  Ge33     1.0000 0.71519  0.71648  0.59943  Biso   1.000  Ge
  Ge34     1.0000 0.75445  0.63904  0.63880  Biso   1.000  Ge
  Ge35     1.0000 0.64982  0.54117  0.52872  Biso   1.000  Ge
  Ge36     1.0000 0.61853  0.49561  0.60442  Biso   1.000  Ge
  C97      1.0000 0.74790  0.75200  0.56940  Biso   1.000  C
  C98      1.0000 0.78530  0.73380  0.55440  Biso   1.000  C
  C99      1.0000 0.78120  0.69280  0.53760  Biso   1.000  C
  C100     1.0000 0.81010  0.63630  0.62570  Biso   1.000  C
  C101     1.0000 0.82950  0.60540  0.64800  Biso   1.000  C
  C102     1.0000 0.80670  0.56840  0.64990  Biso   1.000  C
  C103     1.0000 0.68250  0.50970  0.49540  Biso   1.000  C
  C104     1.0000 0.69390  0.52880  0.45590  Biso   1.000  C
  C105     1.0000 0.71630  0.56530  0.46180  Biso   1.000  C
  C106     1.0000 0.62530  0.44040  0.60920  Biso   1.000  C
  C107     1.0000 0.65780  0.42490  0.58390  Biso   1.000  C
  C108     1.0000 0.69390  0.45000  0.58450  Biso   1.000  C
  O129     1.0000 0.74010  0.69010  0.63740  Biso   1.000  O
  O130     1.0000 0.61240  0.56690  0.50410  Biso   1.000  O
  O131     1.0000 0.61430  0.51220  0.55500  Biso   1.000  O
  O132     1.0000 0.69010  0.74310  0.63810  Biso   1.000  O
  O133     1.0000 0.71500  0.61900  0.61200  Biso   1.000  O
  O134     1.0000 0.67980  0.68890  0.57510  Biso   1.000  O
  O135     1.0000 0.67250  0.57060  0.56350  Biso   1.000  O
  O136     1.0000 0.63490  0.64200  0.52790  Biso   1.000  O
  O137     1.0000 0.75780  0.67050  0.55530  Biso   1.000  O
  O138     1.0000 0.80010  0.68310  0.50930  Biso   1.000  O
  O139     1.0000 0.76880  0.57340  0.64840  Biso   1.000  O
  O140     1.0000 0.82110  0.53710  0.65420  Biso   1.000  O
  O141     1.0000 0.70290  0.59130  0.48530  Biso   1.000  O
  O142     1.0000 0.74660  0.57200  0.44150  Biso   1.000  O
  O143     1.0000 0.68950  0.48690  0.58430  Biso   1.000  O
  O144     1.0000 0.72670  0.43620  0.58410  Biso   1.000  O
  Nd19     1.0000 0.20156  0.13051  0.04254  Biso   1.000  Nd
  Nd20     1.0000 0.20766  0.04760  0.11930  Biso   1.000  Nd
  Ge37     1.0000 0.21519  0.21648  0.09943  Biso   1.000  Ge
  Ge38     1.0000 0.25445  0.13904  0.13880  Biso   1.000  Ge
  Ge39     1.0000 0.14982  0.04117  0.02872  Biso   1.000  Ge
  Ge40     1.0000 0.11853  0.99561  0.10442  Biso   1.000  Ge
  C109     1.0000 0.24790  0.25200  0.06940  Biso   1.000  C
  C110     1.0000 0.28530  0.23380  0.05440  Biso   1.000  C
  C111     1.0000 0.28120  0.19280  0.03760  Biso   1.000  C
  C112     1.0000 0.31010  0.13630  0.12570  Biso   1.000  C
  C113     1.0000 0.32950  0.10540  0.14800  Biso   1.000  C
  C114     1.0000 0.30670  0.06840  0.14990  Biso   1.000  C
  C115     1.0000 0.18250  0.00970  0.99540  Biso   1.000  C
  C116     1.0000 0.19390  0.02880  0.95590  Biso   1.000  C
  C117     1.0000 0.21630  0.06530  0.96180  Biso   1.000  C
  C118     1.0000 0.12530  0.94040  0.10920  Biso   1.000  C
  C119     1.0000 0.15780  0.92490  0.08390  Biso   1.000  C
  C120     1.0000 0.19390  0.95000  0.08450  Biso   1.000  C
  O145     1.0000 0.24010  0.19010  0.13740  Biso   1.000  O
  O146     1.0000 0.11240  0.06690  0.00410  Biso   1.000  O
  O147     1.0000 0.11430  0.01220  0.05500  Biso   1.000  O
  O148     1.0000 0.19010  0.24310  0.13810  Biso   1.000  O
  O149     1.0000 0.21500  0.11900  0.11200  Biso   1.000  O
  O150     1.0000 0.17980  0.18890  0.07510  Biso   1.000  O
  O151     1.0000 0.17250  0.07060  0.06350  Biso   1.000  O
  O152     1.0000 0.13490  0.14200  0.02790  Biso   1.000  O
  O153     1.0000 0.25780  0.17050  0.05530  Biso   1.000  O
  O154     1.0000 0.30010  0.18310  0.00930  Biso   1.000  O
  O155     1.0000 0.26880  0.07340  0.14840  Biso   1.000  O
  O156     1.0000 0.32110  0.03710  0.15420  Biso   1.000  O
  O157     1.0000 0.20290  0.09130  0.98530  Biso   1.000  O
  O158     1.0000 0.24660  0.07200  0.94150  Biso   1.000  O
  O159     1.0000 0.18950  0.98690  0.08430  Biso   1.000  O
  O160     1.0000 0.22670  0.93620  0.08410  Biso   1.000  O
  Nd21     1.0000 0.20156  0.86949  0.45746  Biso   1.000  Nd
  Nd22     1.0000 0.20766  0.95240  0.38070  Biso   1.000  Nd
  Ge41     1.0000 0.21519  0.78352  0.40057  Biso   1.000  Ge
  Ge42     1.0000 0.25445  0.86096  0.36120  Biso   1.000  Ge
  Ge43     1.0000 0.14982  0.95883  0.47128  Biso   1.000  Ge
  Ge44     1.0000 0.11853  0.00439  0.39558  Biso   1.000  Ge
  C121     1.0000 0.24790  0.74800  0.43060  Biso   1.000  C
  C122     1.0000 0.28530  0.76620  0.44560  Biso   1.000  C
  C123     1.0000 0.28120  0.80720  0.46240  Biso   1.000  C
  C124     1.0000 0.31010  0.86370  0.37430  Biso   1.000  C
  C125     1.0000 0.32950  0.89460  0.35200  Biso   1.000  C
  C126     1.0000 0.30670  0.93160  0.35010  Biso   1.000  C
  C127     1.0000 0.18250  0.99030  0.50460  Biso   1.000  C
  C128     1.0000 0.19390  0.97120  0.54410  Biso   1.000  C
  C129     1.0000 0.21630  0.93470  0.53820  Biso   1.000  C
  C130     1.0000 0.12530  0.05960  0.39080  Biso   1.000  C
  C131     1.0000 0.15780  0.07510  0.41610  Biso   1.000  C
  C132     1.0000 0.19390  0.05000  0.41550  Biso   1.000  C
  O161     1.0000 0.24010  0.80990  0.36260  Biso   1.000  O
  O162     1.0000 0.11240  0.93310  0.49590  Biso   1.000  O
  O163     1.0000 0.11430  0.98780  0.44500  Biso   1.000  O
  O164     1.0000 0.19010  0.75690  0.36190  Biso   1.000  O
  O165     1.0000 0.21500  0.88100  0.38800  Biso   1.000  O
  O166     1.0000 0.17980  0.81110  0.42490  Biso   1.000  O
  O167     1.0000 0.17250  0.92940  0.43650  Biso   1.000  O
  O168     1.0000 0.13490  0.85800  0.47210  Biso   1.000  O
  O169     1.0000 0.25780  0.82950  0.44470  Biso   1.000  O
  O170     1.0000 0.30010  0.81690  0.49070  Biso   1.000  O
  O171     1.0000 0.26880  0.92660  0.35160  Biso   1.000  O
  O172     1.0000 0.32110  0.96290  0.34580  Biso   1.000  O
  O173     1.0000 0.20290  0.90870  0.51470  Biso   1.000  O
  O174     1.0000 0.24660  0.92800  0.55850  Biso   1.000  O
  O175     1.0000 0.18950  0.01310  0.41570  Biso   1.000  O
  O176     1.0000 0.22670  0.06380  0.41590  Biso   1.000  O
  Nd23     1.0000 0.70156  0.36949  0.95746  Biso   1.000  Nd
  Nd24     1.0000 0.70766  0.45240  0.88070  Biso   1.000  Nd
  Ge45     1.0000 0.71519  0.28352  0.90057  Biso   1.000  Ge
  Ge46     1.0000 0.75445  0.36096  0.86120  Biso   1.000  Ge
  Ge47     1.0000 0.64982  0.45883  0.97128  Biso   1.000  Ge
  Ge48     1.0000 0.61853  0.50439  0.89558  Biso   1.000  Ge
  C133     1.0000 0.74790  0.24800  0.93060  Biso   1.000  C
  C134     1.0000 0.78530  0.26620  0.94560  Biso   1.000  C
  C135     1.0000 0.78120  0.30720  0.96240  Biso   1.000  C
  C136     1.0000 0.81010  0.36370  0.87430  Biso   1.000  C
  C137     1.0000 0.82950  0.39460  0.85200  Biso   1.000  C
  C138     1.0000 0.80670  0.43160  0.85010  Biso   1.000  C
  C139     1.0000 0.68250  0.49030  0.00460  Biso   1.000  C
  C140     1.0000 0.69390  0.47120  0.04410  Biso   1.000  C
  C141     1.0000 0.71630  0.43470  0.03820  Biso   1.000  C
  C142     1.0000 0.62530  0.55960  0.89080  Biso   1.000  C
  C143     1.0000 0.65780  0.57510  0.91610  Biso   1.000  C
  C144     1.0000 0.69390  0.55000  0.91550  Biso   1.000  C
  O177     1.0000 0.74010  0.30990  0.86260  Biso   1.000  O
  O178     1.0000 0.61240  0.43310  0.99590  Biso   1.000  O
  O179     1.0000 0.61430  0.48780  0.94500  Biso   1.000  O
  O180     1.0000 0.69010  0.25690  0.86190  Biso   1.000  O
  O181     1.0000 0.71500  0.38100  0.88800  Biso   1.000  O
  O182     1.0000 0.67980  0.31110  0.92490  Biso   1.000  O
  O183     1.0000 0.67250  0.42940  0.93650  Biso   1.000  O
  O184     1.0000 0.63490  0.35800  0.97210  Biso   1.000  O
  O185     1.0000 0.75780  0.32950  0.94470  Biso   1.000  O
  O186     1.0000 0.80010  0.31690  0.99070  Biso   1.000  O
  O187     1.0000 0.76880  0.42660  0.85160  Biso   1.000  O
  O188     1.0000 0.82110  0.46290  0.84580  Biso   1.000  O
  O189     1.0000 0.70290  0.40870  0.01470  Biso   1.000  O
  O190     1.0000 0.74660  0.42800  0.05850  Biso   1.000  O
  O191     1.0000 0.68950  0.51310  0.91570  Biso   1.000  O
  O192     1.0000 0.72670  0.56380  0.91590  Biso   1.000  O
  Nd25     1.0000 0.79844  0.36949  0.04254  Biso   1.000  Nd
  Nd26     1.0000 0.79234  0.45240  0.11930  Biso   1.000  Nd
  Ge49     1.0000 0.78481  0.28352  0.09943  Biso   1.000  Ge
  Ge50     1.0000 0.74555  0.36096  0.13880  Biso   1.000  Ge
  Ge51     1.0000 0.85018  0.45883  0.02872  Biso   1.000  Ge
  Ge52     1.0000 0.88147  0.50439  0.10442  Biso   1.000  Ge
  C145     1.0000 0.75210  0.24800  0.06940  Biso   1.000  C
  C146     1.0000 0.71470  0.26620  0.05440  Biso   1.000  C
  C147     1.0000 0.71880  0.30720  0.03760  Biso   1.000  C
  C148     1.0000 0.68990  0.36370  0.12570  Biso   1.000  C
  C149     1.0000 0.67050  0.39460  0.14800  Biso   1.000  C
  C150     1.0000 0.69330  0.43160  0.14990  Biso   1.000  C
  C151     1.0000 0.81750  0.49030  0.99540  Biso   1.000  C
  C152     1.0000 0.80610  0.47120  0.95590  Biso   1.000  C
  C153     1.0000 0.78370  0.43470  0.96180  Biso   1.000  C
  C154     1.0000 0.87470  0.55960  0.10920  Biso   1.000  C
  C155     1.0000 0.84220  0.57510  0.08390  Biso   1.000  C
  C156     1.0000 0.80610  0.55000  0.08450  Biso   1.000  C
  O193     1.0000 0.75990  0.30990  0.13740  Biso   1.000  O
  O194     1.0000 0.88760  0.43310  0.00410  Biso   1.000  O
  O195     1.0000 0.88570  0.48780  0.05500  Biso   1.000  O
  O196     1.0000 0.80990  0.25690  0.13810  Biso   1.000  O
  O197     1.0000 0.78500  0.38100  0.11200  Biso   1.000  O
  O198     1.0000 0.82020  0.31110  0.07510  Biso   1.000  O
  O199     1.0000 0.82750  0.42940  0.06350  Biso   1.000  O
  O200     1.0000 0.86510  0.35800  0.02790  Biso   1.000  O
  O201     1.0000 0.74220  0.32950  0.05530  Biso   1.000  O
  O202     1.0000 0.69990  0.31690  0.00930  Biso   1.000  O
  O203     1.0000 0.73120  0.42660  0.14840  Biso   1.000  O
  O204     1.0000 0.67890  0.46290  0.15420  Biso   1.000  O
  O205     1.0000 0.79710  0.40870  0.98530  Biso   1.000  O
  O206     1.0000 0.75340  0.42800  0.94150  Biso   1.000  O
  O207     1.0000 0.81050  0.51310  0.08430  Biso   1.000  O
  O208     1.0000 0.77330  0.56380  0.08410  Biso   1.000  O
  Nd27     1.0000 0.29844  0.86949  0.54254  Biso   1.000  Nd
  Nd28     1.0000 0.29234  0.95240  0.61930  Biso   1.000  Nd
  Ge53     1.0000 0.28481  0.78352  0.59943  Biso   1.000  Ge
  Ge54     1.0000 0.24555  0.86096  0.63880  Biso   1.000  Ge
  Ge55     1.0000 0.35018  0.95883  0.52872  Biso   1.000  Ge
  Ge56     1.0000 0.38147  0.00439  0.60442  Biso   1.000  Ge
  C157     1.0000 0.25210  0.74800  0.56940  Biso   1.000  C
  C158     1.0000 0.21470  0.76620  0.55440  Biso   1.000  C
  C159     1.0000 0.21880  0.80720  0.53760  Biso   1.000  C
  C160     1.0000 0.18990  0.86370  0.62570  Biso   1.000  C
  C161     1.0000 0.17050  0.89460  0.64800  Biso   1.000  C
  C162     1.0000 0.19330  0.93160  0.64990  Biso   1.000  C
  C163     1.0000 0.31750  0.99030  0.49540  Biso   1.000  C
  C164     1.0000 0.30610  0.97120  0.45590  Biso   1.000  C
  C165     1.0000 0.28370  0.93470  0.46180  Biso   1.000  C
  C166     1.0000 0.37470  0.05960  0.60920  Biso   1.000  C
  C167     1.0000 0.34220  0.07510  0.58390  Biso   1.000  C
  C168     1.0000 0.30610  0.05000  0.58450  Biso   1.000  C
  O209     1.0000 0.25990  0.80990  0.63740  Biso   1.000  O
  O210     1.0000 0.38760  0.93310  0.50410  Biso   1.000  O
  O211     1.0000 0.38570  0.98780  0.55500  Biso   1.000  O
  O212     1.0000 0.30990  0.75690  0.63810  Biso   1.000  O
  O213     1.0000 0.28500  0.88100  0.61200  Biso   1.000  O
  O214     1.0000 0.32020  0.81110  0.57510  Biso   1.000  O
  O215     1.0000 0.32750  0.92940  0.56350  Biso   1.000  O
  O216     1.0000 0.36510  0.85800  0.52790  Biso   1.000  O
  O217     1.0000 0.24220  0.82950  0.55530  Biso   1.000  O
  O218     1.0000 0.19990  0.81690  0.50930  Biso   1.000  O
  O219     1.0000 0.23120  0.92660  0.64840  Biso   1.000  O
  O220     1.0000 0.17890  0.96290  0.65420  Biso   1.000  O
  O221     1.0000 0.29710  0.90870  0.48530  Biso   1.000  O
  O222     1.0000 0.25340  0.92800  0.44150  Biso   1.000  O
  O223     1.0000 0.31050  0.01310  0.58430  Biso   1.000  O
  O224     1.0000 0.27330  0.06380  0.58410  Biso   1.000  O
  Nd29     1.0000 0.29844  0.13051  0.95746  Biso   1.000  Nd
  Nd30     1.0000 0.29234  0.04760  0.88070  Biso   1.000  Nd
  Ge57     1.0000 0.28481  0.21648  0.90057  Biso   1.000  Ge
  Ge58     1.0000 0.24555  0.13904  0.86120  Biso   1.000  Ge
  Ge59     1.0000 0.35018  0.04117  0.97128  Biso   1.000  Ge
  Ge60     1.0000 0.38147  0.99561  0.89558  Biso   1.000  Ge
  C169     1.0000 0.25210  0.25200  0.93060  Biso   1.000  C
  C170     1.0000 0.21470  0.23380  0.94560  Biso   1.000  C
  C171     1.0000 0.21880  0.19280  0.96240  Biso   1.000  C
  C172     1.0000 0.18990  0.13630  0.87430  Biso   1.000  C
  C173     1.0000 0.17050  0.10540  0.85200  Biso   1.000  C
  C174     1.0000 0.19330  0.06840  0.85010  Biso   1.000  C
  C175     1.0000 0.31750  0.00970  0.00460  Biso   1.000  C
  C176     1.0000 0.30610  0.02880  0.04410  Biso   1.000  C
  C177     1.0000 0.28370  0.06530  0.03820  Biso   1.000  C
  C178     1.0000 0.37470  0.94040  0.89080  Biso   1.000  C
  C179     1.0000 0.34220  0.92490  0.91610  Biso   1.000  C
  C180     1.0000 0.30610  0.95000  0.91550  Biso   1.000  C
  O225     1.0000 0.25990  0.19010  0.86260  Biso   1.000  O
  O226     1.0000 0.38760  0.06690  0.99590  Biso   1.000  O
  O227     1.0000 0.38570  0.01220  0.94500  Biso   1.000  O
  O228     1.0000 0.30990  0.24310  0.86190  Biso   1.000  O
  O229     1.0000 0.28500  0.11900  0.88800  Biso   1.000  O
  O230     1.0000 0.32020  0.18890  0.92490  Biso   1.000  O
  O231     1.0000 0.32750  0.07060  0.93650  Biso   1.000  O
  O232     1.0000 0.36510  0.14200  0.97210  Biso   1.000  O
  O233     1.0000 0.24220  0.17050  0.94470  Biso   1.000  O
  O234     1.0000 0.19990  0.18310  0.99070  Biso   1.000  O
  O235     1.0000 0.23120  0.07340  0.85160  Biso   1.000  O
  O236     1.0000 0.17890  0.03710  0.84580  Biso   1.000  O
  O237     1.0000 0.29710  0.09130  0.01470  Biso   1.000  O
  O238     1.0000 0.25340  0.07200  0.05850  Biso   1.000  O
  O239     1.0000 0.31050  0.98690  0.91570  Biso   1.000  O
  O240     1.0000 0.27330  0.93620  0.91590  Biso   1.000  O
  Nd31     1.0000 0.79844  0.63051  0.45746  Biso   1.000  Nd
  Nd32     1.0000 0.79234  0.54760  0.38070  Biso   1.000  Nd
  Ge61     1.0000 0.78481  0.71648  0.40057  Biso   1.000  Ge
  Ge62     1.0000 0.74555  0.63904  0.36120  Biso   1.000  Ge
  Ge63     1.0000 0.85018  0.54117  0.47128  Biso   1.000  Ge
  Ge64     1.0000 0.88147  0.49561  0.39558  Biso   1.000  Ge
  C181     1.0000 0.75210  0.75200  0.43060  Biso   1.000  C
  C182     1.0000 0.71470  0.73380  0.44560  Biso   1.000  C
  C183     1.0000 0.71880  0.69280  0.46240  Biso   1.000  C
  C184     1.0000 0.68990  0.63630  0.37430  Biso   1.000  C
  C185     1.0000 0.67050  0.60540  0.35200  Biso   1.000  C
  C186     1.0000 0.69330  0.56840  0.35010  Biso   1.000  C
  C187     1.0000 0.81750  0.50970  0.50460  Biso   1.000  C
  C188     1.0000 0.80610  0.52880  0.54410  Biso   1.000  C
  C189     1.0000 0.78370  0.56530  0.53820  Biso   1.000  C
  C190     1.0000 0.87470  0.44040  0.39080  Biso   1.000  C
  C191     1.0000 0.84220  0.42490  0.41610  Biso   1.000  C
  C192     1.0000 0.80610  0.45000  0.41550  Biso   1.000  C
  O241     1.0000 0.75990  0.69010  0.36260  Biso   1.000  O
  O242     1.0000 0.88760  0.56690  0.49590  Biso   1.000  O
  O243     1.0000 0.88570  0.51220  0.44500  Biso   1.000  O
  O244     1.0000 0.80990  0.74310  0.36190  Biso   1.000  O
  O245     1.0000 0.78500  0.61900  0.38800  Biso   1.000  O
  O246     1.0000 0.82020  0.68890  0.42490  Biso   1.000  O
  O247     1.0000 0.82750  0.57060  0.43650  Biso   1.000  O
  O248     1.0000 0.86510  0.64200  0.47210  Biso   1.000  O
  O249     1.0000 0.74220  0.67050  0.44470  Biso   1.000  O
  O250     1.0000 0.69990  0.68310  0.49070  Biso   1.000  O
  O251     1.0000 0.73120  0.57340  0.35160  Biso   1.000  O
  O252     1.0000 0.67890  0.53710  0.34580  Biso   1.000  O
  O253     1.0000 0.79710  0.59130  0.51470  Biso   1.000  O
  O254     1.0000 0.75340  0.57200  0.55850  Biso   1.000  O
  O255     1.0000 0.81050  0.48690  0.41570  Biso   1.000  O
  O256     1.0000 0.77330  0.43620  0.41590  Biso   1.000  O
  Nd33     1.0000 0.54254  0.70156  0.63051  Biso   1.000  Nd
  Nd34     1.0000 0.61930  0.70766  0.54760  Biso   1.000  Nd
  Ge65     1.0000 0.59943  0.71519  0.71648  Biso   1.000  Ge
  Ge66     1.0000 0.63880  0.75445  0.63904  Biso   1.000  Ge
  Ge67     1.0000 0.52872  0.64982  0.54117  Biso   1.000  Ge
  Ge68     1.0000 0.60442  0.61853  0.49561  Biso   1.000  Ge
  C193     1.0000 0.56940  0.74790  0.75200  Biso   1.000  C
  C194     1.0000 0.55440  0.78530  0.73380  Biso   1.000  C
  C195     1.0000 0.53760  0.78120  0.69280  Biso   1.000  C
  C196     1.0000 0.62570  0.81010  0.63630  Biso   1.000  C
  C197     1.0000 0.64800  0.82950  0.60540  Biso   1.000  C
  C198     1.0000 0.64990  0.80670  0.56840  Biso   1.000  C
  C199     1.0000 0.49540  0.68250  0.50970  Biso   1.000  C
  C200     1.0000 0.45590  0.69390  0.52880  Biso   1.000  C
  C201     1.0000 0.46180  0.71630  0.56530  Biso   1.000  C
  C202     1.0000 0.60920  0.62530  0.44040  Biso   1.000  C
  C203     1.0000 0.58390  0.65780  0.42490  Biso   1.000  C
  C204     1.0000 0.58450  0.69390  0.45000  Biso   1.000  C
  O257     1.0000 0.63740  0.74010  0.69010  Biso   1.000  O
  O258     1.0000 0.50410  0.61240  0.56690  Biso   1.000  O
  O259     1.0000 0.55500  0.61430  0.51220  Biso   1.000  O
  O260     1.0000 0.63810  0.69010  0.74310  Biso   1.000  O
  O261     1.0000 0.61200  0.71500  0.61900  Biso   1.000  O
  O262     1.0000 0.57510  0.67980  0.68890  Biso   1.000  O
  O263     1.0000 0.56350  0.67250  0.57060  Biso   1.000  O
  O264     1.0000 0.52790  0.63490  0.64200  Biso   1.000  O
  O265     1.0000 0.55530  0.75780  0.67050  Biso   1.000  O
  O266     1.0000 0.50930  0.80010  0.68310  Biso   1.000  O
  O267     1.0000 0.64840  0.76880  0.57340  Biso   1.000  O
  O268     1.0000 0.65420  0.82110  0.53710  Biso   1.000  O
  O269     1.0000 0.48530  0.70290  0.59130  Biso   1.000  O
  O270     1.0000 0.44150  0.74660  0.57200  Biso   1.000  O
  O271     1.0000 0.58430  0.68950  0.48690  Biso   1.000  O
  O272     1.0000 0.58410  0.72670  0.43620  Biso   1.000  O
  Nd35     1.0000 0.04254  0.20156  0.13051  Biso   1.000  Nd
  Nd36     1.0000 0.11930  0.20766  0.04760  Biso   1.000  Nd
  Ge69     1.0000 0.09943  0.21519  0.21648  Biso   1.000  Ge
  Ge70     1.0000 0.13880  0.25445  0.13904  Biso   1.000  Ge
  Ge71     1.0000 0.02872  0.14982  0.04117  Biso   1.000  Ge
  Ge72     1.0000 0.10442  0.11853  0.99561  Biso   1.000  Ge
  C205     1.0000 0.06940  0.24790  0.25200  Biso   1.000  C
  C206     1.0000 0.05440  0.28530  0.23380  Biso   1.000  C
  C207     1.0000 0.03760  0.28120  0.19280  Biso   1.000  C
  C208     1.0000 0.12570  0.31010  0.13630  Biso   1.000  C
  C209     1.0000 0.14800  0.32950  0.10540  Biso   1.000  C
  C210     1.0000 0.14990  0.30670  0.06840  Biso   1.000  C
  C211     1.0000 0.99540  0.18250  0.00970  Biso   1.000  C
  C212     1.0000 0.95590  0.19390  0.02880  Biso   1.000  C
  C213     1.0000 0.96180  0.21630  0.06530  Biso   1.000  C
  C214     1.0000 0.10920  0.12530  0.94040  Biso   1.000  C
  C215     1.0000 0.08390  0.15780  0.92490  Biso   1.000  C
  C216     1.0000 0.08450  0.19390  0.95000  Biso   1.000  C
  O273     1.0000 0.13740  0.24010  0.19010  Biso   1.000  O
  O274     1.0000 0.00410  0.11240  0.06690  Biso   1.000  O
  O275     1.0000 0.05500  0.11430  0.01220  Biso   1.000  O
  O276     1.0000 0.13810  0.19010  0.24310  Biso   1.000  O
  O277     1.0000 0.11200  0.21500  0.11900  Biso   1.000  O
  O278     1.0000 0.07510  0.17980  0.18890  Biso   1.000  O
  O279     1.0000 0.06350  0.17250  0.07060  Biso   1.000  O
  O280     1.0000 0.02790  0.13490  0.14200  Biso   1.000  O
  O281     1.0000 0.05530  0.25780  0.17050  Biso   1.000  O
  O282     1.0000 0.00930  0.30010  0.18310  Biso   1.000  O
  O283     1.0000 0.14840  0.26880  0.07340  Biso   1.000  O
  O284     1.0000 0.15420  0.32110  0.03710  Biso   1.000  O
  O285     1.0000 0.98530  0.20290  0.09130  Biso   1.000  O
  O286     1.0000 0.94150  0.24660  0.07200  Biso   1.000  O
  O287     1.0000 0.08430  0.18950  0.98690  Biso   1.000  O
  O288     1.0000 0.08410  0.22670  0.93620  Biso   1.000  O
  Nd37     1.0000 0.45746  0.20156  0.86949  Biso   1.000  Nd
  Nd38     1.0000 0.38070  0.20766  0.95240  Biso   1.000  Nd
  Ge73     1.0000 0.40057  0.21519  0.78352  Biso   1.000  Ge
  Ge74     1.0000 0.36120  0.25445  0.86096  Biso   1.000  Ge
  Ge75     1.0000 0.47128  0.14982  0.95883  Biso   1.000  Ge
  Ge76     1.0000 0.39558  0.11853  0.00439  Biso   1.000  Ge
  C217     1.0000 0.43060  0.24790  0.74800  Biso   1.000  C
  C218     1.0000 0.44560  0.28530  0.76620  Biso   1.000  C
  C219     1.0000 0.46240  0.28120  0.80720  Biso   1.000  C
  C220     1.0000 0.37430  0.31010  0.86370  Biso   1.000  C
  C221     1.0000 0.35200  0.32950  0.89460  Biso   1.000  C
  C222     1.0000 0.35010  0.30670  0.93160  Biso   1.000  C
  C223     1.0000 0.50460  0.18250  0.99030  Biso   1.000  C
  C224     1.0000 0.54410  0.19390  0.97120  Biso   1.000  C
  C225     1.0000 0.53820  0.21630  0.93470  Biso   1.000  C
  C226     1.0000 0.39080  0.12530  0.05960  Biso   1.000  C
  C227     1.0000 0.41610  0.15780  0.07510  Biso   1.000  C
  C228     1.0000 0.41550  0.19390  0.05000  Biso   1.000  C
  O289     1.0000 0.36260  0.24010  0.80990  Biso   1.000  O
  O290     1.0000 0.49590  0.11240  0.93310  Biso   1.000  O
  O291     1.0000 0.44500  0.11430  0.98780  Biso   1.000  O
  O292     1.0000 0.36190  0.19010  0.75690  Biso   1.000  O
  O293     1.0000 0.38800  0.21500  0.88100  Biso   1.000  O
  O294     1.0000 0.42490  0.17980  0.81110  Biso   1.000  O
  O295     1.0000 0.43650  0.17250  0.92940  Biso   1.000  O
  O296     1.0000 0.47210  0.13490  0.85800  Biso   1.000  O
  O297     1.0000 0.44470  0.25780  0.82950  Biso   1.000  O
  O298     1.0000 0.49070  0.30010  0.81690  Biso   1.000  O
  O299     1.0000 0.35160  0.26880  0.92660  Biso   1.000  O
  O300     1.0000 0.34580  0.32110  0.96290  Biso   1.000  O
  O301     1.0000 0.51470  0.20290  0.90870  Biso   1.000  O
  O302     1.0000 0.55850  0.24660  0.92800  Biso   1.000  O
  O303     1.0000 0.41570  0.18950  0.01310  Biso   1.000  O
  O304     1.0000 0.41590  0.22670  0.06380  Biso   1.000  O
  Nd39     1.0000 0.95746  0.70156  0.36949  Biso   1.000  Nd
  Nd40     1.0000 0.88070  0.70766  0.45240  Biso   1.000  Nd
  Ge77     1.0000 0.90057  0.71519  0.28352  Biso   1.000  Ge
  Ge78     1.0000 0.86120  0.75445  0.36096  Biso   1.000  Ge
  Ge79     1.0000 0.97128  0.64982  0.45883  Biso   1.000  Ge
  Ge80     1.0000 0.89558  0.61853  0.50439  Biso   1.000  Ge
  C229     1.0000 0.93060  0.74790  0.24800  Biso   1.000  C
  C230     1.0000 0.94560  0.78530  0.26620  Biso   1.000  C
  C231     1.0000 0.96240  0.78120  0.30720  Biso   1.000  C
  C232     1.0000 0.87430  0.81010  0.36370  Biso   1.000  C
  C233     1.0000 0.85200  0.82950  0.39460  Biso   1.000  C
  C234     1.0000 0.85010  0.80670  0.43160  Biso   1.000  C
  C235     1.0000 0.00460  0.68250  0.49030  Biso   1.000  C
  C236     1.0000 0.04410  0.69390  0.47120  Biso   1.000  C
  C237     1.0000 0.03820  0.71630  0.43470  Biso   1.000  C
  C238     1.0000 0.89080  0.62530  0.55960  Biso   1.000  C
  C239     1.0000 0.91610  0.65780  0.57510  Biso   1.000  C
  C240     1.0000 0.91550  0.69390  0.55000  Biso   1.000  C
  O305     1.0000 0.86260  0.74010  0.30990  Biso   1.000  O
  O306     1.0000 0.99590  0.61240  0.43310  Biso   1.000  O
  O307     1.0000 0.94500  0.61430  0.48780  Biso   1.000  O
  O308     1.0000 0.86190  0.69010  0.25690  Biso   1.000  O
  O309     1.0000 0.88800  0.71500  0.38100  Biso   1.000  O
  O310     1.0000 0.92490  0.67980  0.31110  Biso   1.000  O
  O311     1.0000 0.93650  0.67250  0.42940  Biso   1.000  O
  O312     1.0000 0.97210  0.63490  0.35800  Biso   1.000  O
  O313     1.0000 0.94470  0.75780  0.32950  Biso   1.000  O
  O314     1.0000 0.99070  0.80010  0.31690  Biso   1.000  O
  O315     1.0000 0.85160  0.76880  0.42660  Biso   1.000  O
  O316     1.0000 0.84580  0.82110  0.46290  Biso   1.000  O
  O317     1.0000 0.01470  0.70290  0.40870  Biso   1.000  O
  O318     1.0000 0.05850  0.74660  0.42800  Biso   1.000  O
  O319     1.0000 0.91570  0.68950  0.51310  Biso   1.000  O
  O320     1.0000 0.91590  0.72670  0.56380  Biso   1.000  O
  Nd41     1.0000 0.04254  0.79844  0.36949  Biso   1.000  Nd
  Nd42     1.0000 0.11930  0.79234  0.45240  Biso   1.000  Nd
  Ge81     1.0000 0.09943  0.78481  0.28352  Biso   1.000  Ge
  Ge82     1.0000 0.13880  0.74555  0.36096  Biso   1.000  Ge
  Ge83     1.0000 0.02872  0.85018  0.45883  Biso   1.000  Ge
  Ge84     1.0000 0.10442  0.88147  0.50439  Biso   1.000  Ge
  C241     1.0000 0.06940  0.75210  0.24800  Biso   1.000  C
  C242     1.0000 0.05440  0.71470  0.26620  Biso   1.000  C
  C243     1.0000 0.03760  0.71880  0.30720  Biso   1.000  C
  C244     1.0000 0.12570  0.68990  0.36370  Biso   1.000  C
  C245     1.0000 0.14800  0.67050  0.39460  Biso   1.000  C
  C246     1.0000 0.14990  0.69330  0.43160  Biso   1.000  C
  C247     1.0000 0.99540  0.81750  0.49030  Biso   1.000  C
  C248     1.0000 0.95590  0.80610  0.47120  Biso   1.000  C
  C249     1.0000 0.96180  0.78370  0.43470  Biso   1.000  C
  C250     1.0000 0.10920  0.87470  0.55960  Biso   1.000  C
  C251     1.0000 0.08390  0.84220  0.57510  Biso   1.000  C
  C252     1.0000 0.08450  0.80610  0.55000  Biso   1.000  C
  O321     1.0000 0.13740  0.75990  0.30990  Biso   1.000  O
  O322     1.0000 0.00410  0.88760  0.43310  Biso   1.000  O
  O323     1.0000 0.05500  0.88570  0.48780  Biso   1.000  O
  O324     1.0000 0.13810  0.80990  0.25690  Biso   1.000  O
  O325     1.0000 0.11200  0.78500  0.38100  Biso   1.000  O
  O326     1.0000 0.07510  0.82020  0.31110  Biso   1.000  O
  O327     1.0000 0.06350  0.82750  0.42940  Biso   1.000  O
  O328     1.0000 0.02790  0.86510  0.35800  Biso   1.000  O
  O329     1.0000 0.05530  0.74220  0.32950  Biso   1.000  O
  O330     1.0000 0.00930  0.69990  0.31690  Biso   1.000  O
  O331     1.0000 0.14840  0.73120  0.42660  Biso   1.000  O
  O332     1.0000 0.15420  0.67890  0.46290  Biso   1.000  O
  O333     1.0000 0.98530  0.79710  0.40870  Biso   1.000  O
  O334     1.0000 0.94150  0.75340  0.42800  Biso   1.000  O
  O335     1.0000 0.08430  0.81050  0.51310  Biso   1.000  O
  O336     1.0000 0.08410  0.77330  0.56380  Biso   1.000  O
  Nd43     1.0000 0.54254  0.29844  0.86949  Biso   1.000  Nd
  Nd44     1.0000 0.61930  0.29234  0.95240  Biso   1.000  Nd
  Ge85     1.0000 0.59943  0.28481  0.78352  Biso   1.000  Ge
  Ge86     1.0000 0.63880  0.24555  0.86096  Biso   1.000  Ge
  Ge87     1.0000 0.52872  0.35018  0.95883  Biso   1.000  Ge
  Ge88     1.0000 0.60442  0.38147  0.00439  Biso   1.000  Ge
  C253     1.0000 0.56940  0.25210  0.74800  Biso   1.000  C
  C254     1.0000 0.55440  0.21470  0.76620  Biso   1.000  C
  C255     1.0000 0.53760  0.21880  0.80720  Biso   1.000  C
  C256     1.0000 0.62570  0.18990  0.86370  Biso   1.000  C
  C257     1.0000 0.64800  0.17050  0.89460  Biso   1.000  C
  C258     1.0000 0.64990  0.19330  0.93160  Biso   1.000  C
  C259     1.0000 0.49540  0.31750  0.99030  Biso   1.000  C
  C260     1.0000 0.45590  0.30610  0.97120  Biso   1.000  C
  C261     1.0000 0.46180  0.28370  0.93470  Biso   1.000  C
  C262     1.0000 0.60920  0.37470  0.05960  Biso   1.000  C
  C263     1.0000 0.58390  0.34220  0.07510  Biso   1.000  C
  C264     1.0000 0.58450  0.30610  0.05000  Biso   1.000  C
  O337     1.0000 0.63740  0.25990  0.80990  Biso   1.000  O
  O338     1.0000 0.50410  0.38760  0.93310  Biso   1.000  O
  O339     1.0000 0.55500  0.38570  0.98780  Biso   1.000  O
  O340     1.0000 0.63810  0.30990  0.75690  Biso   1.000  O
  O341     1.0000 0.61200  0.28500  0.88100  Biso   1.000  O
  O342     1.0000 0.57510  0.32020  0.81110  Biso   1.000  O
  O343     1.0000 0.56350  0.32750  0.92940  Biso   1.000  O
  O344     1.0000 0.52790  0.36510  0.85800  Biso   1.000  O
  O345     1.0000 0.55530  0.24220  0.82950  Biso   1.000  O
  O346     1.0000 0.50930  0.19990  0.81690  Biso   1.000  O
  O347     1.0000 0.64840  0.23120  0.92660  Biso   1.000  O
  O348     1.0000 0.65420  0.17890  0.96290  Biso   1.000  O
  O349     1.0000 0.48530  0.29710  0.90870  Biso   1.000  O
  O350     1.0000 0.44150  0.25340  0.92800  Biso   1.000  O
  O351     1.0000 0.58430  0.31050  0.01310  Biso   1.000  O
  O352     1.0000 0.58410  0.27330  0.06380  Biso   1.000  O
  Nd45     1.0000 0.95746  0.29844  0.13051  Biso   1.000  Nd
  Nd46     1.0000 0.88070  0.29234  0.04760  Biso   1.000  Nd
  Ge89     1.0000 0.90057  0.28481  0.21648  Biso   1.000  Ge
  Ge90     1.0000 0.86120  0.24555  0.13904  Biso   1.000  Ge
  Ge91     1.0000 0.97128  0.35018  0.04117  Biso   1.000  Ge
  Ge92     1.0000 0.89558  0.38147  0.99561  Biso   1.000  Ge
  C265     1.0000 0.93060  0.25210  0.25200  Biso   1.000  C
  C266     1.0000 0.94560  0.21470  0.23380  Biso   1.000  C
  C267     1.0000 0.96240  0.21880  0.19280  Biso   1.000  C
  C268     1.0000 0.87430  0.18990  0.13630  Biso   1.000  C
  C269     1.0000 0.85200  0.17050  0.10540  Biso   1.000  C
  C270     1.0000 0.85010  0.19330  0.06840  Biso   1.000  C
  C271     1.0000 0.00460  0.31750  0.00970  Biso   1.000  C
  C272     1.0000 0.04410  0.30610  0.02880  Biso   1.000  C
  C273     1.0000 0.03820  0.28370  0.06530  Biso   1.000  C
  C274     1.0000 0.89080  0.37470  0.94040  Biso   1.000  C
  C275     1.0000 0.91610  0.34220  0.92490  Biso   1.000  C
  C276     1.0000 0.91550  0.30610  0.95000  Biso   1.000  C
  O353     1.0000 0.86260  0.25990  0.19010  Biso   1.000  O
  O354     1.0000 0.99590  0.38760  0.06690  Biso   1.000  O
  O355     1.0000 0.94500  0.38570  0.01220  Biso   1.000  O
  O356     1.0000 0.86190  0.30990  0.24310  Biso   1.000  O
  O357     1.0000 0.88800  0.28500  0.11900  Biso   1.000  O
  O358     1.0000 0.92490  0.32020  0.18890  Biso   1.000  O
  O359     1.0000 0.93650  0.32750  0.07060  Biso   1.000  O
  O360     1.0000 0.97210  0.36510  0.14200  Biso   1.000  O
  O361     1.0000 0.94470  0.24220  0.17050  Biso   1.000  O
  O362     1.0000 0.99070  0.19990  0.18310  Biso   1.000  O
  O363     1.0000 0.85160  0.23120  0.07340  Biso   1.000  O
  O364     1.0000 0.84580  0.17890  0.03710  Biso   1.000  O
  O365     1.0000 0.01470  0.29710  0.09130  Biso   1.000  O
  O366     1.0000 0.05850  0.25340  0.07200  Biso   1.000  O
  O367     1.0000 0.91570  0.31050  0.98690  Biso   1.000  O
  O368     1.0000 0.91590  0.27330  0.93620  Biso   1.000  O
  Nd47     1.0000 0.45746  0.79844  0.63051  Biso   1.000  Nd
  Nd48     1.0000 0.38070  0.79234  0.54760  Biso   1.000  Nd
  Ge93     1.0000 0.40057  0.78481  0.71648  Biso   1.000  Ge
  Ge94     1.0000 0.36120  0.74555  0.63904  Biso   1.000  Ge
  Ge95     1.0000 0.47128  0.85018  0.54117  Biso   1.000  Ge
  Ge96     1.0000 0.39558  0.88147  0.49561  Biso   1.000  Ge
  C277     1.0000 0.43060  0.75210  0.75200  Biso   1.000  C
  C278     1.0000 0.44560  0.71470  0.73380  Biso   1.000  C
  C279     1.0000 0.46240  0.71880  0.69280  Biso   1.000  C
  C280     1.0000 0.37430  0.68990  0.63630  Biso   1.000  C
  C281     1.0000 0.35200  0.67050  0.60540  Biso   1.000  C
  C282     1.0000 0.35010  0.69330  0.56840  Biso   1.000  C
  C283     1.0000 0.50460  0.81750  0.50970  Biso   1.000  C
  C284     1.0000 0.54410  0.80610  0.52880  Biso   1.000  C
  C285     1.0000 0.53820  0.78370  0.56530  Biso   1.000  C
  C286     1.0000 0.39080  0.87470  0.44040  Biso   1.000  C
  C287     1.0000 0.41610  0.84220  0.42490  Biso   1.000  C
  C288     1.0000 0.41550  0.80610  0.45000  Biso   1.000  C
  O369     1.0000 0.36260  0.75990  0.69010  Biso   1.000  O
  O370     1.0000 0.49590  0.88760  0.56690  Biso   1.000  O
  O371     1.0000 0.44500  0.88570  0.51220  Biso   1.000  O
  O372     1.0000 0.36190  0.80990  0.74310  Biso   1.000  O
  O373     1.0000 0.38800  0.78500  0.61900  Biso   1.000  O
  O374     1.0000 0.42490  0.82020  0.68890  Biso   1.000  O
  O375     1.0000 0.43650  0.82750  0.57060  Biso   1.000  O
  O376     1.0000 0.47210  0.86510  0.64200  Biso   1.000  O
  O377     1.0000 0.44470  0.74220  0.67050  Biso   1.000  O
  O378     1.0000 0.49070  0.69990  0.68310  Biso   1.000  O
  O379     1.0000 0.35160  0.73120  0.57340  Biso   1.000  O
  O380     1.0000 0.34580  0.67890  0.53710  Biso   1.000  O
  O381     1.0000 0.51470  0.79710  0.59130  Biso   1.000  O
  O382     1.0000 0.55850  0.75340  0.57200  Biso   1.000  O
  O383     1.0000 0.41570  0.81050  0.48690  Biso   1.000  O
  O384     1.0000 0.41590  0.77330  0.43620  Biso   1.000  O
  Nd49     1.0000 0.69885  0.69885  0.69885  Biso   1.000  Nd
  Nd50     1.0000 0.54988  0.54988  0.54988  Biso   1.000  Nd
  Nd51     1.0000 0.19885  0.19885  0.19885  Biso   1.000  Nd
  Nd52     1.0000 0.04988  0.04988  0.04988  Biso   1.000  Nd
  Nd53     1.0000 0.80115  0.30115  0.19885  Biso   1.000  Nd
  Nd54     1.0000 0.95012  0.45012  0.04988  Biso   1.000  Nd
  Nd55     1.0000 0.30115  0.80115  0.69885  Biso   1.000  Nd
  Nd56     1.0000 0.45012  0.95012  0.54988  Biso   1.000  Nd
  Nd57     1.0000 0.30115  0.19885  0.80115  Biso   1.000  Nd
  Nd58     1.0000 0.45012  0.04988  0.95012  Biso   1.000  Nd
  Nd59     1.0000 0.80115  0.69885  0.30115  Biso   1.000  Nd
  Nd60     1.0000 0.95012  0.54988  0.45012  Biso   1.000  Nd
  Nd61     1.0000 0.19885  0.80115  0.30115  Biso   1.000  Nd
  Nd62     1.0000 0.04988  0.95012  0.45012  Biso   1.000  Nd
  Nd63     1.0000 0.69885  0.30115  0.80115  Biso   1.000  Nd
  Nd64     1.0000 0.54988  0.45012  0.95012  Biso   1.000  Nd
  Nd65     1.0000 0.36949  0.45746  0.29844  Biso   1.000  Nd
  Nd66     1.0000 0.45240  0.38070  0.29234  Biso   1.000  Nd
  Ge97     1.0000 0.28352  0.40057  0.28481  Biso   1.000  Ge
  Ge98     1.0000 0.36096  0.36120  0.24555  Biso   1.000  Ge
  Ge99     1.0000 0.45883  0.47128  0.35018  Biso   1.000  Ge
  Ge100    1.0000 0.50439  0.39558  0.38147  Biso   1.000  Ge
  C289     1.0000 0.24800  0.43060  0.25210  Biso   1.000  C
  C290     1.0000 0.26620  0.44560  0.21470  Biso   1.000  C
  C291     1.0000 0.30720  0.46240  0.21880  Biso   1.000  C
  C292     1.0000 0.36370  0.37430  0.18990  Biso   1.000  C
  C293     1.0000 0.39460  0.35200  0.17050  Biso   1.000  C
  C294     1.0000 0.43160  0.35010  0.19330  Biso   1.000  C
  C295     1.0000 0.49030  0.50460  0.31750  Biso   1.000  C
  C296     1.0000 0.47120  0.54410  0.30610  Biso   1.000  C
  C297     1.0000 0.43470  0.53820  0.28370  Biso   1.000  C
  C298     1.0000 0.55960  0.39080  0.37470  Biso   1.000  C
  C299     1.0000 0.57510  0.41610  0.34220  Biso   1.000  C
  C300     1.0000 0.55000  0.41550  0.30610  Biso   1.000  C
  O385     1.0000 0.30990  0.36260  0.25990  Biso   1.000  O
  O386     1.0000 0.43310  0.49590  0.38760  Biso   1.000  O
  O387     1.0000 0.48780  0.44500  0.38570  Biso   1.000  O
  O388     1.0000 0.25690  0.36190  0.30990  Biso   1.000  O
  O389     1.0000 0.38100  0.38800  0.28500  Biso   1.000  O
  O390     1.0000 0.31110  0.42490  0.32020  Biso   1.000  O
  O391     1.0000 0.42940  0.43650  0.32750  Biso   1.000  O
  O392     1.0000 0.35800  0.47210  0.36510  Biso   1.000  O
  O393     1.0000 0.32950  0.44470  0.24220  Biso   1.000  O
  O394     1.0000 0.31690  0.49070  0.19990  Biso   1.000  O
  O395     1.0000 0.42660  0.35160  0.23120  Biso   1.000  O
  O396     1.0000 0.46290  0.34580  0.17890  Biso   1.000  O
  O397     1.0000 0.40870  0.51470  0.29710  Biso   1.000  O
  O398     1.0000 0.42800  0.55850  0.25340  Biso   1.000  O
  O399     1.0000 0.51310  0.41570  0.31050  Biso   1.000  O
  O400     1.0000 0.56380  0.41590  0.27330  Biso   1.000  O
  Nd67     1.0000 0.86949  0.95746  0.79844  Biso   1.000  Nd
  Nd68     1.0000 0.95240  0.88070  0.79234  Biso   1.000  Nd
  Ge101    1.0000 0.78352  0.90057  0.78481  Biso   1.000  Ge
  Ge102    1.0000 0.86096  0.86120  0.74555  Biso   1.000  Ge
  Ge103    1.0000 0.95883  0.97128  0.85018  Biso   1.000  Ge
  Ge104    1.0000 0.00439  0.89558  0.88147  Biso   1.000  Ge
  C301     1.0000 0.74800  0.93060  0.75210  Biso   1.000  C
  C302     1.0000 0.76620  0.94560  0.71470  Biso   1.000  C
  C303     1.0000 0.80720  0.96240  0.71880  Biso   1.000  C
  C304     1.0000 0.86370  0.87430  0.68990  Biso   1.000  C
  C305     1.0000 0.89460  0.85200  0.67050  Biso   1.000  C
  C306     1.0000 0.93160  0.85010  0.69330  Biso   1.000  C
  C307     1.0000 0.99030  0.00460  0.81750  Biso   1.000  C
  C308     1.0000 0.97120  0.04410  0.80610  Biso   1.000  C
  C309     1.0000 0.93470  0.03820  0.78370  Biso   1.000  C
  C310     1.0000 0.05960  0.89080  0.87470  Biso   1.000  C
  C311     1.0000 0.07510  0.91610  0.84220  Biso   1.000  C
  C312     1.0000 0.05000  0.91550  0.80610  Biso   1.000  C
  O401     1.0000 0.80990  0.86260  0.75990  Biso   1.000  O
  O402     1.0000 0.93310  0.99590  0.88760  Biso   1.000  O
  O403     1.0000 0.98780  0.94500  0.88570  Biso   1.000  O
  O404     1.0000 0.75690  0.86190  0.80990  Biso   1.000  O
  O405     1.0000 0.88100  0.88800  0.78500  Biso   1.000  O
  O406     1.0000 0.81110  0.92490  0.82020  Biso   1.000  O
  O407     1.0000 0.92940  0.93650  0.82750  Biso   1.000  O
  O408     1.0000 0.85800  0.97210  0.86510  Biso   1.000  O
  O409     1.0000 0.82950  0.94470  0.74220  Biso   1.000  O
  O410     1.0000 0.81690  0.99070  0.69990  Biso   1.000  O
  O411     1.0000 0.92660  0.85160  0.73120  Biso   1.000  O
  O412     1.0000 0.96290  0.84580  0.67890  Biso   1.000  O
  O413     1.0000 0.90870  0.01470  0.79710  Biso   1.000  O
  O414     1.0000 0.92800  0.05850  0.75340  Biso   1.000  O
  O415     1.0000 0.01310  0.91570  0.81050  Biso   1.000  O
  O416     1.0000 0.06380  0.91590  0.77330  Biso   1.000  O
  Nd69     1.0000 0.13051  0.54254  0.79844  Biso   1.000  Nd
  Nd70     1.0000 0.04760  0.61930  0.79234  Biso   1.000  Nd
  Ge105    1.0000 0.21648  0.59943  0.78481  Biso   1.000  Ge
  Ge106    1.0000 0.13904  0.63880  0.74555  Biso   1.000  Ge
  Ge107    1.0000 0.04117  0.52872  0.85018  Biso   1.000  Ge
  Ge108    1.0000 0.99561  0.60442  0.88147  Biso   1.000  Ge
  C313     1.0000 0.25200  0.56940  0.75210  Biso   1.000  C
  C314     1.0000 0.23380  0.55440  0.71470  Biso   1.000  C
  C315     1.0000 0.19280  0.53760  0.71880  Biso   1.000  C
  C316     1.0000 0.13630  0.62570  0.68990  Biso   1.000  C
  C317     1.0000 0.10540  0.64800  0.67050  Biso   1.000  C
  C318     1.0000 0.06840  0.64990  0.69330  Biso   1.000  C
  C319     1.0000 0.00970  0.49540  0.81750  Biso   1.000  C
  C320     1.0000 0.02880  0.45590  0.80610  Biso   1.000  C
  C321     1.0000 0.06530  0.46180  0.78370  Biso   1.000  C
  C322     1.0000 0.94040  0.60920  0.87470  Biso   1.000  C
  C323     1.0000 0.92490  0.58390  0.84220  Biso   1.000  C
  C324     1.0000 0.95000  0.58450  0.80610  Biso   1.000  C
  O417     1.0000 0.19010  0.63740  0.75990  Biso   1.000  O
  O418     1.0000 0.06690  0.50410  0.88760  Biso   1.000  O
  O419     1.0000 0.01220  0.55500  0.88570  Biso   1.000  O
  O420     1.0000 0.24310  0.63810  0.80990  Biso   1.000  O
  O421     1.0000 0.11900  0.61200  0.78500  Biso   1.000  O
  O422     1.0000 0.18890  0.57510  0.82020  Biso   1.000  O
  O423     1.0000 0.07060  0.56350  0.82750  Biso   1.000  O
  O424     1.0000 0.14200  0.52790  0.86510  Biso   1.000  O
  O425     1.0000 0.17050  0.55530  0.74220  Biso   1.000  O
  O426     1.0000 0.18310  0.50930  0.69990  Biso   1.000  O
  O427     1.0000 0.07340  0.64840  0.73120  Biso   1.000  O
  O428     1.0000 0.03710  0.65420  0.67890  Biso   1.000  O
  O429     1.0000 0.09130  0.48530  0.79710  Biso   1.000  O
  O430     1.0000 0.07200  0.44150  0.75340  Biso   1.000  O
  O431     1.0000 0.98690  0.58430  0.81050  Biso   1.000  O
  O432     1.0000 0.93620  0.58410  0.77330  Biso   1.000  O
  Nd71     1.0000 0.63051  0.04254  0.29844  Biso   1.000  Nd
  Nd72     1.0000 0.54760  0.11930  0.29234  Biso   1.000  Nd
  Ge109    1.0000 0.71648  0.09943  0.28481  Biso   1.000  Ge
  Ge110    1.0000 0.63904  0.13880  0.24555  Biso   1.000  Ge
  Ge111    1.0000 0.54117  0.02872  0.35018  Biso   1.000  Ge
  Ge112    1.0000 0.49561  0.10442  0.38147  Biso   1.000  Ge
  C325     1.0000 0.75200  0.06940  0.25210  Biso   1.000  C
  C326     1.0000 0.73380  0.05440  0.21470  Biso   1.000  C
  C327     1.0000 0.69280  0.03760  0.21880  Biso   1.000  C
  C328     1.0000 0.63630  0.12570  0.18990  Biso   1.000  C
  C329     1.0000 0.60540  0.14800  0.17050  Biso   1.000  C
  C330     1.0000 0.56840  0.14990  0.19330  Biso   1.000  C
  C331     1.0000 0.50970  0.99540  0.31750  Biso   1.000  C
  C332     1.0000 0.52880  0.95590  0.30610  Biso   1.000  C
  C333     1.0000 0.56530  0.96180  0.28370  Biso   1.000  C
  C334     1.0000 0.44040  0.10920  0.37470  Biso   1.000  C
  C335     1.0000 0.42490  0.08390  0.34220  Biso   1.000  C
  C336     1.0000 0.45000  0.08450  0.30610  Biso   1.000  C
  O433     1.0000 0.69010  0.13740  0.25990  Biso   1.000  O
  O434     1.0000 0.56690  0.00410  0.38760  Biso   1.000  O
  O435     1.0000 0.51220  0.05500  0.38570  Biso   1.000  O
  O436     1.0000 0.74310  0.13810  0.30990  Biso   1.000  O
  O437     1.0000 0.61900  0.11200  0.28500  Biso   1.000  O
  O438     1.0000 0.68890  0.07510  0.32020  Biso   1.000  O
  O439     1.0000 0.57060  0.06350  0.32750  Biso   1.000  O
  O440     1.0000 0.64200  0.02790  0.36510  Biso   1.000  O
  O441     1.0000 0.67050  0.05530  0.24220  Biso   1.000  O
  O442     1.0000 0.68310  0.00930  0.19990  Biso   1.000  O
  O443     1.0000 0.57340  0.14840  0.23120  Biso   1.000  O
  O444     1.0000 0.53710  0.15420  0.17890  Biso   1.000  O
  O445     1.0000 0.59130  0.98530  0.29710  Biso   1.000  O
  O446     1.0000 0.57200  0.94150  0.25340  Biso   1.000  O
  O447     1.0000 0.48690  0.08430  0.31050  Biso   1.000  O
  O448     1.0000 0.43620  0.08410  0.27330  Biso   1.000  O
  Nd73     1.0000 0.63051  0.95746  0.20156  Biso   1.000  Nd
  Nd74     1.0000 0.54760  0.88070  0.20766  Biso   1.000  Nd
  Ge113    1.0000 0.71648  0.90057  0.21519  Biso   1.000  Ge
  Ge114    1.0000 0.63904  0.86120  0.25445  Biso   1.000  Ge
  Ge115    1.0000 0.54117  0.97128  0.14982  Biso   1.000  Ge
  Ge116    1.0000 0.49561  0.89558  0.11853  Biso   1.000  Ge
  C337     1.0000 0.75200  0.93060  0.24790  Biso   1.000  C
  C338     1.0000 0.73380  0.94560  0.28530  Biso   1.000  C
  C339     1.0000 0.69280  0.96240  0.28120  Biso   1.000  C
  C340     1.0000 0.63630  0.87430  0.31010  Biso   1.000  C
  C341     1.0000 0.60540  0.85200  0.32950  Biso   1.000  C
  C342     1.0000 0.56840  0.85010  0.30670  Biso   1.000  C
  C343     1.0000 0.50970  0.00460  0.18250  Biso   1.000  C
  C344     1.0000 0.52880  0.04410  0.19390  Biso   1.000  C
  C345     1.0000 0.56530  0.03820  0.21630  Biso   1.000  C
  C346     1.0000 0.44040  0.89080  0.12530  Biso   1.000  C
  C347     1.0000 0.42490  0.91610  0.15780  Biso   1.000  C
  C348     1.0000 0.45000  0.91550  0.19390  Biso   1.000  C
  O449     1.0000 0.69010  0.86260  0.24010  Biso   1.000  O
  O450     1.0000 0.56690  0.99590  0.11240  Biso   1.000  O
  O451     1.0000 0.51220  0.94500  0.11430  Biso   1.000  O
  O452     1.0000 0.74310  0.86190  0.19010  Biso   1.000  O
  O453     1.0000 0.61900  0.88800  0.21500  Biso   1.000  O
  O454     1.0000 0.68890  0.92490  0.17980  Biso   1.000  O
  O455     1.0000 0.57060  0.93650  0.17250  Biso   1.000  O
  O456     1.0000 0.64200  0.97210  0.13490  Biso   1.000  O
  O457     1.0000 0.67050  0.94470  0.25780  Biso   1.000  O
  O458     1.0000 0.68310  0.99070  0.30010  Biso   1.000  O
  O459     1.0000 0.57340  0.85160  0.26880  Biso   1.000  O
  O460     1.0000 0.53710  0.84580  0.32110  Biso   1.000  O
  O461     1.0000 0.59130  0.01470  0.20290  Biso   1.000  O
  O462     1.0000 0.57200  0.05850  0.24660  Biso   1.000  O
  O463     1.0000 0.48690  0.91570  0.18950  Biso   1.000  O
  O464     1.0000 0.43620  0.91590  0.22670  Biso   1.000  O
  Nd75     1.0000 0.13051  0.45746  0.70156  Biso   1.000  Nd
  Nd76     1.0000 0.04760  0.38070  0.70766  Biso   1.000  Nd
  Ge117    1.0000 0.21648  0.40057  0.71519  Biso   1.000  Ge
  Ge118    1.0000 0.13904  0.36120  0.75445  Biso   1.000  Ge
  Ge119    1.0000 0.04117  0.47128  0.64982  Biso   1.000  Ge
  Ge120    1.0000 0.99561  0.39558  0.61853  Biso   1.000  Ge
  C349     1.0000 0.25200  0.43060  0.74790  Biso   1.000  C
  C350     1.0000 0.23380  0.44560  0.78530  Biso   1.000  C
  C351     1.0000 0.19280  0.46240  0.78120  Biso   1.000  C
  C352     1.0000 0.13630  0.37430  0.81010  Biso   1.000  C
  C353     1.0000 0.10540  0.35200  0.82950  Biso   1.000  C
  C354     1.0000 0.06840  0.35010  0.80670  Biso   1.000  C
  C355     1.0000 0.00970  0.50460  0.68250  Biso   1.000  C
  C356     1.0000 0.02880  0.54410  0.69390  Biso   1.000  C
  C357     1.0000 0.06530  0.53820  0.71630  Biso   1.000  C
  C358     1.0000 0.94040  0.39080  0.62530  Biso   1.000  C
  C359     1.0000 0.92490  0.41610  0.65780  Biso   1.000  C
  C360     1.0000 0.95000  0.41550  0.69390  Biso   1.000  C
  O465     1.0000 0.19010  0.36260  0.74010  Biso   1.000  O
  O466     1.0000 0.06690  0.49590  0.61240  Biso   1.000  O
  O467     1.0000 0.01220  0.44500  0.61430  Biso   1.000  O
  O468     1.0000 0.24310  0.36190  0.69010  Biso   1.000  O
  O469     1.0000 0.11900  0.38800  0.71500  Biso   1.000  O
  O470     1.0000 0.18890  0.42490  0.67980  Biso   1.000  O
  O471     1.0000 0.07060  0.43650  0.67250  Biso   1.000  O
  O472     1.0000 0.14200  0.47210  0.63490  Biso   1.000  O
  O473     1.0000 0.17050  0.44470  0.75780  Biso   1.000  O
  O474     1.0000 0.18310  0.49070  0.80010  Biso   1.000  O
  O475     1.0000 0.07340  0.35160  0.76880  Biso   1.000  O
  O476     1.0000 0.03710  0.34580  0.82110  Biso   1.000  O
  O477     1.0000 0.09130  0.51470  0.70290  Biso   1.000  O
  O478     1.0000 0.07200  0.55850  0.74660  Biso   1.000  O
  O479     1.0000 0.98690  0.41570  0.68950  Biso   1.000  O
  O480     1.0000 0.93620  0.41590  0.72670  Biso   1.000  O
  Nd77     1.0000 0.86949  0.04254  0.70156  Biso   1.000  Nd
  Nd78     1.0000 0.95240  0.11930  0.70766  Biso   1.000  Nd
  Ge121    1.0000 0.78352  0.09943  0.71519  Biso   1.000  Ge
  Ge122    1.0000 0.86096  0.13880  0.75445  Biso   1.000  Ge
  Ge123    1.0000 0.95883  0.02872  0.64982  Biso   1.000  Ge
  Ge124    1.0000 0.00439  0.10442  0.61853  Biso   1.000  Ge
  C361     1.0000 0.74800  0.06940  0.74790  Biso   1.000  C
  C362     1.0000 0.76620  0.05440  0.78530  Biso   1.000  C
  C363     1.0000 0.80720  0.03760  0.78120  Biso   1.000  C
  C364     1.0000 0.86370  0.12570  0.81010  Biso   1.000  C
  C365     1.0000 0.89460  0.14800  0.82950  Biso   1.000  C
  C366     1.0000 0.93160  0.14990  0.80670  Biso   1.000  C
  C367     1.0000 0.99030  0.99540  0.68250  Biso   1.000  C
  C368     1.0000 0.97120  0.95590  0.69390  Biso   1.000  C
  C369     1.0000 0.93470  0.96180  0.71630  Biso   1.000  C
  C370     1.0000 0.05960  0.10920  0.62530  Biso   1.000  C
  C371     1.0000 0.07510  0.08390  0.65780  Biso   1.000  C
  C372     1.0000 0.05000  0.08450  0.69390  Biso   1.000  C
  O481     1.0000 0.80990  0.13740  0.74010  Biso   1.000  O
  O482     1.0000 0.93310  0.00410  0.61240  Biso   1.000  O
  O483     1.0000 0.98780  0.05500  0.61430  Biso   1.000  O
  O484     1.0000 0.75690  0.13810  0.69010  Biso   1.000  O
  O485     1.0000 0.88100  0.11200  0.71500  Biso   1.000  O
  O486     1.0000 0.81110  0.07510  0.67980  Biso   1.000  O
  O487     1.0000 0.92940  0.06350  0.67250  Biso   1.000  O
  O488     1.0000 0.85800  0.02790  0.63490  Biso   1.000  O
  O489     1.0000 0.82950  0.05530  0.75780  Biso   1.000  O
  O490     1.0000 0.81690  0.00930  0.80010  Biso   1.000  O
  O491     1.0000 0.92660  0.14840  0.76880  Biso   1.000  O
  O492     1.0000 0.96290  0.15420  0.82110  Biso   1.000  O
  O493     1.0000 0.90870  0.98530  0.70290  Biso   1.000  O
  O494     1.0000 0.92800  0.94150  0.74660  Biso   1.000  O
  O495     1.0000 0.01310  0.08430  0.68950  Biso   1.000  O
  O496     1.0000 0.06380  0.08410  0.72670  Biso   1.000  O
  Nd79     1.0000 0.36949  0.54254  0.20156  Biso   1.000  Nd
  Nd80     1.0000 0.45240  0.61930  0.20766  Biso   1.000  Nd
  Ge125    1.0000 0.28352  0.59943  0.21519  Biso   1.000  Ge
  Ge126    1.0000 0.36096  0.63880  0.25445  Biso   1.000  Ge
  Ge127    1.0000 0.45883  0.52872  0.14982  Biso   1.000  Ge
  Ge128    1.0000 0.50439  0.60442  0.11853  Biso   1.000  Ge
  C373     1.0000 0.24800  0.56940  0.24790  Biso   1.000  C
  C374     1.0000 0.26620  0.55440  0.28530  Biso   1.000  C
  C375     1.0000 0.30720  0.53760  0.28120  Biso   1.000  C
  C376     1.0000 0.36370  0.62570  0.31010  Biso   1.000  C
  C377     1.0000 0.39460  0.64800  0.32950  Biso   1.000  C
  C378     1.0000 0.43160  0.64990  0.30670  Biso   1.000  C
  C379     1.0000 0.49030  0.49540  0.18250  Biso   1.000  C
  C380     1.0000 0.47120  0.45590  0.19390  Biso   1.000  C
  C381     1.0000 0.43470  0.46180  0.21630  Biso   1.000  C
  C382     1.0000 0.55960  0.60920  0.12530  Biso   1.000  C
  C383     1.0000 0.57510  0.58390  0.15780  Biso   1.000  C
  C384     1.0000 0.55000  0.58450  0.19390  Biso   1.000  C
  O497     1.0000 0.30990  0.63740  0.24010  Biso   1.000  O
  O498     1.0000 0.43310  0.50410  0.11240  Biso   1.000  O
  O499     1.0000 0.48780  0.55500  0.11430  Biso   1.000  O
  O500     1.0000 0.25690  0.63810  0.19010  Biso   1.000  O
  O501     1.0000 0.38100  0.61200  0.21500  Biso   1.000  O
  O502     1.0000 0.31110  0.57510  0.17980  Biso   1.000  O
  O503     1.0000 0.42940  0.56350  0.17250  Biso   1.000  O
  O504     1.0000 0.35800  0.52790  0.13490  Biso   1.000  O
  O505     1.0000 0.32950  0.55530  0.25780  Biso   1.000  O
  O506     1.0000 0.31690  0.50930  0.30010  Biso   1.000  O
  O507     1.0000 0.42660  0.64840  0.26880  Biso   1.000  O
  O508     1.0000 0.46290  0.65420  0.32110  Biso   1.000  O
  O509     1.0000 0.40870  0.48530  0.20290  Biso   1.000  O
  O510     1.0000 0.42800  0.44150  0.24660  Biso   1.000  O
  O511     1.0000 0.51310  0.58430  0.18950  Biso   1.000  O
  O512     1.0000 0.56380  0.58410  0.22670  Biso   1.000  O
  Nd81     1.0000 0.29844  0.36949  0.45746  Biso   1.000  Nd
  Nd82     1.0000 0.29234  0.45240  0.38070  Biso   1.000  Nd
  Ge129    1.0000 0.28481  0.28352  0.40057  Biso   1.000  Ge
  Ge130    1.0000 0.24555  0.36096  0.36120  Biso   1.000  Ge
  Ge131    1.0000 0.35018  0.45883  0.47128  Biso   1.000  Ge
  Ge132    1.0000 0.38147  0.50439  0.39558  Biso   1.000  Ge
  C385     1.0000 0.25210  0.24800  0.43060  Biso   1.000  C
  C386     1.0000 0.21470  0.26620  0.44560  Biso   1.000  C
  C387     1.0000 0.21880  0.30720  0.46240  Biso   1.000  C
  C388     1.0000 0.18990  0.36370  0.37430  Biso   1.000  C
  C389     1.0000 0.17050  0.39460  0.35200  Biso   1.000  C
  C390     1.0000 0.19330  0.43160  0.35010  Biso   1.000  C
  C391     1.0000 0.31750  0.49030  0.50460  Biso   1.000  C
  C392     1.0000 0.30610  0.47120  0.54410  Biso   1.000  C
  C393     1.0000 0.28370  0.43470  0.53820  Biso   1.000  C
  C394     1.0000 0.37470  0.55960  0.39080  Biso   1.000  C
  C395     1.0000 0.34220  0.57510  0.41610  Biso   1.000  C
  C396     1.0000 0.30610  0.55000  0.41550  Biso   1.000  C
  O513     1.0000 0.25990  0.30990  0.36260  Biso   1.000  O
  O514     1.0000 0.38760  0.43310  0.49590  Biso   1.000  O
  O515     1.0000 0.38570  0.48780  0.44500  Biso   1.000  O
  O516     1.0000 0.30990  0.25690  0.36190  Biso   1.000  O
  O517     1.0000 0.28500  0.38100  0.38800  Biso   1.000  O
  O518     1.0000 0.32020  0.31110  0.42490  Biso   1.000  O
  O519     1.0000 0.32750  0.42940  0.43650  Biso   1.000  O
  O520     1.0000 0.36510  0.35800  0.47210  Biso   1.000  O
  O521     1.0000 0.24220  0.32950  0.44470  Biso   1.000  O
  O522     1.0000 0.19990  0.31690  0.49070  Biso   1.000  O
  O523     1.0000 0.23120  0.42660  0.35160  Biso   1.000  O
  O524     1.0000 0.17890  0.46290  0.34580  Biso   1.000  O
  O525     1.0000 0.29710  0.40870  0.51470  Biso   1.000  O
  O526     1.0000 0.25340  0.42800  0.55850  Biso   1.000  O
  O527     1.0000 0.31050  0.51310  0.41570  Biso   1.000  O
  O528     1.0000 0.27330  0.56380  0.41590  Biso   1.000  O
  Nd83     1.0000 0.79844  0.86949  0.95746  Biso   1.000  Nd
  Nd84     1.0000 0.79234  0.95240  0.88070  Biso   1.000  Nd
  Ge133    1.0000 0.78481  0.78352  0.90057  Biso   1.000  Ge
  Ge134    1.0000 0.74555  0.86096  0.86120  Biso   1.000  Ge
  Ge135    1.0000 0.85018  0.95883  0.97128  Biso   1.000  Ge
  Ge136    1.0000 0.88147  0.00439  0.89558  Biso   1.000  Ge
  C397     1.0000 0.75210  0.74800  0.93060  Biso   1.000  C
  C398     1.0000 0.71470  0.76620  0.94560  Biso   1.000  C
  C399     1.0000 0.71880  0.80720  0.96240  Biso   1.000  C
  C400     1.0000 0.68990  0.86370  0.87430  Biso   1.000  C
  C401     1.0000 0.67050  0.89460  0.85200  Biso   1.000  C
  C402     1.0000 0.69330  0.93160  0.85010  Biso   1.000  C
  C403     1.0000 0.81750  0.99030  0.00460  Biso   1.000  C
  C404     1.0000 0.80610  0.97120  0.04410  Biso   1.000  C
  C405     1.0000 0.78370  0.93470  0.03820  Biso   1.000  C
  C406     1.0000 0.87470  0.05960  0.89080  Biso   1.000  C
  C407     1.0000 0.84220  0.07510  0.91610  Biso   1.000  C
  C408     1.0000 0.80610  0.05000  0.91550  Biso   1.000  C
  O529     1.0000 0.75990  0.80990  0.86260  Biso   1.000  O
  O530     1.0000 0.88760  0.93310  0.99590  Biso   1.000  O
  O531     1.0000 0.88570  0.98780  0.94500  Biso   1.000  O
  O532     1.0000 0.80990  0.75690  0.86190  Biso   1.000  O
  O533     1.0000 0.78500  0.88100  0.88800  Biso   1.000  O
  O534     1.0000 0.82020  0.81110  0.92490  Biso   1.000  O
  O535     1.0000 0.82750  0.92940  0.93650  Biso   1.000  O
  O536     1.0000 0.86510  0.85800  0.97210  Biso   1.000  O
  O537     1.0000 0.74220  0.82950  0.94470  Biso   1.000  O
  O538     1.0000 0.69990  0.81690  0.99070  Biso   1.000  O
  O539     1.0000 0.73120  0.92660  0.85160  Biso   1.000  O
  O540     1.0000 0.67890  0.96290  0.84580  Biso   1.000  O
  O541     1.0000 0.79710  0.90870  0.01470  Biso   1.000  O
  O542     1.0000 0.75340  0.92800  0.05850  Biso   1.000  O
  O543     1.0000 0.81050  0.01310  0.91570  Biso   1.000  O
  O544     1.0000 0.77330  0.06380  0.91590  Biso   1.000  O
  Nd85     1.0000 0.79844  0.13051  0.54254  Biso   1.000  Nd
  Nd86     1.0000 0.79234  0.04760  0.61930  Biso   1.000  Nd
  Ge137    1.0000 0.78481  0.21648  0.59943  Biso   1.000  Ge
  Ge138    1.0000 0.74555  0.13904  0.63880  Biso   1.000  Ge
  Ge139    1.0000 0.85018  0.04117  0.52872  Biso   1.000  Ge
  Ge140    1.0000 0.88147  0.99561  0.60442  Biso   1.000  Ge
  C409     1.0000 0.75210  0.25200  0.56940  Biso   1.000  C
  C410     1.0000 0.71470  0.23380  0.55440  Biso   1.000  C
  C411     1.0000 0.71880  0.19280  0.53760  Biso   1.000  C
  C412     1.0000 0.68990  0.13630  0.62570  Biso   1.000  C
  C413     1.0000 0.67050  0.10540  0.64800  Biso   1.000  C
  C414     1.0000 0.69330  0.06840  0.64990  Biso   1.000  C
  C415     1.0000 0.81750  0.00970  0.49540  Biso   1.000  C
  C416     1.0000 0.80610  0.02880  0.45590  Biso   1.000  C
  C417     1.0000 0.78370  0.06530  0.46180  Biso   1.000  C
  C418     1.0000 0.87470  0.94040  0.60920  Biso   1.000  C
  C419     1.0000 0.84220  0.92490  0.58390  Biso   1.000  C
  C420     1.0000 0.80610  0.95000  0.58450  Biso   1.000  C
  O545     1.0000 0.75990  0.19010  0.63740  Biso   1.000  O
  O546     1.0000 0.88760  0.06690  0.50410  Biso   1.000  O
  O547     1.0000 0.88570  0.01220  0.55500  Biso   1.000  O
  O548     1.0000 0.80990  0.24310  0.63810  Biso   1.000  O
  O549     1.0000 0.78500  0.11900  0.61200  Biso   1.000  O
  O550     1.0000 0.82020  0.18890  0.57510  Biso   1.000  O
  O551     1.0000 0.82750  0.07060  0.56350  Biso   1.000  O
  O552     1.0000 0.86510  0.14200  0.52790  Biso   1.000  O
  O553     1.0000 0.74220  0.17050  0.55530  Biso   1.000  O
  O554     1.0000 0.69990  0.18310  0.50930  Biso   1.000  O
  O555     1.0000 0.73120  0.07340  0.64840  Biso   1.000  O
  O556     1.0000 0.67890  0.03710  0.65420  Biso   1.000  O
  O557     1.0000 0.79710  0.09130  0.48530  Biso   1.000  O
  O558     1.0000 0.75340  0.07200  0.44150  Biso   1.000  O
  O559     1.0000 0.81050  0.98690  0.58430  Biso   1.000  O
  O560     1.0000 0.77330  0.93620  0.58410  Biso   1.000  O
  Nd87     1.0000 0.29844  0.63051  0.04254  Biso   1.000  Nd
  Nd88     1.0000 0.29234  0.54760  0.11930  Biso   1.000  Nd
  Ge141    1.0000 0.28481  0.71648  0.09943  Biso   1.000  Ge
  Ge142    1.0000 0.24555  0.63904  0.13880  Biso   1.000  Ge
  Ge143    1.0000 0.35018  0.54117  0.02872  Biso   1.000  Ge
  Ge144    1.0000 0.38147  0.49561  0.10442  Biso   1.000  Ge
  C421     1.0000 0.25210  0.75200  0.06940  Biso   1.000  C
  C422     1.0000 0.21470  0.73380  0.05440  Biso   1.000  C
  C423     1.0000 0.21880  0.69280  0.03760  Biso   1.000  C
  C424     1.0000 0.18990  0.63630  0.12570  Biso   1.000  C
  C425     1.0000 0.17050  0.60540  0.14800  Biso   1.000  C
  C426     1.0000 0.19330  0.56840  0.14990  Biso   1.000  C
  C427     1.0000 0.31750  0.50970  0.99540  Biso   1.000  C
  C428     1.0000 0.30610  0.52880  0.95590  Biso   1.000  C
  C429     1.0000 0.28370  0.56530  0.96180  Biso   1.000  C
  C430     1.0000 0.37470  0.44040  0.10920  Biso   1.000  C
  C431     1.0000 0.34220  0.42490  0.08390  Biso   1.000  C
  C432     1.0000 0.30610  0.45000  0.08450  Biso   1.000  C
  O561     1.0000 0.25990  0.69010  0.13740  Biso   1.000  O
  O562     1.0000 0.38760  0.56690  0.00410  Biso   1.000  O
  O563     1.0000 0.38570  0.51220  0.05500  Biso   1.000  O
  O564     1.0000 0.30990  0.74310  0.13810  Biso   1.000  O
  O565     1.0000 0.28500  0.61900  0.11200  Biso   1.000  O
  O566     1.0000 0.32020  0.68890  0.07510  Biso   1.000  O
  O567     1.0000 0.32750  0.57060  0.06350  Biso   1.000  O
  O568     1.0000 0.36510  0.64200  0.02790  Biso   1.000  O
  O569     1.0000 0.24220  0.67050  0.05530  Biso   1.000  O
  O570     1.0000 0.19990  0.68310  0.00930  Biso   1.000  O
  O571     1.0000 0.23120  0.57340  0.14840  Biso   1.000  O
  O572     1.0000 0.17890  0.53710  0.15420  Biso   1.000  O
  O573     1.0000 0.29710  0.59130  0.98530  Biso   1.000  O
  O574     1.0000 0.25340  0.57200  0.94150  Biso   1.000  O
  O575     1.0000 0.31050  0.48690  0.08430  Biso   1.000  O
  O576     1.0000 0.27330  0.43620  0.08410  Biso   1.000  O
  Nd89     1.0000 0.20156  0.63051  0.95746  Biso   1.000  Nd
  Nd90     1.0000 0.20766  0.54760  0.88070  Biso   1.000  Nd
  Ge145    1.0000 0.21519  0.71648  0.90057  Biso   1.000  Ge
  Ge146    1.0000 0.25445  0.63904  0.86120  Biso   1.000  Ge
  Ge147    1.0000 0.14982  0.54117  0.97128  Biso   1.000  Ge
  Ge148    1.0000 0.11853  0.49561  0.89558  Biso   1.000  Ge
  C433     1.0000 0.24790  0.75200  0.93060  Biso   1.000  C
  C434     1.0000 0.28530  0.73380  0.94560  Biso   1.000  C
  C435     1.0000 0.28120  0.69280  0.96240  Biso   1.000  C
  C436     1.0000 0.31010  0.63630  0.87430  Biso   1.000  C
  C437     1.0000 0.32950  0.60540  0.85200  Biso   1.000  C
  C438     1.0000 0.30670  0.56840  0.85010  Biso   1.000  C
  C439     1.0000 0.18250  0.50970  0.00460  Biso   1.000  C
  C440     1.0000 0.19390  0.52880  0.04410  Biso   1.000  C
  C441     1.0000 0.21630  0.56530  0.03820  Biso   1.000  C
  C442     1.0000 0.12530  0.44040  0.89080  Biso   1.000  C
  C443     1.0000 0.15780  0.42490  0.91610  Biso   1.000  C
  C444     1.0000 0.19390  0.45000  0.91550  Biso   1.000  C
  O577     1.0000 0.24010  0.69010  0.86260  Biso   1.000  O
  O578     1.0000 0.11240  0.56690  0.99590  Biso   1.000  O
  O579     1.0000 0.11430  0.51220  0.94500  Biso   1.000  O
  O580     1.0000 0.19010  0.74310  0.86190  Biso   1.000  O
  O581     1.0000 0.21500  0.61900  0.88800  Biso   1.000  O
  O582     1.0000 0.17980  0.68890  0.92490  Biso   1.000  O
  O583     1.0000 0.17250  0.57060  0.93650  Biso   1.000  O
  O584     1.0000 0.13490  0.64200  0.97210  Biso   1.000  O
  O585     1.0000 0.25780  0.67050  0.94470  Biso   1.000  O
  O586     1.0000 0.30010  0.68310  0.99070  Biso   1.000  O
  O587     1.0000 0.26880  0.57340  0.85160  Biso   1.000  O
  O588     1.0000 0.32110  0.53710  0.84580  Biso   1.000  O
  O589     1.0000 0.20290  0.59130  0.01470  Biso   1.000  O
  O590     1.0000 0.24660  0.57200  0.05850  Biso   1.000  O
  O591     1.0000 0.18950  0.48690  0.91570  Biso   1.000  O
  O592     1.0000 0.22670  0.43620  0.91590  Biso   1.000  O
  Nd91     1.0000 0.70156  0.13051  0.45746  Biso   1.000  Nd
  Nd92     1.0000 0.70766  0.04760  0.38070  Biso   1.000  Nd
  Ge149    1.0000 0.71519  0.21648  0.40057  Biso   1.000  Ge
  Ge150    1.0000 0.75445  0.13904  0.36120  Biso   1.000  Ge
  Ge151    1.0000 0.64982  0.04117  0.47128  Biso   1.000  Ge
  Ge152    1.0000 0.61853  0.99561  0.39558  Biso   1.000  Ge
  C445     1.0000 0.74790  0.25200  0.43060  Biso   1.000  C
  C446     1.0000 0.78530  0.23380  0.44560  Biso   1.000  C
  C447     1.0000 0.78120  0.19280  0.46240  Biso   1.000  C
  C448     1.0000 0.81010  0.13630  0.37430  Biso   1.000  C
  C449     1.0000 0.82950  0.10540  0.35200  Biso   1.000  C
  C450     1.0000 0.80670  0.06840  0.35010  Biso   1.000  C
  C451     1.0000 0.68250  0.00970  0.50460  Biso   1.000  C
  C452     1.0000 0.69390  0.02880  0.54410  Biso   1.000  C
  C453     1.0000 0.71630  0.06530  0.53820  Biso   1.000  C
  C454     1.0000 0.62530  0.94040  0.39080  Biso   1.000  C
  C455     1.0000 0.65780  0.92490  0.41610  Biso   1.000  C
  C456     1.0000 0.69390  0.95000  0.41550  Biso   1.000  C
  O593     1.0000 0.74010  0.19010  0.36260  Biso   1.000  O
  O594     1.0000 0.61240  0.06690  0.49590  Biso   1.000  O
  O595     1.0000 0.61430  0.01220  0.44500  Biso   1.000  O
  O596     1.0000 0.69010  0.24310  0.36190  Biso   1.000  O
  O597     1.0000 0.71500  0.11900  0.38800  Biso   1.000  O
  O598     1.0000 0.67980  0.18890  0.42490  Biso   1.000  O
  O599     1.0000 0.67250  0.07060  0.43650  Biso   1.000  O
  O600     1.0000 0.63490  0.14200  0.47210  Biso   1.000  O
  O601     1.0000 0.75780  0.17050  0.44470  Biso   1.000  O
  O602     1.0000 0.80010  0.18310  0.49070  Biso   1.000  O
  O603     1.0000 0.76880  0.07340  0.35160  Biso   1.000  O
  O604     1.0000 0.82110  0.03710  0.34580  Biso   1.000  O
  O605     1.0000 0.70290  0.09130  0.51470  Biso   1.000  O
  O606     1.0000 0.74660  0.07200  0.55850  Biso   1.000  O
  O607     1.0000 0.68950  0.98690  0.41570  Biso   1.000  O
  O608     1.0000 0.72670  0.93620  0.41590  Biso   1.000  O
  Nd93     1.0000 0.70156  0.86949  0.04254  Biso   1.000  Nd
  Nd94     1.0000 0.70766  0.95240  0.11930  Biso   1.000  Nd
  Ge153    1.0000 0.71519  0.78352  0.09943  Biso   1.000  Ge
  Ge154    1.0000 0.75445  0.86096  0.13880  Biso   1.000  Ge
  Ge155    1.0000 0.64982  0.95883  0.02872  Biso   1.000  Ge
  Ge156    1.0000 0.61853  0.00439  0.10442  Biso   1.000  Ge
  C457     1.0000 0.74790  0.74800  0.06940  Biso   1.000  C
  C458     1.0000 0.78530  0.76620  0.05440  Biso   1.000  C
  C459     1.0000 0.78120  0.80720  0.03760  Biso   1.000  C
  C460     1.0000 0.81010  0.86370  0.12570  Biso   1.000  C
  C461     1.0000 0.82950  0.89460  0.14800  Biso   1.000  C
  C462     1.0000 0.80670  0.93160  0.14990  Biso   1.000  C
  C463     1.0000 0.68250  0.99030  0.99540  Biso   1.000  C
  C464     1.0000 0.69390  0.97120  0.95590  Biso   1.000  C
  C465     1.0000 0.71630  0.93470  0.96180  Biso   1.000  C
  C466     1.0000 0.62530  0.05960  0.10920  Biso   1.000  C
  C467     1.0000 0.65780  0.07510  0.08390  Biso   1.000  C
  C468     1.0000 0.69390  0.05000  0.08450  Biso   1.000  C
  O609     1.0000 0.74010  0.80990  0.13740  Biso   1.000  O
  O610     1.0000 0.61240  0.93310  0.00410  Biso   1.000  O
  O611     1.0000 0.61430  0.98780  0.05500  Biso   1.000  O
  O612     1.0000 0.69010  0.75690  0.13810  Biso   1.000  O
  O613     1.0000 0.71500  0.88100  0.11200  Biso   1.000  O
  O614     1.0000 0.67980  0.81110  0.07510  Biso   1.000  O
  O615     1.0000 0.67250  0.92940  0.06350  Biso   1.000  O
  O616     1.0000 0.63490  0.85800  0.02790  Biso   1.000  O
  O617     1.0000 0.75780  0.82950  0.05530  Biso   1.000  O
  O618     1.0000 0.80010  0.81690  0.00930  Biso   1.000  O
  O619     1.0000 0.76880  0.92660  0.14840  Biso   1.000  O
  O620     1.0000 0.82110  0.96290  0.15420  Biso   1.000  O
  O621     1.0000 0.70290  0.90870  0.98530  Biso   1.000  O
  O622     1.0000 0.74660  0.92800  0.94150  Biso   1.000  O
  O623     1.0000 0.68950  0.01310  0.08430  Biso   1.000  O
  O624     1.0000 0.72670  0.06380  0.08410  Biso   1.000  O
  Nd95     1.0000 0.20156  0.36949  0.54254  Biso   1.000  Nd
  Nd96     1.0000 0.20766  0.45240  0.61930  Biso   1.000  Nd
  Ge157    1.0000 0.21519  0.28352  0.59943  Biso   1.000  Ge
  Ge158    1.0000 0.25445  0.36096  0.63880  Biso   1.000  Ge
  Ge159    1.0000 0.14982  0.45883  0.52872  Biso   1.000  Ge
  Ge160    1.0000 0.11853  0.50439  0.60442  Biso   1.000  Ge
  C469     1.0000 0.24790  0.24800  0.56940  Biso   1.000  C
  C470     1.0000 0.28530  0.26620  0.55440  Biso   1.000  C
  C471     1.0000 0.28120  0.30720  0.53760  Biso   1.000  C
  C472     1.0000 0.31010  0.36370  0.62570  Biso   1.000  C
  C473     1.0000 0.32950  0.39460  0.64800  Biso   1.000  C
  C474     1.0000 0.30670  0.43160  0.64990  Biso   1.000  C
  C475     1.0000 0.18250  0.49030  0.49540  Biso   1.000  C
  C476     1.0000 0.19390  0.47120  0.45590  Biso   1.000  C
  C477     1.0000 0.21630  0.43470  0.46180  Biso   1.000  C
  C478     1.0000 0.12530  0.55960  0.60920  Biso   1.000  C
  C479     1.0000 0.15780  0.57510  0.58390  Biso   1.000  C
  C480     1.0000 0.19390  0.55000  0.58450  Biso   1.000  C
  O625     1.0000 0.24010  0.30990  0.63740  Biso   1.000  O
  O626     1.0000 0.11240  0.43310  0.50410  Biso   1.000  O
  O627     1.0000 0.11430  0.48780  0.55500  Biso   1.000  O
  O628     1.0000 0.19010  0.25690  0.63810  Biso   1.000  O
  O629     1.0000 0.21500  0.38100  0.61200  Biso   1.000  O
  O630     1.0000 0.17980  0.31110  0.57510  Biso   1.000  O
  O631     1.0000 0.17250  0.42940  0.56350  Biso   1.000  O
  O632     1.0000 0.13490  0.35800  0.52790  Biso   1.000  O
  O633     1.0000 0.25780  0.32950  0.55530  Biso   1.000  O
  O634     1.0000 0.30010  0.31690  0.50930  Biso   1.000  O
  O635     1.0000 0.26880  0.42660  0.64840  Biso   1.000  O
  O636     1.0000 0.32110  0.46290  0.65420  Biso   1.000  O
  O637     1.0000 0.20290  0.40870  0.48530  Biso   1.000  O
  O638     1.0000 0.24660  0.42800  0.44150  Biso   1.000  O
  O639     1.0000 0.18950  0.51310  0.58430  Biso   1.000  O
  O640     1.0000 0.22670  0.56380  0.58410  Biso   1.000  O
  Nd97     1.0000 0.45746  0.29844  0.36949  Biso   1.000  Nd
  Nd98     1.0000 0.38070  0.29234  0.45240  Biso   1.000  Nd
  Ge161    1.0000 0.40057  0.28481  0.28352  Biso   1.000  Ge
  Ge162    1.0000 0.36120  0.24555  0.36096  Biso   1.000  Ge
  Ge163    1.0000 0.47128  0.35018  0.45883  Biso   1.000  Ge
  Ge164    1.0000 0.39558  0.38147  0.50439  Biso   1.000  Ge
  C481     1.0000 0.43060  0.25210  0.24800  Biso   1.000  C
  C482     1.0000 0.44560  0.21470  0.26620  Biso   1.000  C
  C483     1.0000 0.46240  0.21880  0.30720  Biso   1.000  C
  C484     1.0000 0.37430  0.18990  0.36370  Biso   1.000  C
  C485     1.0000 0.35200  0.17050  0.39460  Biso   1.000  C
  C486     1.0000 0.35010  0.19330  0.43160  Biso   1.000  C
  C487     1.0000 0.50460  0.31750  0.49030  Biso   1.000  C
  C488     1.0000 0.54410  0.30610  0.47120  Biso   1.000  C
  C489     1.0000 0.53820  0.28370  0.43470  Biso   1.000  C
  C490     1.0000 0.39080  0.37470  0.55960  Biso   1.000  C
  C491     1.0000 0.41610  0.34220  0.57510  Biso   1.000  C
  C492     1.0000 0.41550  0.30610  0.55000  Biso   1.000  C
  O641     1.0000 0.36260  0.25990  0.30990  Biso   1.000  O
  O642     1.0000 0.49590  0.38760  0.43310  Biso   1.000  O
  O643     1.0000 0.44500  0.38570  0.48780  Biso   1.000  O
  O644     1.0000 0.36190  0.30990  0.25690  Biso   1.000  O
  O645     1.0000 0.38800  0.28500  0.38100  Biso   1.000  O
  O646     1.0000 0.42490  0.32020  0.31110  Biso   1.000  O
  O647     1.0000 0.43650  0.32750  0.42940  Biso   1.000  O
  O648     1.0000 0.47210  0.36510  0.35800  Biso   1.000  O
  O649     1.0000 0.44470  0.24220  0.32950  Biso   1.000  O
  O650     1.0000 0.49070  0.19990  0.31690  Biso   1.000  O
  O651     1.0000 0.35160  0.23120  0.42660  Biso   1.000  O
  O652     1.0000 0.34580  0.17890  0.46290  Biso   1.000  O
  O653     1.0000 0.51470  0.29710  0.40870  Biso   1.000  O
  O654     1.0000 0.55850  0.25340  0.42800  Biso   1.000  O
  O655     1.0000 0.41570  0.31050  0.51310  Biso   1.000  O
  O656     1.0000 0.41590  0.27330  0.56380  Biso   1.000  O
  Nd99     1.0000 0.95746  0.79844  0.86949  Biso   1.000  Nd
  Nd100    1.0000 0.88070  0.79234  0.95240  Biso   1.000  Nd
  Ge165    1.0000 0.90057  0.78481  0.78352  Biso   1.000  Ge
  Ge166    1.0000 0.86120  0.74555  0.86096  Biso   1.000  Ge
  Ge167    1.0000 0.97128  0.85018  0.95883  Biso   1.000  Ge
  Ge168    1.0000 0.89558  0.88147  0.00439  Biso   1.000  Ge
  C493     1.0000 0.93060  0.75210  0.74800  Biso   1.000  C
  C494     1.0000 0.94560  0.71470  0.76620  Biso   1.000  C
  C495     1.0000 0.96240  0.71880  0.80720  Biso   1.000  C
  C496     1.0000 0.87430  0.68990  0.86370  Biso   1.000  C
  C497     1.0000 0.85200  0.67050  0.89460  Biso   1.000  C
  C498     1.0000 0.85010  0.69330  0.93160  Biso   1.000  C
  C499     1.0000 0.00460  0.81750  0.99030  Biso   1.000  C
  C500     1.0000 0.04410  0.80610  0.97120  Biso   1.000  C
  C501     1.0000 0.03820  0.78370  0.93470  Biso   1.000  C
  C502     1.0000 0.89080  0.87470  0.05960  Biso   1.000  C
  C503     1.0000 0.91610  0.84220  0.07510  Biso   1.000  C
  C504     1.0000 0.91550  0.80610  0.05000  Biso   1.000  C
  O657     1.0000 0.86260  0.75990  0.80990  Biso   1.000  O
  O658     1.0000 0.99590  0.88760  0.93310  Biso   1.000  O
  O659     1.0000 0.94500  0.88570  0.98780  Biso   1.000  O
  O660     1.0000 0.86190  0.80990  0.75690  Biso   1.000  O
  O661     1.0000 0.88800  0.78500  0.88100  Biso   1.000  O
  O662     1.0000 0.92490  0.82020  0.81110  Biso   1.000  O
  O663     1.0000 0.93650  0.82750  0.92940  Biso   1.000  O
  O664     1.0000 0.97210  0.86510  0.85800  Biso   1.000  O
  O665     1.0000 0.94470  0.74220  0.82950  Biso   1.000  O
  O666     1.0000 0.99070  0.69990  0.81690  Biso   1.000  O
  O667     1.0000 0.85160  0.73120  0.92660  Biso   1.000  O
  O668     1.0000 0.84580  0.67890  0.96290  Biso   1.000  O
  O669     1.0000 0.01470  0.79710  0.90870  Biso   1.000  O
  O670     1.0000 0.05850  0.75340  0.92800  Biso   1.000  O
  O671     1.0000 0.91570  0.81050  0.01310  Biso   1.000  O
  O672     1.0000 0.91590  0.77330  0.06380  Biso   1.000  O
  Nd101    1.0000 0.54254  0.79844  0.13051  Biso   1.000  Nd
  Nd102    1.0000 0.61930  0.79234  0.04760  Biso   1.000  Nd
  Ge169    1.0000 0.59943  0.78481  0.21648  Biso   1.000  Ge
  Ge170    1.0000 0.63880  0.74555  0.13904  Biso   1.000  Ge
  Ge171    1.0000 0.52872  0.85018  0.04117  Biso   1.000  Ge
  Ge172    1.0000 0.60442  0.88147  0.99561  Biso   1.000  Ge
  C505     1.0000 0.56940  0.75210  0.25200  Biso   1.000  C
  C506     1.0000 0.55440  0.71470  0.23380  Biso   1.000  C
  C507     1.0000 0.53760  0.71880  0.19280  Biso   1.000  C
  C508     1.0000 0.62570  0.68990  0.13630  Biso   1.000  C
  C509     1.0000 0.64800  0.67050  0.10540  Biso   1.000  C
  C510     1.0000 0.64990  0.69330  0.06840  Biso   1.000  C
  C511     1.0000 0.49540  0.81750  0.00970  Biso   1.000  C
  C512     1.0000 0.45590  0.80610  0.02880  Biso   1.000  C
  C513     1.0000 0.46180  0.78370  0.06530  Biso   1.000  C
  C514     1.0000 0.60920  0.87470  0.94040  Biso   1.000  C
  C515     1.0000 0.58390  0.84220  0.92490  Biso   1.000  C
  C516     1.0000 0.58450  0.80610  0.95000  Biso   1.000  C
  O673     1.0000 0.63740  0.75990  0.19010  Biso   1.000  O
  O674     1.0000 0.50410  0.88760  0.06690  Biso   1.000  O
  O675     1.0000 0.55500  0.88570  0.01220  Biso   1.000  O
  O676     1.0000 0.63810  0.80990  0.24310  Biso   1.000  O
  O677     1.0000 0.61200  0.78500  0.11900  Biso   1.000  O
  O678     1.0000 0.57510  0.82020  0.18890  Biso   1.000  O
  O679     1.0000 0.56350  0.82750  0.07060  Biso   1.000  O
  O680     1.0000 0.52790  0.86510  0.14200  Biso   1.000  O
  O681     1.0000 0.55530  0.74220  0.17050  Biso   1.000  O
  O682     1.0000 0.50930  0.69990  0.18310  Biso   1.000  O
  O683     1.0000 0.64840  0.73120  0.07340  Biso   1.000  O
  O684     1.0000 0.65420  0.67890  0.03710  Biso   1.000  O
  O685     1.0000 0.48530  0.79710  0.09130  Biso   1.000  O
  O686     1.0000 0.44150  0.75340  0.07200  Biso   1.000  O
  O687     1.0000 0.58430  0.81050  0.98690  Biso   1.000  O
  O688     1.0000 0.58410  0.77330  0.93620  Biso   1.000  O
  Nd103    1.0000 0.04254  0.29844  0.63051  Biso   1.000  Nd
  Nd104    1.0000 0.11930  0.29234  0.54760  Biso   1.000  Nd
  Ge173    1.0000 0.09943  0.28481  0.71648  Biso   1.000  Ge
  Ge174    1.0000 0.13880  0.24555  0.63904  Biso   1.000  Ge
  Ge175    1.0000 0.02872  0.35018  0.54117  Biso   1.000  Ge
  Ge176    1.0000 0.10442  0.38147  0.49561  Biso   1.000  Ge
  C517     1.0000 0.06940  0.25210  0.75200  Biso   1.000  C
  C518     1.0000 0.05440  0.21470  0.73380  Biso   1.000  C
  C519     1.0000 0.03760  0.21880  0.69280  Biso   1.000  C
  C520     1.0000 0.12570  0.18990  0.63630  Biso   1.000  C
  C521     1.0000 0.14800  0.17050  0.60540  Biso   1.000  C
  C522     1.0000 0.14990  0.19330  0.56840  Biso   1.000  C
  C523     1.0000 0.99540  0.31750  0.50970  Biso   1.000  C
  C524     1.0000 0.95590  0.30610  0.52880  Biso   1.000  C
  C525     1.0000 0.96180  0.28370  0.56530  Biso   1.000  C
  C526     1.0000 0.10920  0.37470  0.44040  Biso   1.000  C
  C527     1.0000 0.08390  0.34220  0.42490  Biso   1.000  C
  C528     1.0000 0.08450  0.30610  0.45000  Biso   1.000  C
  O689     1.0000 0.13740  0.25990  0.69010  Biso   1.000  O
  O690     1.0000 0.00410  0.38760  0.56690  Biso   1.000  O
  O691     1.0000 0.05500  0.38570  0.51220  Biso   1.000  O
  O692     1.0000 0.13810  0.30990  0.74310  Biso   1.000  O
  O693     1.0000 0.11200  0.28500  0.61900  Biso   1.000  O
  O694     1.0000 0.07510  0.32020  0.68890  Biso   1.000  O
  O695     1.0000 0.06350  0.32750  0.57060  Biso   1.000  O
  O696     1.0000 0.02790  0.36510  0.64200  Biso   1.000  O
  O697     1.0000 0.05530  0.24220  0.67050  Biso   1.000  O
  O698     1.0000 0.00930  0.19990  0.68310  Biso   1.000  O
  O699     1.0000 0.14840  0.23120  0.57340  Biso   1.000  O
  O700     1.0000 0.15420  0.17890  0.53710  Biso   1.000  O
  O701     1.0000 0.98530  0.29710  0.59130  Biso   1.000  O
  O702     1.0000 0.94150  0.25340  0.57200  Biso   1.000  O
  O703     1.0000 0.08430  0.31050  0.48690  Biso   1.000  O
  O704     1.0000 0.08410  0.27330  0.43620  Biso   1.000  O
  Nd105    1.0000 0.95746  0.20156  0.63051  Biso   1.000  Nd
  Nd106    1.0000 0.88070  0.20766  0.54760  Biso   1.000  Nd
  Ge177    1.0000 0.90057  0.21519  0.71648  Biso   1.000  Ge
  Ge178    1.0000 0.86120  0.25445  0.63904  Biso   1.000  Ge
  Ge179    1.0000 0.97128  0.14982  0.54117  Biso   1.000  Ge
  Ge180    1.0000 0.89558  0.11853  0.49561  Biso   1.000  Ge
  C529     1.0000 0.93060  0.24790  0.75200  Biso   1.000  C
  C530     1.0000 0.94560  0.28530  0.73380  Biso   1.000  C
  C531     1.0000 0.96240  0.28120  0.69280  Biso   1.000  C
  C532     1.0000 0.87430  0.31010  0.63630  Biso   1.000  C
  C533     1.0000 0.85200  0.32950  0.60540  Biso   1.000  C
  C534     1.0000 0.85010  0.30670  0.56840  Biso   1.000  C
  C535     1.0000 0.00460  0.18250  0.50970  Biso   1.000  C
  C536     1.0000 0.04410  0.19390  0.52880  Biso   1.000  C
  C537     1.0000 0.03820  0.21630  0.56530  Biso   1.000  C
  C538     1.0000 0.89080  0.12530  0.44040  Biso   1.000  C
  C539     1.0000 0.91610  0.15780  0.42490  Biso   1.000  C
  C540     1.0000 0.91550  0.19390  0.45000  Biso   1.000  C
  O705     1.0000 0.86260  0.24010  0.69010  Biso   1.000  O
  O706     1.0000 0.99590  0.11240  0.56690  Biso   1.000  O
  O707     1.0000 0.94500  0.11430  0.51220  Biso   1.000  O
  O708     1.0000 0.86190  0.19010  0.74310  Biso   1.000  O
  O709     1.0000 0.88800  0.21500  0.61900  Biso   1.000  O
  O710     1.0000 0.92490  0.17980  0.68890  Biso   1.000  O
  O711     1.0000 0.93650  0.17250  0.57060  Biso   1.000  O
  O712     1.0000 0.97210  0.13490  0.64200  Biso   1.000  O
  O713     1.0000 0.94470  0.25780  0.67050  Biso   1.000  O
  O714     1.0000 0.99070  0.30010  0.68310  Biso   1.000  O
  O715     1.0000 0.85160  0.26880  0.57340  Biso   1.000  O
  O716     1.0000 0.84580  0.32110  0.53710  Biso   1.000  O
  O717     1.0000 0.01470  0.20290  0.59130  Biso   1.000  O
  O718     1.0000 0.05850  0.24660  0.57200  Biso   1.000  O
  O719     1.0000 0.91570  0.18950  0.48690  Biso   1.000  O
  O720     1.0000 0.91590  0.22670  0.43620  Biso   1.000  O
  Nd107    1.0000 0.45746  0.70156  0.13051  Biso   1.000  Nd
  Nd108    1.0000 0.38070  0.70766  0.04760  Biso   1.000  Nd
  Ge181    1.0000 0.40057  0.71519  0.21648  Biso   1.000  Ge
  Ge182    1.0000 0.36120  0.75445  0.13904  Biso   1.000  Ge
  Ge183    1.0000 0.47128  0.64982  0.04117  Biso   1.000  Ge
  Ge184    1.0000 0.39558  0.61853  0.99561  Biso   1.000  Ge
  C541     1.0000 0.43060  0.74790  0.25200  Biso   1.000  C
  C542     1.0000 0.44560  0.78530  0.23380  Biso   1.000  C
  C543     1.0000 0.46240  0.78120  0.19280  Biso   1.000  C
  C544     1.0000 0.37430  0.81010  0.13630  Biso   1.000  C
  C545     1.0000 0.35200  0.82950  0.10540  Biso   1.000  C
  C546     1.0000 0.35010  0.80670  0.06840  Biso   1.000  C
  C547     1.0000 0.50460  0.68250  0.00970  Biso   1.000  C
  C548     1.0000 0.54410  0.69390  0.02880  Biso   1.000  C
  C549     1.0000 0.53820  0.71630  0.06530  Biso   1.000  C
  C550     1.0000 0.39080  0.62530  0.94040  Biso   1.000  C
  C551     1.0000 0.41610  0.65780  0.92490  Biso   1.000  C
  C552     1.0000 0.41550  0.69390  0.95000  Biso   1.000  C
  O721     1.0000 0.36260  0.74010  0.19010  Biso   1.000  O
  O722     1.0000 0.49590  0.61240  0.06690  Biso   1.000  O
  O723     1.0000 0.44500  0.61430  0.01220  Biso   1.000  O
  O724     1.0000 0.36190  0.69010  0.24310  Biso   1.000  O
  O725     1.0000 0.38800  0.71500  0.11900  Biso   1.000  O
  O726     1.0000 0.42490  0.67980  0.18890  Biso   1.000  O
  O727     1.0000 0.43650  0.67250  0.07060  Biso   1.000  O
  O728     1.0000 0.47210  0.63490  0.14200  Biso   1.000  O
  O729     1.0000 0.44470  0.75780  0.17050  Biso   1.000  O
  O730     1.0000 0.49070  0.80010  0.18310  Biso   1.000  O
  O731     1.0000 0.35160  0.76880  0.07340  Biso   1.000  O
  O732     1.0000 0.34580  0.82110  0.03710  Biso   1.000  O
  O733     1.0000 0.51470  0.70290  0.09130  Biso   1.000  O
  O734     1.0000 0.55850  0.74660  0.07200  Biso   1.000  O
  O735     1.0000 0.41570  0.68950  0.98690  Biso   1.000  O
  O736     1.0000 0.41590  0.72670  0.93620  Biso   1.000  O
  Nd109    1.0000 0.04254  0.70156  0.86949  Biso   1.000  Nd
  Nd110    1.0000 0.11930  0.70766  0.95240  Biso   1.000  Nd
  Ge185    1.0000 0.09943  0.71519  0.78352  Biso   1.000  Ge
  Ge186    1.0000 0.13880  0.75445  0.86096  Biso   1.000  Ge
  Ge187    1.0000 0.02872  0.64982  0.95883  Biso   1.000  Ge
  Ge188    1.0000 0.10442  0.61853  0.00439  Biso   1.000  Ge
  C553     1.0000 0.06940  0.74790  0.74800  Biso   1.000  C
  C554     1.0000 0.05440  0.78530  0.76620  Biso   1.000  C
  C555     1.0000 0.03760  0.78120  0.80720  Biso   1.000  C
  C556     1.0000 0.12570  0.81010  0.86370  Biso   1.000  C
  C557     1.0000 0.14800  0.82950  0.89460  Biso   1.000  C
  C558     1.0000 0.14990  0.80670  0.93160  Biso   1.000  C
  C559     1.0000 0.99540  0.68250  0.99030  Biso   1.000  C
  C560     1.0000 0.95590  0.69390  0.97120  Biso   1.000  C
  C561     1.0000 0.96180  0.71630  0.93470  Biso   1.000  C
  C562     1.0000 0.10920  0.62530  0.05960  Biso   1.000  C
  C563     1.0000 0.08390  0.65780  0.07510  Biso   1.000  C
  C564     1.0000 0.08450  0.69390  0.05000  Biso   1.000  C
  O737     1.0000 0.13740  0.74010  0.80990  Biso   1.000  O
  O738     1.0000 0.00410  0.61240  0.93310  Biso   1.000  O
  O739     1.0000 0.05500  0.61430  0.98780  Biso   1.000  O
  O740     1.0000 0.13810  0.69010  0.75690  Biso   1.000  O
  O741     1.0000 0.11200  0.71500  0.88100  Biso   1.000  O
  O742     1.0000 0.07510  0.67980  0.81110  Biso   1.000  O
  O743     1.0000 0.06350  0.67250  0.92940  Biso   1.000  O
  O744     1.0000 0.02790  0.63490  0.85800  Biso   1.000  O
  O745     1.0000 0.05530  0.75780  0.82950  Biso   1.000  O
  O746     1.0000 0.00930  0.80010  0.81690  Biso   1.000  O
  O747     1.0000 0.14840  0.76880  0.92660  Biso   1.000  O
  O748     1.0000 0.15420  0.82110  0.96290  Biso   1.000  O
  O749     1.0000 0.98530  0.70290  0.90870  Biso   1.000  O
  O750     1.0000 0.94150  0.74660  0.92800  Biso   1.000  O
  O751     1.0000 0.08430  0.68950  0.01310  Biso   1.000  O
  O752     1.0000 0.08410  0.72670  0.06380  Biso   1.000  O
  Nd111    1.0000 0.54254  0.20156  0.36949  Biso   1.000  Nd
  Nd112    1.0000 0.61930  0.20766  0.45240  Biso   1.000  Nd
  Ge189    1.0000 0.59943  0.21519  0.28352  Biso   1.000  Ge
  Ge190    1.0000 0.63880  0.25445  0.36096  Biso   1.000  Ge
  Ge191    1.0000 0.52872  0.14982  0.45883  Biso   1.000  Ge
  Ge192    1.0000 0.60442  0.11853  0.50439  Biso   1.000  Ge
  C565     1.0000 0.56940  0.24790  0.24800  Biso   1.000  C
  C566     1.0000 0.55440  0.28530  0.26620  Biso   1.000  C
  C567     1.0000 0.53760  0.28120  0.30720  Biso   1.000  C
  C568     1.0000 0.62570  0.31010  0.36370  Biso   1.000  C
  C569     1.0000 0.64800  0.32950  0.39460  Biso   1.000  C
  C570     1.0000 0.64990  0.30670  0.43160  Biso   1.000  C
  C571     1.0000 0.49540  0.18250  0.49030  Biso   1.000  C
  C572     1.0000 0.45590  0.19390  0.47120  Biso   1.000  C
  C573     1.0000 0.46180  0.21630  0.43470  Biso   1.000  C
  C574     1.0000 0.60920  0.12530  0.55960  Biso   1.000  C
  C575     1.0000 0.58390  0.15780  0.57510  Biso   1.000  C
  C576     1.0000 0.58450  0.19390  0.55000  Biso   1.000  C
  O753     1.0000 0.63740  0.24010  0.30990  Biso   1.000  O
  O754     1.0000 0.50410  0.11240  0.43310  Biso   1.000  O
  O755     1.0000 0.55500  0.11430  0.48780  Biso   1.000  O
  O756     1.0000 0.63810  0.19010  0.25690  Biso   1.000  O
  O757     1.0000 0.61200  0.21500  0.38100  Biso   1.000  O
  O758     1.0000 0.57510  0.17980  0.31110  Biso   1.000  O
  O759     1.0000 0.56350  0.17250  0.42940  Biso   1.000  O
  O760     1.0000 0.52790  0.13490  0.35800  Biso   1.000  O
  O761     1.0000 0.55530  0.25780  0.32950  Biso   1.000  O
  O762     1.0000 0.50930  0.30010  0.31690  Biso   1.000  O
  O763     1.0000 0.64840  0.26880  0.42660  Biso   1.000  O
  O764     1.0000 0.65420  0.32110  0.46290  Biso   1.000  O
  O765     1.0000 0.48530  0.20290  0.40870  Biso   1.000  O
  O766     1.0000 0.44150  0.24660  0.42800  Biso   1.000  O
  O767     1.0000 0.58430  0.18950  0.51310  Biso   1.000  O
  O768     1.0000 0.58410  0.22670  0.56380  Biso   1.000  O
  Nd113    1.0000 0.30115  0.30115  0.30115  Biso   1.000  Nd
  Nd114    1.0000 0.45012  0.45012  0.45012  Biso   1.000  Nd
  Nd115    1.0000 0.80115  0.80115  0.80115  Biso   1.000  Nd
  Nd116    1.0000 0.95012  0.95012  0.95012  Biso   1.000  Nd
  Nd117    1.0000 0.19885  0.69885  0.80115  Biso   1.000  Nd
  Nd118    1.0000 0.04988  0.54988  0.95012  Biso   1.000  Nd
  Nd119    1.0000 0.69885  0.19885  0.30115  Biso   1.000  Nd
  Nd120    1.0000 0.54988  0.04988  0.45012  Biso   1.000  Nd
  Nd121    1.0000 0.69885  0.80115  0.19885  Biso   1.000  Nd
  Nd122    1.0000 0.54988  0.95012  0.04988  Biso   1.000  Nd
  Nd123    1.0000 0.19885  0.30115  0.69885  Biso   1.000  Nd
  Nd124    1.0000 0.04988  0.45012  0.54988  Biso   1.000  Nd
  Nd125    1.0000 0.80115  0.19885  0.69885  Biso   1.000  Nd
  Nd126    1.0000 0.95012  0.04988  0.54988  Biso   1.000  Nd
  Nd127    1.0000 0.30115  0.69885  0.19885  Biso   1.000  Nd
  Nd128    1.0000 0.45012  0.54988  0.04988  Biso   1.000  Nd
