data_OKIPUU_clean
_audit_creation_date              2014-07-02
_audit_creation_method            'Materials Studio'
_symmetry_space_group_name_H-M    'P1'
_symmetry_Int_Tables_number       1
_symmetry_cell_setting            triclinic
loop_
_symmetry_equiv_pos_as_xyz
  x,y,z
_cell_length_a                    18.9031
_cell_length_b                    18.9031
_cell_length_c                    33.8935
_cell_angle_alpha                 73.8077
_cell_angle_beta                  73.8077
_cell_angle_gamma                 89.9998
loop_
_atom_site_label
_atom_site_type_symbol
_atom_site_fract_x
_atom_site_fract_y
_atom_site_fract_z
_atom_site_U_iso_or_equiv
_atom_site_adp_type
_atom_site_occupancy
Cd1    Cd    0.42847   0.90849   0.36940   0.01267  Uiso   1.00
Cd2    Cd    0.70213   0.72211   0.36940   0.01267  Uiso   1.00
Cd3    Cd    0.40849   0.20213   0.86940   0.01267  Uiso   1.00
Cd4    Cd    0.22211   0.92847   0.86940   0.01267  Uiso   1.00
Cd5    Cd    0.20213   0.40849   0.36940   0.01267  Uiso   1.00
Cd6    Cd    0.92847   0.22211   0.36940   0.01267  Uiso   1.00
Cd7    Cd    0.72211   0.70213   0.86940   0.01267  Uiso   1.00
Cd8    Cd    0.90849   0.42847   0.86940   0.01267  Uiso   1.00
H1     H     0.53270   0.82060   0.29560   0.01267  Uiso   1.00
H2     H     0.49650   0.80210   0.23640   0.01267  Uiso   1.00
H3     H     0.33420   0.88390   0.30640   0.01267  Uiso   1.00
H4     H     0.39890   0.75720   0.21360   0.01267  Uiso   1.00
H5     H     0.32010   0.75110   0.17200   0.01267  Uiso   1.00
H6     H     0.21850   0.92070   0.20320   0.01267  Uiso   1.00
H7     H     0.29360   0.92340   0.24720   0.01267  Uiso   1.00
H8     H     0.38260   0.95480   0.89240   0.01267  Uiso   1.00
H9     H     0.39650   0.93710   0.96360   0.01267  Uiso   1.00
H10    H     0.19210   0.87890   0.97480   0.01267  Uiso   1.00
H11    H     0.34550   0.95330   0.03460   0.01267  Uiso   1.00
H12    H     0.31750   0.91870   0.10880   0.01267  Uiso   1.00
H13    H     0.15330   0.77980   0.11720   0.01267  Uiso   1.00
H14    H     0.18190   0.81090   0.04400   0.01267  Uiso   1.00
H15    H     0.28210   0.10640   0.30680   0.01267  Uiso   1.00
H16    H     0.18330   0.96730   0.42180   0.01267  Uiso   1.00
H17    H     0.07670   0.02690   0.42340   0.01267  Uiso   1.00
H18    H     0.17630   0.16870   0.30900   0.01267  Uiso   1.00
H19    H     0.67170   0.88380   0.29560   0.01267  Uiso   1.00
H20    H     0.76710   0.96150   0.23640   0.01267  Uiso   1.00
H21    H     0.85940   0.80970   0.30640   0.01267  Uiso   1.00
H22    H     0.88750   0.02920   0.21360   0.01267  Uiso   1.00
H23    H     0.00790   0.07690   0.17200   0.01267  Uiso   1.00
H24    H     0.07830   0.87610   0.20320   0.01267  Uiso   1.00
H25    H     0.95920   0.82940   0.24720   0.01267  Uiso   1.00
H26    H     0.22500   0.15280   0.89240   0.01267  Uiso   1.00
H27    H     0.13990   0.09930   0.96360   0.01267  Uiso   1.00
H28    H     0.33310   0.14630   0.97480   0.01267  Uiso   1.00
H29    H     0.11990   0.01210   0.03460   0.01267  Uiso   1.00
H30    H     0.07370   0.97250   0.10880   0.01267  Uiso   1.00
H31    H     0.22950   0.10300   0.11720   0.01267  Uiso   1.00
H32    H     0.27410   0.14510   0.04400   0.01267  Uiso   1.00
H33    H     0.91110   0.58680   0.30680   0.01267  Uiso   1.00
H34    H     0.89490   0.61090   0.42180   0.01267  Uiso   1.00
H35    H     0.99990   0.54970   0.42340   0.01267  Uiso   1.00
H36    H     0.01470   0.52230   0.30900   0.01267  Uiso   1.00
H37    H     0.32060   0.17170   0.79560   0.01267  Uiso   1.00
H38    H     0.30210   0.26710   0.73640   0.01267  Uiso   1.00
H39    H     0.38390   0.35940   0.80640   0.01267  Uiso   1.00
H40    H     0.25720   0.38750   0.71360   0.01267  Uiso   1.00
H41    H     0.25110   0.50790   0.67200   0.01267  Uiso   1.00
H42    H     0.42070   0.57830   0.70320   0.01267  Uiso   1.00
H43    H     0.42340   0.45920   0.74720   0.01267  Uiso   1.00
H44    H     0.45480   0.72500   0.39240   0.01267  Uiso   1.00
H45    H     0.43710   0.63990   0.46360   0.01267  Uiso   1.00
H46    H     0.37890   0.83310   0.47480   0.01267  Uiso   1.00
H47    H     0.45330   0.61990   0.53460   0.01267  Uiso   1.00
H48    H     0.41870   0.57370   0.60880   0.01267  Uiso   1.00
H49    H     0.27980   0.72950   0.61720   0.01267  Uiso   1.00
H50    H     0.31090   0.77410   0.54400   0.01267  Uiso   1.00
H51    H     0.60640   0.41110   0.80680   0.01267  Uiso   1.00
H52    H     0.46730   0.39490   0.92180   0.01267  Uiso   1.00
H53    H     0.52690   0.49990   0.92340   0.01267  Uiso   1.00
H54    H     0.66870   0.51470   0.80900   0.01267  Uiso   1.00
H55    H     0.38380   0.03270   0.79560   0.01267  Uiso   1.00
H56    H     0.46150   0.99650   0.73640   0.01267  Uiso   1.00
H57    H     0.30970   0.83420   0.80640   0.01267  Uiso   1.00
H58    H     0.52920   0.89890   0.71360   0.01267  Uiso   1.00
H59    H     0.57690   0.82010   0.67200   0.01267  Uiso   1.00
H60    H     0.37610   0.71850   0.70320   0.01267  Uiso   1.00
H61    H     0.32940   0.79360   0.74720   0.01267  Uiso   1.00
H62    H     0.65280   0.88260   0.39240   0.01267  Uiso   1.00
H63    H     0.59930   0.89650   0.46360   0.01267  Uiso   1.00
H64    H     0.64630   0.69210   0.47480   0.01267  Uiso   1.00
H65    H     0.51210   0.84550   0.53460   0.01267  Uiso   1.00
H66    H     0.47250   0.81750   0.60880   0.01267  Uiso   1.00
H67    H     0.60300   0.65330   0.61720   0.01267  Uiso   1.00
H68    H     0.64510   0.68190   0.54400   0.01267  Uiso   1.00
H69    H     0.08680   0.78210   0.80680   0.01267  Uiso   1.00
H70    H     0.11090   0.68330   0.92180   0.01267  Uiso   1.00
H71    H     0.04970   0.57670   0.92340   0.01267  Uiso   1.00
H72    H     0.02230   0.67630   0.80900   0.01267  Uiso   1.00
H73    H     0.17170   0.32060   0.29560   0.01267  Uiso   1.00
H74    H     0.26710   0.30210   0.23640   0.01267  Uiso   1.00
H75    H     0.35940   0.38390   0.30640   0.01267  Uiso   1.00
H76    H     0.38750   0.25720   0.21360   0.01267  Uiso   1.00
H77    H     0.50790   0.25110   0.17200   0.01267  Uiso   1.00
H78    H     0.57830   0.42070   0.20320   0.01267  Uiso   1.00
H79    H     0.45920   0.42340   0.24720   0.01267  Uiso   1.00
H80    H     0.72500   0.45480   0.89240   0.01267  Uiso   1.00
H81    H     0.63990   0.43710   0.96360   0.01267  Uiso   1.00
H82    H     0.83310   0.37890   0.97480   0.01267  Uiso   1.00
H83    H     0.61990   0.45330   0.03460   0.01267  Uiso   1.00
H84    H     0.57370   0.41870   0.10880   0.01267  Uiso   1.00
H85    H     0.72950   0.27980   0.11720   0.01267  Uiso   1.00
H86    H     0.77410   0.31090   0.04400   0.01267  Uiso   1.00
H87    H     0.41110   0.60640   0.30680   0.01267  Uiso   1.00
H88    H     0.39490   0.46730   0.42180   0.01267  Uiso   1.00
H89    H     0.49990   0.52690   0.42340   0.01267  Uiso   1.00
H90    H     0.51470   0.66870   0.30900   0.01267  Uiso   1.00
H91    H     0.03270   0.38380   0.29560   0.01267  Uiso   1.00
H92    H     0.99650   0.46150   0.23640   0.01267  Uiso   1.00
H93    H     0.83420   0.30970   0.30640   0.01267  Uiso   1.00
H94    H     0.89890   0.52920   0.21360   0.01267  Uiso   1.00
H95    H     0.82010   0.57690   0.17200   0.01267  Uiso   1.00
H96    H     0.71850   0.37610   0.20320   0.01267  Uiso   1.00
H97    H     0.79360   0.32940   0.24720   0.01267  Uiso   1.00
H98    H     0.88260   0.65280   0.89240   0.01267  Uiso   1.00
H99    H     0.89650   0.59930   0.96360   0.01267  Uiso   1.00
H100   H     0.69210   0.64630   0.97480   0.01267  Uiso   1.00
H101   H     0.84550   0.51210   0.03460   0.01267  Uiso   1.00
H102   H     0.81750   0.47250   0.10880   0.01267  Uiso   1.00
H103   H     0.65330   0.60300   0.11720   0.01267  Uiso   1.00
H104   H     0.68190   0.64510   0.04400   0.01267  Uiso   1.00
H105   H     0.78210   0.08680   0.30680   0.01267  Uiso   1.00
H106   H     0.68330   0.11090   0.42180   0.01267  Uiso   1.00
H107   H     0.57670   0.04970   0.42340   0.01267  Uiso   1.00
H108   H     0.67630   0.02230   0.30900   0.01267  Uiso   1.00
H109   H     0.88380   0.67170   0.79560   0.01267  Uiso   1.00
H110   H     0.96150   0.76710   0.73640   0.01267  Uiso   1.00
H111   H     0.80970   0.85940   0.80640   0.01267  Uiso   1.00
H112   H     0.02920   0.88750   0.71360   0.01267  Uiso   1.00
H113   H     0.07690   0.00790   0.67200   0.01267  Uiso   1.00
H114   H     0.87610   0.07830   0.70320   0.01267  Uiso   1.00
H115   H     0.82940   0.95920   0.74720   0.01267  Uiso   1.00
H116   H     0.15280   0.22500   0.39240   0.01267  Uiso   1.00
H117   H     0.09930   0.13990   0.46360   0.01267  Uiso   1.00
H118   H     0.14630   0.33310   0.47480   0.01267  Uiso   1.00
H119   H     0.01210   0.11990   0.53460   0.01267  Uiso   1.00
H120   H     0.97250   0.07370   0.60880   0.01267  Uiso   1.00
H121   H     0.10300   0.22950   0.61720   0.01267  Uiso   1.00
H122   H     0.14510   0.27410   0.54400   0.01267  Uiso   1.00
H123   H     0.58680   0.91110   0.80680   0.01267  Uiso   1.00
H124   H     0.61090   0.89490   0.92180   0.01267  Uiso   1.00
H125   H     0.54970   0.99990   0.92340   0.01267  Uiso   1.00
H126   H     0.52230   0.01470   0.80900   0.01267  Uiso   1.00
H127   H     0.82060   0.53270   0.79560   0.01267  Uiso   1.00
H128   H     0.80210   0.49650   0.73640   0.01267  Uiso   1.00
H129   H     0.88390   0.33420   0.80640   0.01267  Uiso   1.00
H130   H     0.75720   0.39890   0.71360   0.01267  Uiso   1.00
H131   H     0.75110   0.32010   0.67200   0.01267  Uiso   1.00
H132   H     0.92070   0.21850   0.70320   0.01267  Uiso   1.00
H133   H     0.92340   0.29360   0.74720   0.01267  Uiso   1.00
H134   H     0.95480   0.38260   0.39240   0.01267  Uiso   1.00
H135   H     0.93710   0.39650   0.46360   0.01267  Uiso   1.00
H136   H     0.87890   0.19210   0.47480   0.01267  Uiso   1.00
H137   H     0.95330   0.34550   0.53460   0.01267  Uiso   1.00
H138   H     0.91870   0.31750   0.60880   0.01267  Uiso   1.00
H139   H     0.77980   0.15330   0.61720   0.01267  Uiso   1.00
H140   H     0.81090   0.18190   0.54400   0.01267  Uiso   1.00
H141   H     0.10640   0.28210   0.80680   0.01267  Uiso   1.00
H142   H     0.96730   0.18330   0.92180   0.01267  Uiso   1.00
H143   H     0.02690   0.07670   0.92340   0.01267  Uiso   1.00
H144   H     0.16870   0.17630   0.80900   0.01267  Uiso   1.00
C1     C     0.48736   0.83056   0.29048   0.01267  Uiso   1.00
C2     C     0.46778   0.82018   0.25804   0.01267  Uiso   1.00
C3     C     0.37889   0.86479   0.29682   0.01267  Uiso   1.00
C4     C     0.35101   0.83921   0.23478   0.01267  Uiso   1.00
C5     C     0.36143   0.78883   0.21234   0.01267  Uiso   1.00
C6     C     0.31420   0.78550   0.18740   0.01267  Uiso   1.00
C7     C     0.26036   0.83186   0.18568   0.01267  Uiso   1.00
C8     C     0.25318   0.88628   0.20644   0.01267  Uiso   1.00
C9     C     0.29877   0.88857   0.23206   0.01267  Uiso   1.00
C10    C     0.34502   0.93862   0.91816   0.01267  Uiso   1.00
C11    C     0.35282   0.92932   0.95736   0.01267  Uiso   1.00
C12    C     0.24107   0.89837   0.96306   0.01267  Uiso   1.00
C13    C     0.26712   0.88532   0.03176   0.01267  Uiso   1.00
C14    C     0.30692   0.91762   0.05116   0.01267  Uiso   1.00
C15    C     0.28988   0.89718   0.09564   0.01267  Uiso   1.00
C16    C     0.23252   0.84542   0.11996   0.01267  Uiso   1.00
C17    C     0.19274   0.81444   0.10052   0.01267  Uiso   1.00
C18    C     0.20943   0.83323   0.05674   0.01267  Uiso   1.00
C19    C     0.31197   0.99077   0.36346   0.01267  Uiso   1.00
C20    C     0.24399   0.03039   0.36422   0.01267  Uiso   1.00
C21    C     0.24090   0.09070   0.33060   0.01267  Uiso   1.00
C22    C     0.18231   0.00771   0.39878   0.01267  Uiso   1.00
C23    C     0.04779   0.14509   0.36842   0.01267  Uiso   1.00
C24    C     0.11596   0.10516   0.36688   0.01267  Uiso   1.00
C25    C     0.11842   0.04402   0.39996   0.01267  Uiso   1.00
C26    C     0.17732   0.12819   0.33182   0.01267  Uiso   1.00
C27    C     0.72216   0.87896   0.29048   0.01267  Uiso   1.00
C28    C     0.77418   0.92178   0.25804   0.01267  Uiso   1.00
C29    C     0.82429   0.83839   0.29682   0.01267  Uiso   1.00
C30    C     0.91421   0.92601   0.23478   0.01267  Uiso   1.00
C31    C     0.92623   0.99883   0.21234   0.01267  Uiso   1.00
C32    C     0.99840   0.02710   0.18740   0.01267  Uiso   1.00
C33    C     0.05396   0.98246   0.18568   0.01267  Uiso   1.00
C34    C     0.04038   0.90728   0.20644   0.01267  Uiso   1.00
C35    C     0.96917   0.87937   0.23206   0.01267  Uiso   1.00
C36    C     0.23682   0.14322   0.91816   0.01267  Uiso   1.00
C37    C     0.18982   0.11332   0.95736   0.01267  Uiso   1.00
C38    C     0.29587   0.13857   0.96306   0.01267  Uiso   1.00
C39    C     0.20112   0.08292   0.03176   0.01267  Uiso   1.00
C40    C     0.14192   0.03122   0.05116   0.01267  Uiso   1.00
C41    C     0.11448   0.00718   0.09564   0.01267  Uiso   1.00
C42    C     0.14752   0.03462   0.11996   0.01267  Uiso   1.00
C43    C     0.20674   0.08504   0.10052   0.01267  Uiso   1.00
C44    C     0.23383   0.11003   0.05674   0.01267  Uiso   1.00
C45    C     0.82457   0.64577   0.36346   0.01267  Uiso   1.00
C46    C     0.89179   0.60539   0.36422   0.01267  Uiso   1.00
C47    C     0.92850   0.57870   0.33060   0.01267  Uiso   1.00
C48    C     0.91891   0.59351   0.39878   0.01267  Uiso   1.00
C49    C     0.08379   0.48649   0.36842   0.01267  Uiso   1.00
C50    C     0.01716   0.52796   0.36688   0.01267  Uiso   1.00
C51    C     0.98162   0.55602   0.39996   0.01267  Uiso   1.00
C52    C     0.99086   0.53999   0.33182   0.01267  Uiso   1.00
C53    C     0.33056   0.22216   0.79048   0.01267  Uiso   1.00
C54    C     0.32018   0.27418   0.75804   0.01267  Uiso   1.00
C55    C     0.36479   0.32429   0.79682   0.01267  Uiso   1.00
C56    C     0.33921   0.41421   0.73478   0.01267  Uiso   1.00
C57    C     0.28883   0.42623   0.71234   0.01267  Uiso   1.00
C58    C     0.28550   0.49840   0.68740   0.01267  Uiso   1.00
C59    C     0.33186   0.55396   0.68568   0.01267  Uiso   1.00
C60    C     0.38628   0.54038   0.70644   0.01267  Uiso   1.00
C61    C     0.38857   0.46917   0.73206   0.01267  Uiso   1.00
C62    C     0.43862   0.73682   0.41816   0.01267  Uiso   1.00
C63    C     0.42932   0.68982   0.45736   0.01267  Uiso   1.00
C64    C     0.39837   0.79587   0.46306   0.01267  Uiso   1.00
C65    C     0.38532   0.70112   0.53176   0.01267  Uiso   1.00
C66    C     0.41762   0.64192   0.55116   0.01267  Uiso   1.00
C67    C     0.39718   0.61448   0.59564   0.01267  Uiso   1.00
C68    C     0.34542   0.64752   0.61996   0.01267  Uiso   1.00
C69    C     0.31444   0.70674   0.60052   0.01267  Uiso   1.00
C70    C     0.33323   0.73383   0.55674   0.01267  Uiso   1.00
C71    C     0.49077   0.32457   0.86346   0.01267  Uiso   1.00
C72    C     0.53039   0.39179   0.86422   0.01267  Uiso   1.00
C73    C     0.59070   0.42850   0.83060   0.01267  Uiso   1.00
C74    C     0.50771   0.41891   0.89878   0.01267  Uiso   1.00
C75    C     0.64509   0.58379   0.86842   0.01267  Uiso   1.00
C76    C     0.60516   0.51716   0.86688   0.01267  Uiso   1.00
C77    C     0.54402   0.48162   0.89996   0.01267  Uiso   1.00
C78    C     0.62819   0.49086   0.83182   0.01267  Uiso   1.00
C79    C     0.37896   0.98736   0.79048   0.01267  Uiso   1.00
C80    C     0.42178   0.96778   0.75804   0.01267  Uiso   1.00
C81    C     0.33839   0.87889   0.79682   0.01267  Uiso   1.00
C82    C     0.42601   0.85101   0.73478   0.01267  Uiso   1.00
C83    C     0.49883   0.86143   0.71234   0.01267  Uiso   1.00
C84    C     0.52710   0.81420   0.68740   0.01267  Uiso   1.00
C85    C     0.48246   0.76036   0.68568   0.01267  Uiso   1.00
C86    C     0.40728   0.75318   0.70644   0.01267  Uiso   1.00
C87    C     0.37937   0.79877   0.73206   0.01267  Uiso   1.00
C88    C     0.64322   0.84502   0.41816   0.01267  Uiso   1.00
C89    C     0.61332   0.85282   0.45736   0.01267  Uiso   1.00
C90    C     0.63857   0.74107   0.46306   0.01267  Uiso   1.00
C91    C     0.58292   0.76712   0.53176   0.01267  Uiso   1.00
C92    C     0.53122   0.80692   0.55116   0.01267  Uiso   1.00
C93    C     0.50718   0.78988   0.59564   0.01267  Uiso   1.00
C94    C     0.53462   0.73252   0.61996   0.01267  Uiso   1.00
C95    C     0.58504   0.69274   0.60052   0.01267  Uiso   1.00
C96    C     0.61003   0.70943   0.55674   0.01267  Uiso   1.00
C97    C     0.14577   0.81197   0.86346   0.01267  Uiso   1.00
C98    C     0.10539   0.74399   0.86422   0.01267  Uiso   1.00
C99    C     0.07870   0.74090   0.83060   0.01267  Uiso   1.00
C100   C     0.09351   0.68231   0.89878   0.01267  Uiso   1.00
C101   C     0.98649   0.54779   0.86842   0.01267  Uiso   1.00
C102   C     0.02796   0.61596   0.86688   0.01267  Uiso   1.00
C103   C     0.05602   0.61842   0.89996   0.01267  Uiso   1.00
C104   C     0.03999   0.67732   0.83182   0.01267  Uiso   1.00
C105   C     0.22216   0.33056   0.29048   0.01267  Uiso   1.00
C106   C     0.27418   0.32018   0.25804   0.01267  Uiso   1.00
C107   C     0.32429   0.36479   0.29682   0.01267  Uiso   1.00
C108   C     0.41421   0.33921   0.23478   0.01267  Uiso   1.00
C109   C     0.42623   0.28883   0.21234   0.01267  Uiso   1.00
C110   C     0.49840   0.28550   0.18740   0.01267  Uiso   1.00
C111   C     0.55396   0.33186   0.18568   0.01267  Uiso   1.00
C112   C     0.54038   0.38628   0.20644   0.01267  Uiso   1.00
C113   C     0.46917   0.38857   0.23206   0.01267  Uiso   1.00
C114   C     0.73682   0.43862   0.91816   0.01267  Uiso   1.00
C115   C     0.68982   0.42932   0.95736   0.01267  Uiso   1.00
C116   C     0.79587   0.39837   0.96306   0.01267  Uiso   1.00
C117   C     0.70112   0.38532   0.03176   0.01267  Uiso   1.00
C118   C     0.64192   0.41762   0.05116   0.01267  Uiso   1.00
C119   C     0.61448   0.39718   0.09564   0.01267  Uiso   1.00
C120   C     0.64752   0.34542   0.11996   0.01267  Uiso   1.00
C121   C     0.70674   0.31444   0.10052   0.01267  Uiso   1.00
C122   C     0.73383   0.33323   0.05674   0.01267  Uiso   1.00
C123   C     0.32457   0.49077   0.36346   0.01267  Uiso   1.00
C124   C     0.39179   0.53039   0.36422   0.01267  Uiso   1.00
C125   C     0.42850   0.59070   0.33060   0.01267  Uiso   1.00
C126   C     0.41891   0.50771   0.39878   0.01267  Uiso   1.00
C127   C     0.58379   0.64509   0.36842   0.01267  Uiso   1.00
C128   C     0.51716   0.60516   0.36688   0.01267  Uiso   1.00
C129   C     0.48162   0.54402   0.39996   0.01267  Uiso   1.00
C130   C     0.49086   0.62819   0.33182   0.01267  Uiso   1.00
C131   C     0.98736   0.37896   0.29048   0.01267  Uiso   1.00
C132   C     0.96778   0.42178   0.25804   0.01267  Uiso   1.00
C133   C     0.87889   0.33839   0.29682   0.01267  Uiso   1.00
C134   C     0.85101   0.42601   0.23478   0.01267  Uiso   1.00
C135   C     0.86143   0.49883   0.21234   0.01267  Uiso   1.00
C136   C     0.81420   0.52710   0.18740   0.01267  Uiso   1.00
C137   C     0.76036   0.48246   0.18568   0.01267  Uiso   1.00
C138   C     0.75318   0.40728   0.20644   0.01267  Uiso   1.00
C139   C     0.79877   0.37937   0.23206   0.01267  Uiso   1.00
C140   C     0.84502   0.64322   0.91816   0.01267  Uiso   1.00
C141   C     0.85282   0.61332   0.95736   0.01267  Uiso   1.00
C142   C     0.74107   0.63857   0.96306   0.01267  Uiso   1.00
C143   C     0.76712   0.58292   0.03176   0.01267  Uiso   1.00
C144   C     0.80692   0.53122   0.05116   0.01267  Uiso   1.00
C145   C     0.78988   0.50718   0.09564   0.01267  Uiso   1.00
C146   C     0.73252   0.53462   0.11996   0.01267  Uiso   1.00
C147   C     0.69274   0.58504   0.10052   0.01267  Uiso   1.00
C148   C     0.70943   0.61003   0.05674   0.01267  Uiso   1.00
C149   C     0.81197   0.14577   0.36346   0.01267  Uiso   1.00
C150   C     0.74399   0.10539   0.36422   0.01267  Uiso   1.00
C151   C     0.74090   0.07870   0.33060   0.01267  Uiso   1.00
C152   C     0.68231   0.09351   0.39878   0.01267  Uiso   1.00
C153   C     0.54779   0.98649   0.36842   0.01267  Uiso   1.00
C154   C     0.61596   0.02796   0.36688   0.01267  Uiso   1.00
C155   C     0.61842   0.05602   0.39996   0.01267  Uiso   1.00
C156   C     0.67732   0.03999   0.33182   0.01267  Uiso   1.00
C157   C     0.87896   0.72216   0.79048   0.01267  Uiso   1.00
C158   C     0.92178   0.77418   0.75804   0.01267  Uiso   1.00
C159   C     0.83839   0.82429   0.79682   0.01267  Uiso   1.00
C160   C     0.92601   0.91421   0.73478   0.01267  Uiso   1.00
C161   C     0.99883   0.92623   0.71234   0.01267  Uiso   1.00
C162   C     0.02710   0.99840   0.68740   0.01267  Uiso   1.00
C163   C     0.98246   0.05396   0.68568   0.01267  Uiso   1.00
C164   C     0.90728   0.04038   0.70644   0.01267  Uiso   1.00
C165   C     0.87937   0.96917   0.73206   0.01267  Uiso   1.00
C166   C     0.14322   0.23682   0.41816   0.01267  Uiso   1.00
C167   C     0.11332   0.18982   0.45736   0.01267  Uiso   1.00
C168   C     0.13857   0.29587   0.46306   0.01267  Uiso   1.00
C169   C     0.08292   0.20112   0.53176   0.01267  Uiso   1.00
C170   C     0.03122   0.14192   0.55116   0.01267  Uiso   1.00
C171   C     0.00718   0.11448   0.59564   0.01267  Uiso   1.00
C172   C     0.03462   0.14752   0.61996   0.01267  Uiso   1.00
C173   C     0.08504   0.20674   0.60052   0.01267  Uiso   1.00
C174   C     0.11003   0.23383   0.55674   0.01267  Uiso   1.00
C175   C     0.64577   0.82457   0.86346   0.01267  Uiso   1.00
C176   C     0.60539   0.89179   0.86422   0.01267  Uiso   1.00
C177   C     0.57870   0.92850   0.83060   0.01267  Uiso   1.00
C178   C     0.59351   0.91891   0.89878   0.01267  Uiso   1.00
C179   C     0.48649   0.08379   0.86842   0.01267  Uiso   1.00
C180   C     0.52796   0.01716   0.86688   0.01267  Uiso   1.00
C181   C     0.55602   0.98162   0.89996   0.01267  Uiso   1.00
C182   C     0.53999   0.99086   0.83182   0.01267  Uiso   1.00
C183   C     0.83056   0.48736   0.79048   0.01267  Uiso   1.00
C184   C     0.82018   0.46778   0.75804   0.01267  Uiso   1.00
C185   C     0.86479   0.37889   0.79682   0.01267  Uiso   1.00
C186   C     0.83921   0.35101   0.73478   0.01267  Uiso   1.00
C187   C     0.78883   0.36143   0.71234   0.01267  Uiso   1.00
C188   C     0.78550   0.31420   0.68740   0.01267  Uiso   1.00
C189   C     0.83186   0.26036   0.68568   0.01267  Uiso   1.00
C190   C     0.88628   0.25318   0.70644   0.01267  Uiso   1.00
C191   C     0.88857   0.29877   0.73206   0.01267  Uiso   1.00
C192   C     0.93862   0.34502   0.41816   0.01267  Uiso   1.00
C193   C     0.92932   0.35282   0.45736   0.01267  Uiso   1.00
C194   C     0.89837   0.24107   0.46306   0.01267  Uiso   1.00
C195   C     0.88532   0.26712   0.53176   0.01267  Uiso   1.00
C196   C     0.91762   0.30692   0.55116   0.01267  Uiso   1.00
C197   C     0.89718   0.28988   0.59564   0.01267  Uiso   1.00
C198   C     0.84542   0.23252   0.61996   0.01267  Uiso   1.00
C199   C     0.81444   0.19274   0.60052   0.01267  Uiso   1.00
C200   C     0.83323   0.20943   0.55674   0.01267  Uiso   1.00
C201   C     0.99077   0.31197   0.86346   0.01267  Uiso   1.00
C202   C     0.03039   0.24399   0.86422   0.01267  Uiso   1.00
C203   C     0.09070   0.24090   0.83060   0.01267  Uiso   1.00
C204   C     0.00771   0.18231   0.89878   0.01267  Uiso   1.00
C205   C     0.14509   0.04779   0.86842   0.01267  Uiso   1.00
C206   C     0.10516   0.11596   0.86688   0.01267  Uiso   1.00
C207   C     0.04402   0.11842   0.89996   0.01267  Uiso   1.00
C208   C     0.12819   0.17732   0.83182   0.01267  Uiso   1.00
N1     N     0.43115   0.85815   0.31550   0.01267  Uiso   1.00
N2     N     0.39756   0.84081   0.26202   0.01267  Uiso   1.00
N3     N     0.27345   0.92075   0.92230   0.01267  Uiso   1.00
N4     N     0.28496   0.90616   0.98668   0.01267  Uiso   1.00
N5     N     0.75335   0.82635   0.31550   0.01267  Uiso   1.00
N6     N     0.84042   0.89717   0.26202   0.01267  Uiso   1.00
N7     N     0.30425   0.15695   0.92230   0.01267  Uiso   1.00
N8     N     0.22836   0.10716   0.98668   0.01267  Uiso   1.00
N9     N     0.35815   0.25335   0.81550   0.01267  Uiso   1.00
N10    N     0.34081   0.34042   0.76202   0.01267  Uiso   1.00
N11    N     0.42075   0.80425   0.42230   0.01267  Uiso   1.00
N12    N     0.40616   0.72836   0.48668   0.01267  Uiso   1.00
N13    N     0.32635   0.93115   0.81550   0.01267  Uiso   1.00
N14    N     0.39717   0.89756   0.76202   0.01267  Uiso   1.00
N15    N     0.65695   0.77345   0.42230   0.01267  Uiso   1.00
N16    N     0.60716   0.78496   0.48668   0.01267  Uiso   1.00
N17    N     0.25335   0.35815   0.31550   0.01267  Uiso   1.00
N18    N     0.34042   0.34081   0.26202   0.01267  Uiso   1.00
N19    N     0.80425   0.42075   0.92230   0.01267  Uiso   1.00
N20    N     0.72836   0.40616   0.98668   0.01267  Uiso   1.00
N21    N     0.93115   0.32635   0.31550   0.01267  Uiso   1.00
N22    N     0.89756   0.39717   0.26202   0.01267  Uiso   1.00
N23    N     0.77345   0.65695   0.92230   0.01267  Uiso   1.00
N24    N     0.78496   0.60716   0.98668   0.01267  Uiso   1.00
N25    N     0.82635   0.75335   0.81550   0.01267  Uiso   1.00
N26    N     0.89717   0.84042   0.76202   0.01267  Uiso   1.00
N27    N     0.15695   0.30425   0.42230   0.01267  Uiso   1.00
N28    N     0.10716   0.22836   0.48668   0.01267  Uiso   1.00
N29    N     0.85815   0.43115   0.81550   0.01267  Uiso   1.00
N30    N     0.84081   0.39756   0.76202   0.01267  Uiso   1.00
N31    N     0.92075   0.27345   0.42230   0.01267  Uiso   1.00
N32    N     0.90616   0.28496   0.48668   0.01267  Uiso   1.00
O1     O     0.36648   0.01017   0.33132   0.01267  Uiso   1.00
O2     O     0.31215   0.93702   0.39530   0.01267  Uiso   1.00
O3     O     0.05076   0.20526   0.34044   0.01267  Uiso   1.00
O4     O     0.99069   0.11945   0.39766   0.01267  Uiso   1.00
O5     O     0.20938   0.82593   0.16414   0.01267  Uiso   1.00
O6     O     0.80220   0.65851   0.33132   0.01267  Uiso   1.00
O7     O     0.79255   0.66768   0.39530   0.01267  Uiso   1.00
O8     O     0.10880   0.45430   0.34044   0.01267  Uiso   1.00
O9     O     0.11165   0.48289   0.39766   0.01267  Uiso   1.00
O10    O     0.12648   0.00993   0.16414   0.01267  Uiso   1.00
O11    O     0.51017   0.30220   0.83132   0.01267  Uiso   1.00
O12    O     0.43702   0.29255   0.89530   0.01267  Uiso   1.00
O13    O     0.70526   0.60880   0.84044   0.01267  Uiso   1.00
O14    O     0.61945   0.61165   0.89766   0.01267  Uiso   1.00
O15    O     0.32593   0.62648   0.66414   0.01267  Uiso   1.00
O16    O     0.15851   0.86648   0.83132   0.01267  Uiso   1.00
O17    O     0.16768   0.81215   0.89530   0.01267  Uiso   1.00
O18    O     0.95430   0.55076   0.84044   0.01267  Uiso   1.00
O19    O     0.98289   0.49069   0.89766   0.01267  Uiso   1.00
O20    O     0.50993   0.70938   0.66414   0.01267  Uiso   1.00
O21    O     0.30220   0.51017   0.33132   0.01267  Uiso   1.00
O22    O     0.29255   0.43702   0.39530   0.01267  Uiso   1.00
O23    O     0.60880   0.70526   0.34044   0.01267  Uiso   1.00
O24    O     0.61165   0.61945   0.39766   0.01267  Uiso   1.00
O25    O     0.62648   0.32593   0.16414   0.01267  Uiso   1.00
O26    O     0.86648   0.15851   0.33132   0.01267  Uiso   1.00
O27    O     0.81215   0.16768   0.39530   0.01267  Uiso   1.00
O28    O     0.55076   0.95430   0.34044   0.01267  Uiso   1.00
O29    O     0.49069   0.98289   0.39766   0.01267  Uiso   1.00
O30    O     0.70938   0.50993   0.16414   0.01267  Uiso   1.00
O31    O     0.65851   0.80220   0.83132   0.01267  Uiso   1.00
O32    O     0.66768   0.79255   0.89530   0.01267  Uiso   1.00
O33    O     0.45430   0.10880   0.84044   0.01267  Uiso   1.00
O34    O     0.48289   0.11165   0.89766   0.01267  Uiso   1.00
O35    O     0.00993   0.12648   0.66414   0.01267  Uiso   1.00
O36    O     0.01017   0.36648   0.83132   0.01267  Uiso   1.00
O37    O     0.93702   0.31215   0.89530   0.01267  Uiso   1.00
O38    O     0.20526   0.05076   0.84044   0.01267  Uiso   1.00
O39    O     0.11945   0.99069   0.89766   0.01267  Uiso   1.00
O40    O     0.82593   0.20938   0.66414   0.01267  Uiso   1.00
Cd9    Cd    0.79787   0.59151   0.63060   0.01267  Uiso   1.00
Cd10   Cd    0.07153   0.77789   0.63060   0.01267  Uiso   1.00
Cd11   Cd    0.27789   0.29787   0.13060   0.01267  Uiso   1.00
Cd12   Cd    0.09151   0.57153   0.13060   0.01267  Uiso   1.00
Cd13   Cd    0.57153   0.09151   0.63060   0.01267  Uiso   1.00
Cd14   Cd    0.29787   0.27789   0.63060   0.01267  Uiso   1.00
Cd15   Cd    0.59151   0.79787   0.13060   0.01267  Uiso   1.00
Cd16   Cd    0.77789   0.07153   0.13060   0.01267  Uiso   1.00
H145   H     0.82830   0.67940   0.70440   0.01267  Uiso   1.00
H146   H     0.73290   0.69790   0.76360   0.01267  Uiso   1.00
H147   H     0.64060   0.61610   0.69360   0.01267  Uiso   1.00
H148   H     0.61250   0.74280   0.78640   0.01267  Uiso   1.00
H149   H     0.49210   0.74890   0.82800   0.01267  Uiso   1.00
H150   H     0.42170   0.57930   0.79680   0.01267  Uiso   1.00
H151   H     0.54080   0.57660   0.75280   0.01267  Uiso   1.00
H152   H     0.27500   0.54520   0.10760   0.01267  Uiso   1.00
H153   H     0.36010   0.56290   0.03640   0.01267  Uiso   1.00
H154   H     0.16690   0.62110   0.02520   0.01267  Uiso   1.00
H155   H     0.38010   0.54670   0.96540   0.01267  Uiso   1.00
H156   H     0.42630   0.58130   0.89120   0.01267  Uiso   1.00
H157   H     0.27050   0.72020   0.88280   0.01267  Uiso   1.00
H158   H     0.22590   0.68910   0.95600   0.01267  Uiso   1.00
H159   H     0.58890   0.39360   0.69320   0.01267  Uiso   1.00
H160   H     0.60510   0.53270   0.57820   0.01267  Uiso   1.00
H161   H     0.50010   0.47310   0.57660   0.01267  Uiso   1.00
H162   H     0.48530   0.33130   0.69100   0.01267  Uiso   1.00
H163   H     0.96730   0.61620   0.70440   0.01267  Uiso   1.00
H164   H     0.00350   0.53850   0.76360   0.01267  Uiso   1.00
H165   H     0.16580   0.69030   0.69360   0.01267  Uiso   1.00
H166   H     0.10110   0.47080   0.78640   0.01267  Uiso   1.00
H167   H     0.17990   0.42310   0.82800   0.01267  Uiso   1.00
H168   H     0.28150   0.62390   0.79680   0.01267  Uiso   1.00
H169   H     0.20640   0.67060   0.75280   0.01267  Uiso   1.00
H170   H     0.11740   0.34720   0.10760   0.01267  Uiso   1.00
H171   H     0.10350   0.40070   0.03640   0.01267  Uiso   1.00
H172   H     0.30790   0.35370   0.02520   0.01267  Uiso   1.00
H173   H     0.15450   0.48790   0.96540   0.01267  Uiso   1.00
H174   H     0.18250   0.52750   0.89120   0.01267  Uiso   1.00
H175   H     0.34670   0.39700   0.88280   0.01267  Uiso   1.00
H176   H     0.31810   0.35490   0.95600   0.01267  Uiso   1.00
H177   H     0.21790   0.91320   0.69320   0.01267  Uiso   1.00
H178   H     0.31670   0.88910   0.57820   0.01267  Uiso   1.00
H179   H     0.42330   0.95030   0.57660   0.01267  Uiso   1.00
H180   H     0.32370   0.97770   0.69100   0.01267  Uiso   1.00
H181   H     0.11620   0.32830   0.20440   0.01267  Uiso   1.00
H182   H     0.03850   0.23290   0.26360   0.01267  Uiso   1.00
H183   H     0.19030   0.14060   0.19360   0.01267  Uiso   1.00
H184   H     0.97080   0.11250   0.28640   0.01267  Uiso   1.00
H185   H     0.92310   0.99210   0.32800   0.01267  Uiso   1.00
H186   H     0.12390   0.92170   0.29680   0.01267  Uiso   1.00
H187   H     0.17060   0.04080   0.25280   0.01267  Uiso   1.00
H188   H     0.84720   0.77500   0.60760   0.01267  Uiso   1.00
H189   H     0.90070   0.86010   0.53640   0.01267  Uiso   1.00
H190   H     0.85370   0.66690   0.52520   0.01267  Uiso   1.00
H191   H     0.98790   0.88010   0.46540   0.01267  Uiso   1.00
H192   H     0.02750   0.92630   0.39120   0.01267  Uiso   1.00
H193   H     0.89700   0.77050   0.38280   0.01267  Uiso   1.00
H194   H     0.85490   0.72590   0.45600   0.01267  Uiso   1.00
H195   H     0.41320   0.08890   0.19320   0.01267  Uiso   1.00
H196   H     0.38910   0.10510   0.07820   0.01267  Uiso   1.00
H197   H     0.45030   0.00010   0.07660   0.01267  Uiso   1.00
H198   H     0.47770   0.98530   0.19100   0.01267  Uiso   1.00
H199   H     0.17940   0.46730   0.20440   0.01267  Uiso   1.00
H200   H     0.19790   0.50350   0.26360   0.01267  Uiso   1.00
H201   H     0.11610   0.66580   0.19360   0.01267  Uiso   1.00
H202   H     0.24280   0.60110   0.28640   0.01267  Uiso   1.00
H203   H     0.24890   0.67990   0.32800   0.01267  Uiso   1.00
H204   H     0.07930   0.78150   0.29680   0.01267  Uiso   1.00
H205   H     0.07660   0.70640   0.25280   0.01267  Uiso   1.00
H206   H     0.04520   0.61740   0.60760   0.01267  Uiso   1.00
H207   H     0.06290   0.60350   0.53640   0.01267  Uiso   1.00
H208   H     0.12110   0.80790   0.52520   0.01267  Uiso   1.00
H209   H     0.04670   0.65450   0.46540   0.01267  Uiso   1.00
H210   H     0.08130   0.68250   0.39120   0.01267  Uiso   1.00
H211   H     0.22020   0.84670   0.38280   0.01267  Uiso   1.00
H212   H     0.18910   0.81810   0.45600   0.01267  Uiso   1.00
H213   H     0.89360   0.71790   0.19320   0.01267  Uiso   1.00
H214   H     0.03270   0.81670   0.07820   0.01267  Uiso   1.00
H215   H     0.97310   0.92330   0.07660   0.01267  Uiso   1.00
H216   H     0.83130   0.82370   0.19100   0.01267  Uiso   1.00
H217   H     0.46730   0.17940   0.70440   0.01267  Uiso   1.00
H218   H     0.50350   0.19790   0.76360   0.01267  Uiso   1.00
H219   H     0.66580   0.11610   0.69360   0.01267  Uiso   1.00
H220   H     0.60110   0.24280   0.78640   0.01267  Uiso   1.00
H221   H     0.67990   0.24890   0.82800   0.01267  Uiso   1.00
H222   H     0.78150   0.07930   0.79680   0.01267  Uiso   1.00
H223   H     0.70640   0.07660   0.75280   0.01267  Uiso   1.00
H224   H     0.61740   0.04520   0.10760   0.01267  Uiso   1.00
H225   H     0.60350   0.06290   0.03640   0.01267  Uiso   1.00
H226   H     0.80790   0.12110   0.02520   0.01267  Uiso   1.00
H227   H     0.65450   0.04670   0.96540   0.01267  Uiso   1.00
H228   H     0.68250   0.08130   0.89120   0.01267  Uiso   1.00
H229   H     0.84670   0.22020   0.88280   0.01267  Uiso   1.00
H230   H     0.81810   0.18910   0.95600   0.01267  Uiso   1.00
H231   H     0.71790   0.89360   0.69320   0.01267  Uiso   1.00
H232   H     0.81670   0.03270   0.57820   0.01267  Uiso   1.00
H233   H     0.92330   0.97310   0.57660   0.01267  Uiso   1.00
H234   H     0.82370   0.83130   0.69100   0.01267  Uiso   1.00
H235   H     0.32830   0.11620   0.70440   0.01267  Uiso   1.00
H236   H     0.23290   0.03850   0.76360   0.01267  Uiso   1.00
H237   H     0.14060   0.19030   0.69360   0.01267  Uiso   1.00
H238   H     0.11250   0.97080   0.78640   0.01267  Uiso   1.00
H239   H     0.99210   0.92310   0.82800   0.01267  Uiso   1.00
H240   H     0.92170   0.12390   0.79680   0.01267  Uiso   1.00
H241   H     0.04080   0.17060   0.75280   0.01267  Uiso   1.00
H242   H     0.77500   0.84720   0.10760   0.01267  Uiso   1.00
H243   H     0.86010   0.90070   0.03640   0.01267  Uiso   1.00
H244   H     0.66690   0.85370   0.02520   0.01267  Uiso   1.00
H245   H     0.88010   0.98790   0.96540   0.01267  Uiso   1.00
H246   H     0.92630   0.02750   0.89120   0.01267  Uiso   1.00
H247   H     0.77050   0.89700   0.88280   0.01267  Uiso   1.00
H248   H     0.72590   0.85490   0.95600   0.01267  Uiso   1.00
H249   H     0.08890   0.41320   0.69320   0.01267  Uiso   1.00
H250   H     0.10510   0.38910   0.57820   0.01267  Uiso   1.00
H251   H     0.00010   0.45030   0.57660   0.01267  Uiso   1.00
H252   H     0.98530   0.47770   0.69100   0.01267  Uiso   1.00
H253   H     0.67940   0.82830   0.20440   0.01267  Uiso   1.00
H254   H     0.69790   0.73290   0.26360   0.01267  Uiso   1.00
H255   H     0.61610   0.64060   0.19360   0.01267  Uiso   1.00
H256   H     0.74280   0.61250   0.28640   0.01267  Uiso   1.00
H257   H     0.74890   0.49210   0.32800   0.01267  Uiso   1.00
H258   H     0.57930   0.42170   0.29680   0.01267  Uiso   1.00
H259   H     0.57660   0.54080   0.25280   0.01267  Uiso   1.00
H260   H     0.54520   0.27500   0.60760   0.01267  Uiso   1.00
H261   H     0.56290   0.36010   0.53640   0.01267  Uiso   1.00
H262   H     0.62110   0.16690   0.52520   0.01267  Uiso   1.00
H263   H     0.54670   0.38010   0.46540   0.01267  Uiso   1.00
H264   H     0.58130   0.42630   0.39120   0.01267  Uiso   1.00
H265   H     0.72020   0.27050   0.38280   0.01267  Uiso   1.00
H266   H     0.68910   0.22590   0.45600   0.01267  Uiso   1.00
H267   H     0.39360   0.58890   0.19320   0.01267  Uiso   1.00
H268   H     0.53270   0.60510   0.07820   0.01267  Uiso   1.00
H269   H     0.47310   0.50010   0.07660   0.01267  Uiso   1.00
H270   H     0.33130   0.48530   0.19100   0.01267  Uiso   1.00
H271   H     0.61620   0.96730   0.20440   0.01267  Uiso   1.00
H272   H     0.53850   0.00350   0.26360   0.01267  Uiso   1.00
H273   H     0.69030   0.16580   0.19360   0.01267  Uiso   1.00
H274   H     0.47080   0.10110   0.28640   0.01267  Uiso   1.00
H275   H     0.42310   0.17990   0.32800   0.01267  Uiso   1.00
H276   H     0.62390   0.28150   0.29680   0.01267  Uiso   1.00
H277   H     0.67060   0.20640   0.25280   0.01267  Uiso   1.00
H278   H     0.34720   0.11740   0.60760   0.01267  Uiso   1.00
H279   H     0.40070   0.10350   0.53640   0.01267  Uiso   1.00
H280   H     0.35370   0.30790   0.52520   0.01267  Uiso   1.00
H281   H     0.48790   0.15450   0.46540   0.01267  Uiso   1.00
H282   H     0.52750   0.18250   0.39120   0.01267  Uiso   1.00
H283   H     0.39700   0.34670   0.38280   0.01267  Uiso   1.00
H284   H     0.35490   0.31810   0.45600   0.01267  Uiso   1.00
H285   H     0.91320   0.21790   0.19320   0.01267  Uiso   1.00
H286   H     0.88910   0.31670   0.07820   0.01267  Uiso   1.00
H287   H     0.95030   0.42330   0.07660   0.01267  Uiso   1.00
H288   H     0.97770   0.32370   0.19100   0.01267  Uiso   1.00
C209   C     0.77784   0.66944   0.70952   0.01267  Uiso   1.00
C210   C     0.72582   0.67982   0.74196   0.01267  Uiso   1.00
C211   C     0.67571   0.63521   0.70318   0.01267  Uiso   1.00
C212   C     0.58579   0.66079   0.76522   0.01267  Uiso   1.00
C213   C     0.57377   0.71117   0.78766   0.01267  Uiso   1.00
C214   C     0.50160   0.71450   0.81260   0.01267  Uiso   1.00
C215   C     0.44604   0.66814   0.81432   0.01267  Uiso   1.00
C216   C     0.45962   0.61372   0.79356   0.01267  Uiso   1.00
C217   C     0.53083   0.61143   0.76794   0.01267  Uiso   1.00
C218   C     0.26318   0.56138   0.08184   0.01267  Uiso   1.00
C219   C     0.31018   0.57068   0.04264   0.01267  Uiso   1.00
C220   C     0.20413   0.60163   0.03694   0.01267  Uiso   1.00
C221   C     0.29888   0.61468   0.96824   0.01267  Uiso   1.00
C222   C     0.35808   0.58238   0.94884   0.01267  Uiso   1.00
C223   C     0.38552   0.60282   0.90436   0.01267  Uiso   1.00
C224   C     0.35248   0.65458   0.88004   0.01267  Uiso   1.00
C225   C     0.29326   0.68556   0.89948   0.01267  Uiso   1.00
C226   C     0.26617   0.66677   0.94326   0.01267  Uiso   1.00
C227   C     0.67543   0.50923   0.63654   0.01267  Uiso   1.00
C228   C     0.60821   0.46961   0.63578   0.01267  Uiso   1.00
C229   C     0.57150   0.40930   0.66940   0.01267  Uiso   1.00
C230   C     0.58109   0.49229   0.60122   0.01267  Uiso   1.00
C231   C     0.41621   0.35491   0.63158   0.01267  Uiso   1.00
C232   C     0.48284   0.39484   0.63312   0.01267  Uiso   1.00
C233   C     0.51838   0.45598   0.60004   0.01267  Uiso   1.00
C234   C     0.50914   0.37181   0.66818   0.01267  Uiso   1.00
C235   C     0.01264   0.62104   0.70952   0.01267  Uiso   1.00
C236   C     0.03222   0.57822   0.74196   0.01267  Uiso   1.00
C237   C     0.12111   0.66161   0.70318   0.01267  Uiso   1.00
C238   C     0.14899   0.57399   0.76522   0.01267  Uiso   1.00
C239   C     0.13857   0.50117   0.78766   0.01267  Uiso   1.00
C240   C     0.18580   0.47290   0.81260   0.01267  Uiso   1.00
C241   C     0.23964   0.51754   0.81432   0.01267  Uiso   1.00
C242   C     0.24682   0.59272   0.79356   0.01267  Uiso   1.00
C243   C     0.20123   0.62063   0.76794   0.01267  Uiso   1.00
C244   C     0.15498   0.35678   0.08184   0.01267  Uiso   1.00
C245   C     0.14718   0.38668   0.04264   0.01267  Uiso   1.00
C246   C     0.25893   0.36143   0.03694   0.01267  Uiso   1.00
C247   C     0.23288   0.41708   0.96824   0.01267  Uiso   1.00
C248   C     0.19308   0.46878   0.94884   0.01267  Uiso   1.00
C249   C     0.21012   0.49282   0.90436   0.01267  Uiso   1.00
C250   C     0.26748   0.46538   0.88004   0.01267  Uiso   1.00
C251   C     0.30726   0.41496   0.89948   0.01267  Uiso   1.00
C252   C     0.29057   0.38997   0.94326   0.01267  Uiso   1.00
C253   C     0.18803   0.85423   0.63654   0.01267  Uiso   1.00
C254   C     0.25601   0.89461   0.63578   0.01267  Uiso   1.00
C255   C     0.25910   0.92130   0.66940   0.01267  Uiso   1.00
C256   C     0.31769   0.90649   0.60122   0.01267  Uiso   1.00
C257   C     0.45221   0.01351   0.63158   0.01267  Uiso   1.00
C258   C     0.38404   0.97204   0.63312   0.01267  Uiso   1.00
C259   C     0.38158   0.94398   0.60004   0.01267  Uiso   1.00
C260   C     0.32268   0.96001   0.66818   0.01267  Uiso   1.00
C261   C     0.12104   0.27784   0.20952   0.01267  Uiso   1.00
C262   C     0.07822   0.22582   0.24196   0.01267  Uiso   1.00
C263   C     0.16161   0.17571   0.20318   0.01267  Uiso   1.00
C264   C     0.07399   0.08579   0.26522   0.01267  Uiso   1.00
C265   C     0.00117   0.07377   0.28766   0.01267  Uiso   1.00
C266   C     0.97290   0.00160   0.31260   0.01267  Uiso   1.00
C267   C     0.01754   0.94604   0.31432   0.01267  Uiso   1.00
C268   C     0.09272   0.95962   0.29356   0.01267  Uiso   1.00
C269   C     0.12063   0.03083   0.26794   0.01267  Uiso   1.00
C270   C     0.85678   0.76318   0.58184   0.01267  Uiso   1.00
C271   C     0.88668   0.81018   0.54264   0.01267  Uiso   1.00
C272   C     0.86143   0.70413   0.53694   0.01267  Uiso   1.00
C273   C     0.91708   0.79888   0.46824   0.01267  Uiso   1.00
C274   C     0.96878   0.85808   0.44884   0.01267  Uiso   1.00
C275   C     0.99282   0.88552   0.40436   0.01267  Uiso   1.00
C276   C     0.96538   0.85248   0.38004   0.01267  Uiso   1.00
C277   C     0.91496   0.79326   0.39948   0.01267  Uiso   1.00
C278   C     0.88997   0.76617   0.44326   0.01267  Uiso   1.00
C279   C     0.35423   0.17543   0.13654   0.01267  Uiso   1.00
C280   C     0.39461   0.10821   0.13578   0.01267  Uiso   1.00
C281   C     0.42130   0.07150   0.16940   0.01267  Uiso   1.00
C282   C     0.40649   0.08109   0.10122   0.01267  Uiso   1.00
C283   C     0.51351   0.91621   0.13158   0.01267  Uiso   1.00
C284   C     0.47204   0.98284   0.13312   0.01267  Uiso   1.00
C285   C     0.44398   0.01838   0.10004   0.01267  Uiso   1.00
C286   C     0.46001   0.00914   0.16818   0.01267  Uiso   1.00
C287   C     0.16944   0.51264   0.20952   0.01267  Uiso   1.00
C288   C     0.17982   0.53222   0.24196   0.01267  Uiso   1.00
C289   C     0.13521   0.62111   0.20318   0.01267  Uiso   1.00
C290   C     0.16079   0.64899   0.26522   0.01267  Uiso   1.00
C291   C     0.21117   0.63857   0.28766   0.01267  Uiso   1.00
C292   C     0.21450   0.68580   0.31260   0.01267  Uiso   1.00
C293   C     0.16814   0.73964   0.31432   0.01267  Uiso   1.00
C294   C     0.11372   0.74682   0.29356   0.01267  Uiso   1.00
C295   C     0.11143   0.70123   0.26794   0.01267  Uiso   1.00
C296   C     0.06138   0.65498   0.58184   0.01267  Uiso   1.00
C297   C     0.07068   0.64718   0.54264   0.01267  Uiso   1.00
C298   C     0.10163   0.75893   0.53694   0.01267  Uiso   1.00
C299   C     0.11468   0.73288   0.46824   0.01267  Uiso   1.00
C300   C     0.08238   0.69308   0.44884   0.01267  Uiso   1.00
C301   C     0.10282   0.71012   0.40436   0.01267  Uiso   1.00
C302   C     0.15458   0.76748   0.38004   0.01267  Uiso   1.00
C303   C     0.18556   0.80726   0.39948   0.01267  Uiso   1.00
C304   C     0.16677   0.79057   0.44326   0.01267  Uiso   1.00
C305   C     0.00923   0.68803   0.13654   0.01267  Uiso   1.00
C306   C     0.96961   0.75601   0.13578   0.01267  Uiso   1.00
C307   C     0.90930   0.75910   0.16940   0.01267  Uiso   1.00
C308   C     0.99229   0.81769   0.10122   0.01267  Uiso   1.00
C309   C     0.85491   0.95221   0.13158   0.01267  Uiso   1.00
C310   C     0.89484   0.88404   0.13312   0.01267  Uiso   1.00
C311   C     0.95598   0.88158   0.10004   0.01267  Uiso   1.00
C312   C     0.87181   0.82268   0.16818   0.01267  Uiso   1.00
C313   C     0.51264   0.16944   0.70952   0.01267  Uiso   1.00
C314   C     0.53222   0.17982   0.74196   0.01267  Uiso   1.00
C315   C     0.62111   0.13521   0.70318   0.01267  Uiso   1.00
C316   C     0.64899   0.16079   0.76522   0.01267  Uiso   1.00
C317   C     0.63857   0.21117   0.78766   0.01267  Uiso   1.00
C318   C     0.68580   0.21450   0.81260   0.01267  Uiso   1.00
C319   C     0.73964   0.16814   0.81432   0.01267  Uiso   1.00
C320   C     0.74682   0.11372   0.79356   0.01267  Uiso   1.00
C321   C     0.70123   0.11143   0.76794   0.01267  Uiso   1.00
C322   C     0.65498   0.06138   0.08184   0.01267  Uiso   1.00
C323   C     0.64718   0.07068   0.04264   0.01267  Uiso   1.00
C324   C     0.75893   0.10163   0.03694   0.01267  Uiso   1.00
C325   C     0.73288   0.11468   0.96824   0.01267  Uiso   1.00
C326   C     0.69308   0.08238   0.94884   0.01267  Uiso   1.00
C327   C     0.71012   0.10282   0.90436   0.01267  Uiso   1.00
C328   C     0.76748   0.15458   0.88004   0.01267  Uiso   1.00
C329   C     0.80726   0.18556   0.89948   0.01267  Uiso   1.00
C330   C     0.79057   0.16677   0.94326   0.01267  Uiso   1.00
C331   C     0.68803   0.00923   0.63654   0.01267  Uiso   1.00
C332   C     0.75601   0.96961   0.63578   0.01267  Uiso   1.00
C333   C     0.75910   0.90930   0.66940   0.01267  Uiso   1.00
C334   C     0.81769   0.99229   0.60122   0.01267  Uiso   1.00
C335   C     0.95221   0.85491   0.63158   0.01267  Uiso   1.00
C336   C     0.88404   0.89484   0.63312   0.01267  Uiso   1.00
C337   C     0.88158   0.95598   0.60004   0.01267  Uiso   1.00
C338   C     0.82268   0.87181   0.66818   0.01267  Uiso   1.00
C339   C     0.27784   0.12104   0.70952   0.01267  Uiso   1.00
C340   C     0.22582   0.07822   0.74196   0.01267  Uiso   1.00
C341   C     0.17571   0.16161   0.70318   0.01267  Uiso   1.00
C342   C     0.08579   0.07399   0.76522   0.01267  Uiso   1.00
C343   C     0.07377   0.00117   0.78766   0.01267  Uiso   1.00
C344   C     0.00160   0.97290   0.81260   0.01267  Uiso   1.00
C345   C     0.94604   0.01754   0.81432   0.01267  Uiso   1.00
C346   C     0.95962   0.09272   0.79356   0.01267  Uiso   1.00
C347   C     0.03083   0.12063   0.76794   0.01267  Uiso   1.00
C348   C     0.76318   0.85678   0.08184   0.01267  Uiso   1.00
C349   C     0.81018   0.88668   0.04264   0.01267  Uiso   1.00
C350   C     0.70413   0.86143   0.03694   0.01267  Uiso   1.00
C351   C     0.79888   0.91708   0.96824   0.01267  Uiso   1.00
C352   C     0.85808   0.96878   0.94884   0.01267  Uiso   1.00
C353   C     0.88552   0.99282   0.90436   0.01267  Uiso   1.00
C354   C     0.85248   0.96538   0.88004   0.01267  Uiso   1.00
C355   C     0.79326   0.91496   0.89948   0.01267  Uiso   1.00
C356   C     0.76617   0.88997   0.94326   0.01267  Uiso   1.00
C357   C     0.17543   0.35423   0.63654   0.01267  Uiso   1.00
C358   C     0.10821   0.39461   0.63578   0.01267  Uiso   1.00
C359   C     0.07150   0.42130   0.66940   0.01267  Uiso   1.00
C360   C     0.08109   0.40649   0.60122   0.01267  Uiso   1.00
C361   C     0.91621   0.51351   0.63158   0.01267  Uiso   1.00
C362   C     0.98284   0.47204   0.63312   0.01267  Uiso   1.00
C363   C     0.01838   0.44398   0.60004   0.01267  Uiso   1.00
C364   C     0.00914   0.46001   0.66818   0.01267  Uiso   1.00
C365   C     0.66944   0.77784   0.20952   0.01267  Uiso   1.00
C366   C     0.67982   0.72582   0.24196   0.01267  Uiso   1.00
C367   C     0.63521   0.67571   0.20318   0.01267  Uiso   1.00
C368   C     0.66079   0.58579   0.26522   0.01267  Uiso   1.00
C369   C     0.71117   0.57377   0.28766   0.01267  Uiso   1.00
C370   C     0.71450   0.50160   0.31260   0.01267  Uiso   1.00
C371   C     0.66814   0.44604   0.31432   0.01267  Uiso   1.00
C372   C     0.61372   0.45962   0.29356   0.01267  Uiso   1.00
C373   C     0.61143   0.53083   0.26794   0.01267  Uiso   1.00
C374   C     0.56138   0.26318   0.58184   0.01267  Uiso   1.00
C375   C     0.57068   0.31018   0.54264   0.01267  Uiso   1.00
C376   C     0.60163   0.20413   0.53694   0.01267  Uiso   1.00
C377   C     0.61468   0.29888   0.46824   0.01267  Uiso   1.00
C378   C     0.58238   0.35808   0.44884   0.01267  Uiso   1.00
C379   C     0.60282   0.38552   0.40436   0.01267  Uiso   1.00
C380   C     0.65458   0.35248   0.38004   0.01267  Uiso   1.00
C381   C     0.68556   0.29326   0.39948   0.01267  Uiso   1.00
C382   C     0.66677   0.26617   0.44326   0.01267  Uiso   1.00
C383   C     0.50923   0.67543   0.13654   0.01267  Uiso   1.00
C384   C     0.46961   0.60821   0.13578   0.01267  Uiso   1.00
C385   C     0.40930   0.57150   0.16940   0.01267  Uiso   1.00
C386   C     0.49229   0.58109   0.10122   0.01267  Uiso   1.00
C387   C     0.35491   0.41621   0.13158   0.01267  Uiso   1.00
C388   C     0.39484   0.48284   0.13312   0.01267  Uiso   1.00
C389   C     0.45598   0.51838   0.10004   0.01267  Uiso   1.00
C390   C     0.37181   0.50914   0.16818   0.01267  Uiso   1.00
C391   C     0.62104   0.01264   0.20952   0.01267  Uiso   1.00
C392   C     0.57822   0.03222   0.24196   0.01267  Uiso   1.00
C393   C     0.66161   0.12111   0.20318   0.01267  Uiso   1.00
C394   C     0.57399   0.14899   0.26522   0.01267  Uiso   1.00
C395   C     0.50117   0.13857   0.28766   0.01267  Uiso   1.00
C396   C     0.47290   0.18580   0.31260   0.01267  Uiso   1.00
C397   C     0.51754   0.23964   0.31432   0.01267  Uiso   1.00
C398   C     0.59272   0.24682   0.29356   0.01267  Uiso   1.00
C399   C     0.62063   0.20123   0.26794   0.01267  Uiso   1.00
C400   C     0.35678   0.15498   0.58184   0.01267  Uiso   1.00
C401   C     0.38668   0.14718   0.54264   0.01267  Uiso   1.00
C402   C     0.36143   0.25893   0.53694   0.01267  Uiso   1.00
C403   C     0.41708   0.23288   0.46824   0.01267  Uiso   1.00
C404   C     0.46878   0.19308   0.44884   0.01267  Uiso   1.00
C405   C     0.49282   0.21012   0.40436   0.01267  Uiso   1.00
C406   C     0.46538   0.26748   0.38004   0.01267  Uiso   1.00
C407   C     0.41496   0.30726   0.39948   0.01267  Uiso   1.00
C408   C     0.38997   0.29057   0.44326   0.01267  Uiso   1.00
C409   C     0.85423   0.18803   0.13654   0.01267  Uiso   1.00
C410   C     0.89461   0.25601   0.13578   0.01267  Uiso   1.00
C411   C     0.92130   0.25910   0.16940   0.01267  Uiso   1.00
C412   C     0.90649   0.31769   0.10122   0.01267  Uiso   1.00
C413   C     0.01351   0.45221   0.13158   0.01267  Uiso   1.00
C414   C     0.97204   0.38404   0.13312   0.01267  Uiso   1.00
C415   C     0.94398   0.38158   0.10004   0.01267  Uiso   1.00
C416   C     0.96001   0.32268   0.16818   0.01267  Uiso   1.00
N33    N     0.74665   0.64185   0.68450   0.01267  Uiso   1.00
N34    N     0.65958   0.65919   0.73798   0.01267  Uiso   1.00
N35    N     0.19575   0.57925   0.07770   0.01267  Uiso   1.00
N36    N     0.27164   0.59384   0.01332   0.01267  Uiso   1.00
N37    N     0.06885   0.67365   0.68450   0.01267  Uiso   1.00
N38    N     0.10244   0.60283   0.73798   0.01267  Uiso   1.00
N39    N     0.22655   0.34305   0.07770   0.01267  Uiso   1.00
N40    N     0.21504   0.39284   0.01332   0.01267  Uiso   1.00
N41    N     0.17365   0.24665   0.18450   0.01267  Uiso   1.00
N42    N     0.10283   0.15958   0.23798   0.01267  Uiso   1.00
N43    N     0.84305   0.69575   0.57770   0.01267  Uiso   1.00
N44    N     0.89284   0.77164   0.51332   0.01267  Uiso   1.00
N45    N     0.14185   0.56885   0.18450   0.01267  Uiso   1.00
N46    N     0.15919   0.60244   0.23798   0.01267  Uiso   1.00
N47    N     0.07925   0.72655   0.57770   0.01267  Uiso   1.00
N48    N     0.09384   0.71504   0.51332   0.01267  Uiso   1.00
N49    N     0.56885   0.14185   0.68450   0.01267  Uiso   1.00
N50    N     0.60244   0.15919   0.73798   0.01267  Uiso   1.00
N51    N     0.72655   0.07925   0.07770   0.01267  Uiso   1.00
N52    N     0.71504   0.09384   0.01332   0.01267  Uiso   1.00
N53    N     0.24665   0.17365   0.68450   0.01267  Uiso   1.00
N54    N     0.15958   0.10283   0.73798   0.01267  Uiso   1.00
N55    N     0.69575   0.84305   0.07770   0.01267  Uiso   1.00
N56    N     0.77164   0.89284   0.01332   0.01267  Uiso   1.00
N57    N     0.64185   0.74665   0.18450   0.01267  Uiso   1.00
N58    N     0.65919   0.65958   0.23798   0.01267  Uiso   1.00
N59    N     0.57925   0.19575   0.57770   0.01267  Uiso   1.00
N60    N     0.59384   0.27164   0.51332   0.01267  Uiso   1.00
N61    N     0.67365   0.06885   0.18450   0.01267  Uiso   1.00
N62    N     0.60283   0.10244   0.23798   0.01267  Uiso   1.00
N63    N     0.34305   0.22655   0.57770   0.01267  Uiso   1.00
N64    N     0.39284   0.21504   0.51332   0.01267  Uiso   1.00
O41    O     0.69780   0.48983   0.66868   0.01267  Uiso   1.00
O42    O     0.70745   0.56298   0.60470   0.01267  Uiso   1.00
O43    O     0.39120   0.29474   0.65956   0.01267  Uiso   1.00
O44    O     0.38835   0.38055   0.60234   0.01267  Uiso   1.00
O45    O     0.37352   0.67407   0.83586   0.01267  Uiso   1.00
O46    O     0.13352   0.84149   0.66868   0.01267  Uiso   1.00
O47    O     0.18785   0.83232   0.60470   0.01267  Uiso   1.00
O48    O     0.44924   0.04570   0.65956   0.01267  Uiso   1.00
O49    O     0.50931   0.01711   0.60234   0.01267  Uiso   1.00
O50    O     0.29062   0.49007   0.83586   0.01267  Uiso   1.00
O51    O     0.34149   0.19780   0.16868   0.01267  Uiso   1.00
O52    O     0.33232   0.20745   0.10470   0.01267  Uiso   1.00
O53    O     0.54570   0.89120   0.15956   0.01267  Uiso   1.00
O54    O     0.51711   0.88835   0.10234   0.01267  Uiso   1.00
O55    O     0.99007   0.87352   0.33586   0.01267  Uiso   1.00
O56    O     0.98983   0.63352   0.16868   0.01267  Uiso   1.00
O57    O     0.06298   0.68785   0.10470   0.01267  Uiso   1.00
O58    O     0.79474   0.94924   0.15956   0.01267  Uiso   1.00
O59    O     0.88055   0.00931   0.10234   0.01267  Uiso   1.00
O60    O     0.17407   0.79062   0.33586   0.01267  Uiso   1.00
O61    O     0.63352   0.98983   0.66868   0.01267  Uiso   1.00
O62    O     0.68785   0.06298   0.60470   0.01267  Uiso   1.00
O63    O     0.94924   0.79474   0.65956   0.01267  Uiso   1.00
O64    O     0.00931   0.88055   0.60234   0.01267  Uiso   1.00
O65    O     0.79062   0.17407   0.83586   0.01267  Uiso   1.00
O66    O     0.19780   0.34149   0.66868   0.01267  Uiso   1.00
O67    O     0.20745   0.33232   0.60470   0.01267  Uiso   1.00
O68    O     0.89120   0.54570   0.65956   0.01267  Uiso   1.00
O69    O     0.88835   0.51711   0.60234   0.01267  Uiso   1.00
O70    O     0.87352   0.99007   0.83586   0.01267  Uiso   1.00
O71    O     0.48983   0.69780   0.16868   0.01267  Uiso   1.00
O72    O     0.56298   0.70745   0.10470   0.01267  Uiso   1.00
O73    O     0.29474   0.39120   0.15956   0.01267  Uiso   1.00
O74    O     0.38055   0.38835   0.10234   0.01267  Uiso   1.00
O75    O     0.67407   0.37352   0.33586   0.01267  Uiso   1.00
O76    O     0.84149   0.13352   0.16868   0.01267  Uiso   1.00
O77    O     0.83232   0.18785   0.10470   0.01267  Uiso   1.00
O78    O     0.04570   0.44924   0.15956   0.01267  Uiso   1.00
O79    O     0.01711   0.50931   0.10234   0.01267  Uiso   1.00
O80    O     0.49007   0.29062   0.33586   0.01267  Uiso   1.00
