data_image0
_cell_length_a       46.371
_cell_length_b       46.371
_cell_length_c       46.371
_cell_angle_alpha    90
_cell_angle_beta     90
_cell_angle_gamma    90

_symmetry_space_group_name_H-M    "P 1"
_symmetry_int_tables_number       1

loop_
  _symmetry_equiv_pos_as_xyz
  'x, y, z'

loop_
  _atom_site_label
  _atom_site_occupancy
  _atom_site_fract_x
  _atom_site_fract_y
  _atom_site_fract_z
  _atom_site_thermal_displace_type
  _atom_site_B_iso_or_equiv
  _atom_site_type_symbol
  O1       1.0000 0.19678  0.49942  0.46046  Biso   1.000  O
  O2       1.0000 0.14921  0.49952  0.46023  Biso   1.000  O
  O3       1.0000 0.03896  0.50048  0.34997  Biso   1.000  O
  O4       1.0000 0.03873  0.50058  0.30241  Biso   1.000  O
  N1       1.0000 0.17258  0.50514  0.32658  Biso   1.000  N
  C1       1.0000 0.22076  0.53024  0.26599  Biso   1.000  C
  C2       1.0000 0.19916  0.52996  0.28697  Biso   1.000  C
  C3       1.0000 0.20155  0.50217  0.40069  Biso   1.000  C
  C4       1.0000 0.20254  0.50347  0.37047  Biso   1.000  C
  C5       1.0000 0.17651  0.50340  0.35545  Biso   1.000  C
  C6       1.0000 0.15044  0.50223  0.36975  Biso   1.000  C
  C7       1.0000 0.14873  0.50087  0.39972  Biso   1.000  C
  C8       1.0000 0.17480  0.50092  0.41560  Biso   1.000  C
  C9       1.0000 0.17308  0.49931  0.44675  Biso   1.000  C
  C10      1.0000 0.05244  0.50070  0.32611  Biso   1.000  C
  C11      1.0000 0.08350  0.50276  0.32439  Biso   1.000  C
  C12      1.0000 0.09938  0.50204  0.35045  Biso   1.000  C
  C13      1.0000 0.12938  0.50309  0.34874  Biso   1.000  C
  C14      1.0000 0.14366  0.50498  0.32270  Biso   1.000  C
  C15      1.0000 0.12862  0.50575  0.29669  Biso   1.000  C
  C16      1.0000 0.09839  0.50468  0.29767  Biso   1.000  C
  C17      1.0000 0.19496  0.50546  0.30412  Biso   1.000  C
  C18      1.0000 0.21240  0.48195  0.30006  Biso   1.000  C
  C19      1.0000 0.23375  0.48203  0.27881  Biso   1.000  C
  C20      1.0000 0.23817  0.50582  0.26165  Biso   1.000  C
  H1       1.0000 0.22366  0.54937  0.25290  Biso   1.000  H
  H2       1.0000 0.18579  0.54886  0.29004  Biso   1.000  H
  H3       1.0000 0.22173  0.50230  0.41245  Biso   1.000  H
  H4       1.0000 0.22300  0.50469  0.35933  Biso   1.000  H
  H5       1.0000 0.12794  0.50009  0.41033  Biso   1.000  H
  H6       1.0000 0.08880  0.50045  0.37120  Biso   1.000  H
  H7       1.0000 0.13977  0.50692  0.27623  Biso   1.000  H
  H8       1.0000 0.08663  0.50518  0.27751  Biso   1.000  H
  H9       1.0000 0.20927  0.46292  0.31322  Biso   1.000  H
  H10      1.0000 0.24705  0.46304  0.27597  Biso   1.000  H
  O5       1.0000 0.19678  0.99942  0.96046  Biso   1.000  O
  O6       1.0000 0.14921  0.99952  0.96023  Biso   1.000  O
  O7       1.0000 0.03896  0.00048  0.84997  Biso   1.000  O
  O8       1.0000 0.03873  0.00058  0.80241  Biso   1.000  O
  N2       1.0000 0.17258  0.00514  0.82658  Biso   1.000  N
  C21      1.0000 0.22076  0.03024  0.76599  Biso   1.000  C
  C22      1.0000 0.19916  0.02996  0.78697  Biso   1.000  C
  C23      1.0000 0.20155  0.00217  0.90069  Biso   1.000  C
  C24      1.0000 0.20254  0.00347  0.87047  Biso   1.000  C
  C25      1.0000 0.17651  0.00340  0.85545  Biso   1.000  C
  C26      1.0000 0.15044  0.00223  0.86975  Biso   1.000  C
  C27      1.0000 0.14873  0.00087  0.89972  Biso   1.000  C
  C28      1.0000 0.17480  0.00092  0.91560  Biso   1.000  C
  C29      1.0000 0.17308  0.99931  0.94675  Biso   1.000  C
  C30      1.0000 0.05244  0.00070  0.82611  Biso   1.000  C
  C31      1.0000 0.08350  0.00276  0.82439  Biso   1.000  C
  C32      1.0000 0.09938  0.00204  0.85045  Biso   1.000  C
  C33      1.0000 0.12938  0.00309  0.84874  Biso   1.000  C
  C34      1.0000 0.14366  0.00498  0.82270  Biso   1.000  C
  C35      1.0000 0.12862  0.00575  0.79669  Biso   1.000  C
  C36      1.0000 0.09839  0.00468  0.79767  Biso   1.000  C
  C37      1.0000 0.19496  0.00546  0.80412  Biso   1.000  C
  C38      1.0000 0.21240  0.98195  0.80006  Biso   1.000  C
  C39      1.0000 0.23375  0.98203  0.77881  Biso   1.000  C
  C40      1.0000 0.23817  0.00582  0.76165  Biso   1.000  C
  H11      1.0000 0.22366  0.04937  0.75290  Biso   1.000  H
  H12      1.0000 0.18579  0.04886  0.79004  Biso   1.000  H
  H13      1.0000 0.22173  0.00230  0.91245  Biso   1.000  H
  H14      1.0000 0.22300  0.00469  0.85933  Biso   1.000  H
  H15      1.0000 0.12794  0.00009  0.91033  Biso   1.000  H
  H16      1.0000 0.08880  0.00045  0.87120  Biso   1.000  H
  H17      1.0000 0.13977  0.00692  0.77623  Biso   1.000  H
  H18      1.0000 0.08663  0.00518  0.77751  Biso   1.000  H
  H19      1.0000 0.20927  0.96292  0.81322  Biso   1.000  H
  H20      1.0000 0.24705  0.96304  0.77597  Biso   1.000  H
  O9       1.0000 0.69678  0.49942  0.96046  Biso   1.000  O
  O10      1.0000 0.64921  0.49952  0.96023  Biso   1.000  O
  O11      1.0000 0.53896  0.50048  0.84997  Biso   1.000  O
  O12      1.0000 0.53873  0.50058  0.80241  Biso   1.000  O
  N3       1.0000 0.67258  0.50514  0.82658  Biso   1.000  N
  C41      1.0000 0.72076  0.53024  0.76599  Biso   1.000  C
  C42      1.0000 0.69916  0.52996  0.78697  Biso   1.000  C
  C43      1.0000 0.70155  0.50217  0.90069  Biso   1.000  C
  C44      1.0000 0.70254  0.50347  0.87047  Biso   1.000  C
  C45      1.0000 0.67651  0.50340  0.85545  Biso   1.000  C
  C46      1.0000 0.65044  0.50223  0.86975  Biso   1.000  C
  C47      1.0000 0.64873  0.50087  0.89972  Biso   1.000  C
  C48      1.0000 0.67480  0.50092  0.91560  Biso   1.000  C
  C49      1.0000 0.67308  0.49931  0.94675  Biso   1.000  C
  C50      1.0000 0.55244  0.50070  0.82611  Biso   1.000  C
  C51      1.0000 0.58350  0.50276  0.82439  Biso   1.000  C
  C52      1.0000 0.59938  0.50204  0.85045  Biso   1.000  C
  C53      1.0000 0.62938  0.50309  0.84874  Biso   1.000  C
  C54      1.0000 0.64366  0.50498  0.82270  Biso   1.000  C
  C55      1.0000 0.62862  0.50575  0.79669  Biso   1.000  C
  C56      1.0000 0.59839  0.50468  0.79767  Biso   1.000  C
  C57      1.0000 0.69496  0.50546  0.80412  Biso   1.000  C
  C58      1.0000 0.71240  0.48195  0.80006  Biso   1.000  C
  C59      1.0000 0.73375  0.48203  0.77881  Biso   1.000  C
  C60      1.0000 0.73817  0.50582  0.76165  Biso   1.000  C
  H21      1.0000 0.72366  0.54937  0.75290  Biso   1.000  H
  H22      1.0000 0.68579  0.54886  0.79004  Biso   1.000  H
  H23      1.0000 0.72173  0.50230  0.91245  Biso   1.000  H
  H24      1.0000 0.72300  0.50469  0.85933  Biso   1.000  H
  H25      1.0000 0.62794  0.50009  0.91033  Biso   1.000  H
  H26      1.0000 0.58880  0.50045  0.87120  Biso   1.000  H
  H27      1.0000 0.63977  0.50692  0.77623  Biso   1.000  H
  H28      1.0000 0.58663  0.50518  0.77751  Biso   1.000  H
  H29      1.0000 0.70927  0.46292  0.81322  Biso   1.000  H
  H30      1.0000 0.74705  0.46304  0.77597  Biso   1.000  H
  O13      1.0000 0.69678  0.99942  0.46046  Biso   1.000  O
  O14      1.0000 0.64921  0.99952  0.46023  Biso   1.000  O
  O15      1.0000 0.53896  0.00048  0.34997  Biso   1.000  O
  O16      1.0000 0.53873  0.00058  0.30241  Biso   1.000  O
  N4       1.0000 0.67258  0.00514  0.32658  Biso   1.000  N
  C61      1.0000 0.72076  0.03024  0.26599  Biso   1.000  C
  C62      1.0000 0.69916  0.02996  0.28697  Biso   1.000  C
  C63      1.0000 0.70155  0.00217  0.40069  Biso   1.000  C
  C64      1.0000 0.70254  0.00347  0.37047  Biso   1.000  C
  C65      1.0000 0.67651  0.00340  0.35545  Biso   1.000  C
  C66      1.0000 0.65044  0.00223  0.36975  Biso   1.000  C
  C67      1.0000 0.64873  0.00087  0.39972  Biso   1.000  C
  C68      1.0000 0.67480  0.00092  0.41560  Biso   1.000  C
  C69      1.0000 0.67308  0.99931  0.44675  Biso   1.000  C
  C70      1.0000 0.55244  0.00070  0.32611  Biso   1.000  C
  C71      1.0000 0.58350  0.00276  0.32439  Biso   1.000  C
  C72      1.0000 0.59938  0.00204  0.35045  Biso   1.000  C
  C73      1.0000 0.62938  0.00309  0.34874  Biso   1.000  C
  C74      1.0000 0.64366  0.00498  0.32270  Biso   1.000  C
  C75      1.0000 0.62862  0.00575  0.29669  Biso   1.000  C
  C76      1.0000 0.59839  0.00468  0.29767  Biso   1.000  C
  C77      1.0000 0.69496  0.00546  0.30412  Biso   1.000  C
  C78      1.0000 0.71240  0.98195  0.30006  Biso   1.000  C
  C79      1.0000 0.73375  0.98203  0.27881  Biso   1.000  C
  C80      1.0000 0.73817  0.00582  0.26165  Biso   1.000  C
  H31      1.0000 0.72366  0.04937  0.25290  Biso   1.000  H
  H32      1.0000 0.68579  0.04886  0.29004  Biso   1.000  H
  H33      1.0000 0.72173  0.00230  0.41245  Biso   1.000  H
  H34      1.0000 0.72300  0.00469  0.35933  Biso   1.000  H
  H35      1.0000 0.62794  0.00009  0.41033  Biso   1.000  H
  H36      1.0000 0.58880  0.00045  0.37120  Biso   1.000  H
  H37      1.0000 0.63977  0.00692  0.27623  Biso   1.000  H
  H38      1.0000 0.58663  0.00518  0.27751  Biso   1.000  H
  H39      1.0000 0.70927  0.96292  0.31322  Biso   1.000  H
  H40      1.0000 0.74705  0.96304  0.27597  Biso   1.000  H
  O17      1.0000 0.80322  0.50058  0.46046  Biso   1.000  O
  O18      1.0000 0.85079  0.50048  0.46023  Biso   1.000  O
  O19      1.0000 0.96104  0.49952  0.34997  Biso   1.000  O
  O20      1.0000 0.96127  0.49942  0.30241  Biso   1.000  O
  N5       1.0000 0.82742  0.49486  0.32658  Biso   1.000  N
  C81      1.0000 0.77924  0.46976  0.26599  Biso   1.000  C
  C82      1.0000 0.80084  0.47004  0.28697  Biso   1.000  C
  C83      1.0000 0.79845  0.49783  0.40069  Biso   1.000  C
  C84      1.0000 0.79746  0.49653  0.37047  Biso   1.000  C
  C85      1.0000 0.82349  0.49660  0.35545  Biso   1.000  C
  C86      1.0000 0.84956  0.49777  0.36975  Biso   1.000  C
  C87      1.0000 0.85127  0.49913  0.39972  Biso   1.000  C
  C88      1.0000 0.82520  0.49908  0.41560  Biso   1.000  C
  C89      1.0000 0.82692  0.50069  0.44675  Biso   1.000  C
  C90      1.0000 0.94756  0.49930  0.32611  Biso   1.000  C
  C91      1.0000 0.91650  0.49724  0.32439  Biso   1.000  C
  C92      1.0000 0.90062  0.49796  0.35045  Biso   1.000  C
  C93      1.0000 0.87062  0.49691  0.34874  Biso   1.000  C
  C94      1.0000 0.85634  0.49502  0.32270  Biso   1.000  C
  C95      1.0000 0.87138  0.49425  0.29669  Biso   1.000  C
  C96      1.0000 0.90161  0.49532  0.29767  Biso   1.000  C
  C97      1.0000 0.80504  0.49454  0.30412  Biso   1.000  C
  C98      1.0000 0.78760  0.51805  0.30006  Biso   1.000  C
  C99      1.0000 0.76625  0.51797  0.27881  Biso   1.000  C
  C100     1.0000 0.76183  0.49418  0.26165  Biso   1.000  C
  H41      1.0000 0.77634  0.45063  0.25290  Biso   1.000  H
  H42      1.0000 0.81421  0.45114  0.29004  Biso   1.000  H
  H43      1.0000 0.77827  0.49770  0.41245  Biso   1.000  H
  H44      1.0000 0.77700  0.49531  0.35933  Biso   1.000  H
  H45      1.0000 0.87206  0.49991  0.41033  Biso   1.000  H
  H46      1.0000 0.91120  0.49955  0.37120  Biso   1.000  H
  H47      1.0000 0.86023  0.49308  0.27623  Biso   1.000  H
  H48      1.0000 0.91337  0.49482  0.27751  Biso   1.000  H
  H49      1.0000 0.79073  0.53708  0.31322  Biso   1.000  H
  H50      1.0000 0.75295  0.53696  0.27597  Biso   1.000  H
  O21      1.0000 0.80322  0.00058  0.96046  Biso   1.000  O
  O22      1.0000 0.85079  0.00048  0.96023  Biso   1.000  O
  O23      1.0000 0.96104  0.99952  0.84997  Biso   1.000  O
  O24      1.0000 0.96127  0.99942  0.80241  Biso   1.000  O
  N6       1.0000 0.82742  0.99486  0.82658  Biso   1.000  N
  C101     1.0000 0.77924  0.96976  0.76599  Biso   1.000  C
  C102     1.0000 0.80084  0.97004  0.78697  Biso   1.000  C
  C103     1.0000 0.79845  0.99783  0.90069  Biso   1.000  C
  C104     1.0000 0.79746  0.99653  0.87047  Biso   1.000  C
  C105     1.0000 0.82349  0.99660  0.85545  Biso   1.000  C
  C106     1.0000 0.84956  0.99777  0.86975  Biso   1.000  C
  C107     1.0000 0.85127  0.99913  0.89972  Biso   1.000  C
  C108     1.0000 0.82520  0.99908  0.91560  Biso   1.000  C
  C109     1.0000 0.82692  0.00069  0.94675  Biso   1.000  C
  C110     1.0000 0.94756  0.99930  0.82611  Biso   1.000  C
  C111     1.0000 0.91650  0.99724  0.82439  Biso   1.000  C
  C112     1.0000 0.90062  0.99796  0.85045  Biso   1.000  C
  C113     1.0000 0.87062  0.99691  0.84874  Biso   1.000  C
  C114     1.0000 0.85634  0.99502  0.82270  Biso   1.000  C
  C115     1.0000 0.87138  0.99425  0.79669  Biso   1.000  C
  C116     1.0000 0.90161  0.99532  0.79767  Biso   1.000  C
  C117     1.0000 0.80504  0.99454  0.80412  Biso   1.000  C
  C118     1.0000 0.78760  0.01805  0.80006  Biso   1.000  C
  C119     1.0000 0.76625  0.01797  0.77881  Biso   1.000  C
  C120     1.0000 0.76183  0.99418  0.76165  Biso   1.000  C
  H51      1.0000 0.77634  0.95063  0.75290  Biso   1.000  H
  H52      1.0000 0.81421  0.95114  0.79004  Biso   1.000  H
  H53      1.0000 0.77827  0.99770  0.91245  Biso   1.000  H
  H54      1.0000 0.77700  0.99531  0.85933  Biso   1.000  H
  H55      1.0000 0.87206  0.99991  0.91033  Biso   1.000  H
  H56      1.0000 0.91120  0.99955  0.87120  Biso   1.000  H
  H57      1.0000 0.86023  0.99308  0.77623  Biso   1.000  H
  H58      1.0000 0.91337  0.99482  0.77751  Biso   1.000  H
  H59      1.0000 0.79073  0.03708  0.81322  Biso   1.000  H
  H60      1.0000 0.75295  0.03696  0.77597  Biso   1.000  H
  O25      1.0000 0.30322  0.50058  0.96046  Biso   1.000  O
  O26      1.0000 0.35079  0.50048  0.96023  Biso   1.000  O
  O27      1.0000 0.46104  0.49952  0.84997  Biso   1.000  O
  O28      1.0000 0.46127  0.49942  0.80241  Biso   1.000  O
  N7       1.0000 0.32742  0.49486  0.82658  Biso   1.000  N
  C121     1.0000 0.27924  0.46976  0.76599  Biso   1.000  C
  C122     1.0000 0.30084  0.47004  0.78697  Biso   1.000  C
  C123     1.0000 0.29845  0.49783  0.90069  Biso   1.000  C
  C124     1.0000 0.29746  0.49653  0.87047  Biso   1.000  C
  C125     1.0000 0.32349  0.49660  0.85545  Biso   1.000  C
  C126     1.0000 0.34956  0.49777  0.86975  Biso   1.000  C
  C127     1.0000 0.35127  0.49913  0.89972  Biso   1.000  C
  C128     1.0000 0.32520  0.49908  0.91560  Biso   1.000  C
  C129     1.0000 0.32692  0.50069  0.94675  Biso   1.000  C
  C130     1.0000 0.44756  0.49930  0.82611  Biso   1.000  C
  C131     1.0000 0.41650  0.49724  0.82439  Biso   1.000  C
  C132     1.0000 0.40062  0.49796  0.85045  Biso   1.000  C
  C133     1.0000 0.37062  0.49691  0.84874  Biso   1.000  C
  C134     1.0000 0.35634  0.49502  0.82270  Biso   1.000  C
  C135     1.0000 0.37138  0.49425  0.79669  Biso   1.000  C
  C136     1.0000 0.40161  0.49532  0.79767  Biso   1.000  C
  C137     1.0000 0.30504  0.49454  0.80412  Biso   1.000  C
  C138     1.0000 0.28760  0.51805  0.80006  Biso   1.000  C
  C139     1.0000 0.26625  0.51797  0.77881  Biso   1.000  C
  C140     1.0000 0.26183  0.49418  0.76165  Biso   1.000  C
  H61      1.0000 0.27634  0.45063  0.75290  Biso   1.000  H
  H62      1.0000 0.31421  0.45114  0.79004  Biso   1.000  H
  H63      1.0000 0.27827  0.49770  0.91245  Biso   1.000  H
  H64      1.0000 0.27700  0.49531  0.85933  Biso   1.000  H
  H65      1.0000 0.37206  0.49991  0.91033  Biso   1.000  H
  H66      1.0000 0.41120  0.49955  0.87120  Biso   1.000  H
  H67      1.0000 0.36023  0.49308  0.77623  Biso   1.000  H
  H68      1.0000 0.41337  0.49482  0.77751  Biso   1.000  H
  H69      1.0000 0.29073  0.53708  0.81322  Biso   1.000  H
  H70      1.0000 0.25295  0.53696  0.77597  Biso   1.000  H
  O29      1.0000 0.30322  0.00058  0.46046  Biso   1.000  O
  O30      1.0000 0.35079  0.00048  0.46023  Biso   1.000  O
  O31      1.0000 0.46104  0.99952  0.34997  Biso   1.000  O
  O32      1.0000 0.46127  0.99942  0.30241  Biso   1.000  O
  N8       1.0000 0.32742  0.99486  0.32658  Biso   1.000  N
  C141     1.0000 0.27924  0.96976  0.26599  Biso   1.000  C
  C142     1.0000 0.30084  0.97004  0.28697  Biso   1.000  C
  C143     1.0000 0.29845  0.99783  0.40069  Biso   1.000  C
  C144     1.0000 0.29746  0.99653  0.37047  Biso   1.000  C
  C145     1.0000 0.32349  0.99660  0.35545  Biso   1.000  C
  C146     1.0000 0.34956  0.99777  0.36975  Biso   1.000  C
  C147     1.0000 0.35127  0.99913  0.39972  Biso   1.000  C
  C148     1.0000 0.32520  0.99908  0.41560  Biso   1.000  C
  C149     1.0000 0.32692  0.00069  0.44675  Biso   1.000  C
  C150     1.0000 0.44756  0.99930  0.32611  Biso   1.000  C
  C151     1.0000 0.41650  0.99724  0.32439  Biso   1.000  C
  C152     1.0000 0.40062  0.99796  0.35045  Biso   1.000  C
  C153     1.0000 0.37062  0.99691  0.34874  Biso   1.000  C
  C154     1.0000 0.35634  0.99502  0.32270  Biso   1.000  C
  C155     1.0000 0.37138  0.99425  0.29669  Biso   1.000  C
  C156     1.0000 0.40161  0.99532  0.29767  Biso   1.000  C
  C157     1.0000 0.30504  0.99454  0.30412  Biso   1.000  C
  C158     1.0000 0.28760  0.01805  0.30006  Biso   1.000  C
  C159     1.0000 0.26625  0.01797  0.27881  Biso   1.000  C
  C160     1.0000 0.26183  0.99418  0.26165  Biso   1.000  C
  H71      1.0000 0.27634  0.95063  0.25290  Biso   1.000  H
  H72      1.0000 0.31421  0.95114  0.29004  Biso   1.000  H
  H73      1.0000 0.27827  0.99770  0.41245  Biso   1.000  H
  H74      1.0000 0.27700  0.99531  0.35933  Biso   1.000  H
  H75      1.0000 0.37206  0.99991  0.41033  Biso   1.000  H
  H76      1.0000 0.41120  0.99955  0.37120  Biso   1.000  H
  H77      1.0000 0.36023  0.99308  0.27623  Biso   1.000  H
  H78      1.0000 0.41337  0.99482  0.27751  Biso   1.000  H
  H79      1.0000 0.29073  0.03708  0.31322  Biso   1.000  H
  H80      1.0000 0.25295  0.03696  0.27597  Biso   1.000  H
  O33      1.0000 0.80322  0.49942  0.53954  Biso   1.000  O
  O34      1.0000 0.85079  0.49952  0.53977  Biso   1.000  O
  O35      1.0000 0.96104  0.50048  0.65003  Biso   1.000  O
  O36      1.0000 0.96127  0.50058  0.69759  Biso   1.000  O
  N9       1.0000 0.82742  0.50514  0.67342  Biso   1.000  N
  C161     1.0000 0.77924  0.53024  0.73401  Biso   1.000  C
  C162     1.0000 0.80084  0.52996  0.71303  Biso   1.000  C
  C163     1.0000 0.79845  0.50217  0.59931  Biso   1.000  C
  C164     1.0000 0.79746  0.50347  0.62953  Biso   1.000  C
  C165     1.0000 0.82349  0.50340  0.64455  Biso   1.000  C
  C166     1.0000 0.84956  0.50223  0.63025  Biso   1.000  C
  C167     1.0000 0.85127  0.50087  0.60028  Biso   1.000  C
  C168     1.0000 0.82520  0.50092  0.58440  Biso   1.000  C
  C169     1.0000 0.82692  0.49931  0.55325  Biso   1.000  C
  C170     1.0000 0.94756  0.50070  0.67389  Biso   1.000  C
  C171     1.0000 0.91650  0.50276  0.67561  Biso   1.000  C
  C172     1.0000 0.90062  0.50204  0.64955  Biso   1.000  C
  C173     1.0000 0.87062  0.50309  0.65126  Biso   1.000  C
  C174     1.0000 0.85634  0.50498  0.67730  Biso   1.000  C
  C175     1.0000 0.87138  0.50575  0.70331  Biso   1.000  C
  C176     1.0000 0.90161  0.50468  0.70233  Biso   1.000  C
  C177     1.0000 0.80504  0.50546  0.69588  Biso   1.000  C
  C178     1.0000 0.78760  0.48195  0.69994  Biso   1.000  C
  C179     1.0000 0.76625  0.48203  0.72119  Biso   1.000  C
  C180     1.0000 0.76183  0.50582  0.73835  Biso   1.000  C
  H81      1.0000 0.77634  0.54937  0.74710  Biso   1.000  H
  H82      1.0000 0.81421  0.54886  0.70996  Biso   1.000  H
  H83      1.0000 0.77827  0.50230  0.58755  Biso   1.000  H
  H84      1.0000 0.77700  0.50469  0.64067  Biso   1.000  H
  H85      1.0000 0.87206  0.50009  0.58967  Biso   1.000  H
  H86      1.0000 0.91120  0.50045  0.62880  Biso   1.000  H
  H87      1.0000 0.86023  0.50692  0.72377  Biso   1.000  H
  H88      1.0000 0.91337  0.50518  0.72249  Biso   1.000  H
  H89      1.0000 0.79073  0.46292  0.68678  Biso   1.000  H
  H90      1.0000 0.75295  0.46304  0.72403  Biso   1.000  H
  O37      1.0000 0.80322  0.99942  0.03954  Biso   1.000  O
  O38      1.0000 0.85079  0.99952  0.03977  Biso   1.000  O
  O39      1.0000 0.96104  0.00048  0.15003  Biso   1.000  O
  O40      1.0000 0.96127  0.00058  0.19759  Biso   1.000  O
  N10      1.0000 0.82742  0.00514  0.17342  Biso   1.000  N
  C181     1.0000 0.77924  0.03024  0.23401  Biso   1.000  C
  C182     1.0000 0.80084  0.02996  0.21303  Biso   1.000  C
  C183     1.0000 0.79845  0.00217  0.09931  Biso   1.000  C
  C184     1.0000 0.79746  0.00347  0.12953  Biso   1.000  C
  C185     1.0000 0.82349  0.00340  0.14455  Biso   1.000  C
  C186     1.0000 0.84956  0.00223  0.13025  Biso   1.000  C
  C187     1.0000 0.85127  0.00087  0.10028  Biso   1.000  C
  C188     1.0000 0.82520  0.00092  0.08440  Biso   1.000  C
  C189     1.0000 0.82692  0.99931  0.05325  Biso   1.000  C
  C190     1.0000 0.94756  0.00070  0.17389  Biso   1.000  C
  C191     1.0000 0.91650  0.00276  0.17561  Biso   1.000  C
  C192     1.0000 0.90062  0.00204  0.14955  Biso   1.000  C
  C193     1.0000 0.87062  0.00309  0.15126  Biso   1.000  C
  C194     1.0000 0.85634  0.00498  0.17730  Biso   1.000  C
  C195     1.0000 0.87138  0.00575  0.20331  Biso   1.000  C
  C196     1.0000 0.90161  0.00468  0.20233  Biso   1.000  C
  C197     1.0000 0.80504  0.00546  0.19588  Biso   1.000  C
  C198     1.0000 0.78760  0.98195  0.19994  Biso   1.000  C
  C199     1.0000 0.76625  0.98203  0.22119  Biso   1.000  C
  C200     1.0000 0.76183  0.00582  0.23835  Biso   1.000  C
  H91      1.0000 0.77634  0.04937  0.24710  Biso   1.000  H
  H92      1.0000 0.81421  0.04886  0.20996  Biso   1.000  H
  H93      1.0000 0.77827  0.00230  0.08755  Biso   1.000  H
  H94      1.0000 0.77700  0.00469  0.14067  Biso   1.000  H
  H95      1.0000 0.87206  0.00009  0.08967  Biso   1.000  H
  H96      1.0000 0.91120  0.00045  0.12880  Biso   1.000  H
  H97      1.0000 0.86023  0.00692  0.22377  Biso   1.000  H
  H98      1.0000 0.91337  0.00518  0.22249  Biso   1.000  H
  H99      1.0000 0.79073  0.96292  0.18678  Biso   1.000  H
  H100     1.0000 0.75295  0.96304  0.22403  Biso   1.000  H
  O41      1.0000 0.30322  0.49942  0.03954  Biso   1.000  O
  O42      1.0000 0.35079  0.49952  0.03977  Biso   1.000  O
  O43      1.0000 0.46104  0.50048  0.15003  Biso   1.000  O
  O44      1.0000 0.46127  0.50058  0.19759  Biso   1.000  O
  N11      1.0000 0.32742  0.50514  0.17342  Biso   1.000  N
  C201     1.0000 0.27924  0.53024  0.23401  Biso   1.000  C
  C202     1.0000 0.30084  0.52996  0.21303  Biso   1.000  C
  C203     1.0000 0.29845  0.50217  0.09931  Biso   1.000  C
  C204     1.0000 0.29746  0.50347  0.12953  Biso   1.000  C
  C205     1.0000 0.32349  0.50340  0.14455  Biso   1.000  C
  C206     1.0000 0.34956  0.50223  0.13025  Biso   1.000  C
  C207     1.0000 0.35127  0.50087  0.10028  Biso   1.000  C
  C208     1.0000 0.32520  0.50092  0.08440  Biso   1.000  C
  C209     1.0000 0.32692  0.49931  0.05325  Biso   1.000  C
  C210     1.0000 0.44756  0.50070  0.17389  Biso   1.000  C
  C211     1.0000 0.41650  0.50276  0.17561  Biso   1.000  C
  C212     1.0000 0.40062  0.50204  0.14955  Biso   1.000  C
  C213     1.0000 0.37062  0.50309  0.15126  Biso   1.000  C
  C214     1.0000 0.35634  0.50498  0.17730  Biso   1.000  C
  C215     1.0000 0.37138  0.50575  0.20331  Biso   1.000  C
  C216     1.0000 0.40161  0.50468  0.20233  Biso   1.000  C
  C217     1.0000 0.30504  0.50546  0.19588  Biso   1.000  C
  C218     1.0000 0.28760  0.48195  0.19994  Biso   1.000  C
  C219     1.0000 0.26625  0.48203  0.22119  Biso   1.000  C
  C220     1.0000 0.26183  0.50582  0.23835  Biso   1.000  C
  H101     1.0000 0.27634  0.54937  0.24710  Biso   1.000  H
  H102     1.0000 0.31421  0.54886  0.20996  Biso   1.000  H
  H103     1.0000 0.27827  0.50230  0.08755  Biso   1.000  H
  H104     1.0000 0.27700  0.50469  0.14067  Biso   1.000  H
  H105     1.0000 0.37206  0.50009  0.08967  Biso   1.000  H
  H106     1.0000 0.41120  0.50045  0.12880  Biso   1.000  H
  H107     1.0000 0.36023  0.50692  0.22377  Biso   1.000  H
  H108     1.0000 0.41337  0.50518  0.22249  Biso   1.000  H
  H109     1.0000 0.29073  0.46292  0.18678  Biso   1.000  H
  H110     1.0000 0.25295  0.46304  0.22403  Biso   1.000  H
  O45      1.0000 0.30322  0.99942  0.53954  Biso   1.000  O
  O46      1.0000 0.35079  0.99952  0.53977  Biso   1.000  O
  O47      1.0000 0.46104  0.00048  0.65003  Biso   1.000  O
  O48      1.0000 0.46127  0.00058  0.69759  Biso   1.000  O
  N12      1.0000 0.32742  0.00514  0.67342  Biso   1.000  N
  C221     1.0000 0.27924  0.03024  0.73401  Biso   1.000  C
  C222     1.0000 0.30084  0.02996  0.71303  Biso   1.000  C
  C223     1.0000 0.29845  0.00217  0.59931  Biso   1.000  C
  C224     1.0000 0.29746  0.00347  0.62953  Biso   1.000  C
  C225     1.0000 0.32349  0.00340  0.64455  Biso   1.000  C
  C226     1.0000 0.34956  0.00223  0.63025  Biso   1.000  C
  C227     1.0000 0.35127  0.00087  0.60028  Biso   1.000  C
  C228     1.0000 0.32520  0.00092  0.58440  Biso   1.000  C
  C229     1.0000 0.32692  0.99931  0.55325  Biso   1.000  C
  C230     1.0000 0.44756  0.00070  0.67389  Biso   1.000  C
  C231     1.0000 0.41650  0.00276  0.67561  Biso   1.000  C
  C232     1.0000 0.40062  0.00204  0.64955  Biso   1.000  C
  C233     1.0000 0.37062  0.00309  0.65126  Biso   1.000  C
  C234     1.0000 0.35634  0.00498  0.67730  Biso   1.000  C
  C235     1.0000 0.37138  0.00575  0.70331  Biso   1.000  C
  C236     1.0000 0.40161  0.00468  0.70233  Biso   1.000  C
  C237     1.0000 0.30504  0.00546  0.69588  Biso   1.000  C
  C238     1.0000 0.28760  0.98195  0.69994  Biso   1.000  C
  C239     1.0000 0.26625  0.98203  0.72119  Biso   1.000  C
  C240     1.0000 0.26183  0.00582  0.73835  Biso   1.000  C
  H111     1.0000 0.27634  0.04937  0.74710  Biso   1.000  H
  H112     1.0000 0.31421  0.04886  0.70996  Biso   1.000  H
  H113     1.0000 0.27827  0.00230  0.58755  Biso   1.000  H
  H114     1.0000 0.27700  0.00469  0.64067  Biso   1.000  H
  H115     1.0000 0.37206  0.00009  0.58967  Biso   1.000  H
  H116     1.0000 0.41120  0.00045  0.62880  Biso   1.000  H
  H117     1.0000 0.36023  0.00692  0.72377  Biso   1.000  H
  H118     1.0000 0.41337  0.00518  0.72249  Biso   1.000  H
  H119     1.0000 0.29073  0.96292  0.68678  Biso   1.000  H
  H120     1.0000 0.25295  0.96304  0.72403  Biso   1.000  H
  O49      1.0000 0.19678  0.50058  0.53954  Biso   1.000  O
  O50      1.0000 0.14921  0.50048  0.53977  Biso   1.000  O
  O51      1.0000 0.03896  0.49952  0.65003  Biso   1.000  O
  O52      1.0000 0.03873  0.49942  0.69759  Biso   1.000  O
  N13      1.0000 0.17258  0.49486  0.67342  Biso   1.000  N
  C241     1.0000 0.22076  0.46976  0.73401  Biso   1.000  C
  C242     1.0000 0.19916  0.47004  0.71303  Biso   1.000  C
  C243     1.0000 0.20155  0.49783  0.59931  Biso   1.000  C
  C244     1.0000 0.20254  0.49653  0.62953  Biso   1.000  C
  C245     1.0000 0.17651  0.49660  0.64455  Biso   1.000  C
  C246     1.0000 0.15044  0.49777  0.63025  Biso   1.000  C
  C247     1.0000 0.14873  0.49913  0.60028  Biso   1.000  C
  C248     1.0000 0.17480  0.49908  0.58440  Biso   1.000  C
  C249     1.0000 0.17308  0.50069  0.55325  Biso   1.000  C
  C250     1.0000 0.05244  0.49930  0.67389  Biso   1.000  C
  C251     1.0000 0.08350  0.49724  0.67561  Biso   1.000  C
  C252     1.0000 0.09938  0.49796  0.64955  Biso   1.000  C
  C253     1.0000 0.12938  0.49691  0.65126  Biso   1.000  C
  C254     1.0000 0.14366  0.49502  0.67730  Biso   1.000  C
  C255     1.0000 0.12862  0.49425  0.70331  Biso   1.000  C
  C256     1.0000 0.09839  0.49532  0.70233  Biso   1.000  C
  C257     1.0000 0.19496  0.49454  0.69588  Biso   1.000  C
  C258     1.0000 0.21240  0.51805  0.69994  Biso   1.000  C
  C259     1.0000 0.23375  0.51797  0.72119  Biso   1.000  C
  C260     1.0000 0.23817  0.49418  0.73835  Biso   1.000  C
  H121     1.0000 0.22366  0.45063  0.74710  Biso   1.000  H
  H122     1.0000 0.18579  0.45114  0.70996  Biso   1.000  H
  H123     1.0000 0.22173  0.49770  0.58755  Biso   1.000  H
  H124     1.0000 0.22300  0.49531  0.64067  Biso   1.000  H
  H125     1.0000 0.12794  0.49991  0.58967  Biso   1.000  H
  H126     1.0000 0.08880  0.49955  0.62880  Biso   1.000  H
  H127     1.0000 0.13977  0.49308  0.72377  Biso   1.000  H
  H128     1.0000 0.08663  0.49482  0.72249  Biso   1.000  H
  H129     1.0000 0.20927  0.53708  0.68678  Biso   1.000  H
  H130     1.0000 0.24705  0.53696  0.72403  Biso   1.000  H
  O53      1.0000 0.19678  0.00058  0.03954  Biso   1.000  O
  O54      1.0000 0.14921  0.00048  0.03977  Biso   1.000  O
  O55      1.0000 0.03896  0.99952  0.15003  Biso   1.000  O
  O56      1.0000 0.03873  0.99942  0.19759  Biso   1.000  O
  N14      1.0000 0.17258  0.99486  0.17342  Biso   1.000  N
  C261     1.0000 0.22076  0.96976  0.23401  Biso   1.000  C
  C262     1.0000 0.19916  0.97004  0.21303  Biso   1.000  C
  C263     1.0000 0.20155  0.99783  0.09931  Biso   1.000  C
  C264     1.0000 0.20254  0.99653  0.12953  Biso   1.000  C
  C265     1.0000 0.17651  0.99660  0.14455  Biso   1.000  C
  C266     1.0000 0.15044  0.99777  0.13025  Biso   1.000  C
  C267     1.0000 0.14873  0.99913  0.10028  Biso   1.000  C
  C268     1.0000 0.17480  0.99908  0.08440  Biso   1.000  C
  C269     1.0000 0.17308  0.00069  0.05325  Biso   1.000  C
  C270     1.0000 0.05244  0.99930  0.17389  Biso   1.000  C
  C271     1.0000 0.08350  0.99724  0.17561  Biso   1.000  C
  C272     1.0000 0.09938  0.99796  0.14955  Biso   1.000  C
  C273     1.0000 0.12938  0.99691  0.15126  Biso   1.000  C
  C274     1.0000 0.14366  0.99502  0.17730  Biso   1.000  C
  C275     1.0000 0.12862  0.99425  0.20331  Biso   1.000  C
  C276     1.0000 0.09839  0.99532  0.20233  Biso   1.000  C
  C277     1.0000 0.19496  0.99454  0.19588  Biso   1.000  C
  C278     1.0000 0.21240  0.01805  0.19994  Biso   1.000  C
  C279     1.0000 0.23375  0.01797  0.22119  Biso   1.000  C
  C280     1.0000 0.23817  0.99418  0.23835  Biso   1.000  C
  H131     1.0000 0.22366  0.95063  0.24710  Biso   1.000  H
  H132     1.0000 0.18579  0.95114  0.20996  Biso   1.000  H
  H133     1.0000 0.22173  0.99770  0.08755  Biso   1.000  H
  H134     1.0000 0.22300  0.99531  0.14067  Biso   1.000  H
  H135     1.0000 0.12794  0.99991  0.08967  Biso   1.000  H
  H136     1.0000 0.08880  0.99955  0.12880  Biso   1.000  H
  H137     1.0000 0.13977  0.99308  0.22377  Biso   1.000  H
  H138     1.0000 0.08663  0.99482  0.22249  Biso   1.000  H
  H139     1.0000 0.20927  0.03708  0.18678  Biso   1.000  H
  H140     1.0000 0.24705  0.03696  0.22403  Biso   1.000  H
  O57      1.0000 0.69678  0.50058  0.03954  Biso   1.000  O
  O58      1.0000 0.64921  0.50048  0.03977  Biso   1.000  O
  O59      1.0000 0.53896  0.49952  0.15003  Biso   1.000  O
  O60      1.0000 0.53873  0.49942  0.19759  Biso   1.000  O
  N15      1.0000 0.67258  0.49486  0.17342  Biso   1.000  N
  C281     1.0000 0.72076  0.46976  0.23401  Biso   1.000  C
  C282     1.0000 0.69916  0.47004  0.21303  Biso   1.000  C
  C283     1.0000 0.70155  0.49783  0.09931  Biso   1.000  C
  C284     1.0000 0.70254  0.49653  0.12953  Biso   1.000  C
  C285     1.0000 0.67651  0.49660  0.14455  Biso   1.000  C
  C286     1.0000 0.65044  0.49777  0.13025  Biso   1.000  C
  C287     1.0000 0.64873  0.49913  0.10028  Biso   1.000  C
  C288     1.0000 0.67480  0.49908  0.08440  Biso   1.000  C
  C289     1.0000 0.67308  0.50069  0.05325  Biso   1.000  C
  C290     1.0000 0.55244  0.49930  0.17389  Biso   1.000  C
  C291     1.0000 0.58350  0.49724  0.17561  Biso   1.000  C
  C292     1.0000 0.59938  0.49796  0.14955  Biso   1.000  C
  C293     1.0000 0.62938  0.49691  0.15126  Biso   1.000  C
  C294     1.0000 0.64366  0.49502  0.17730  Biso   1.000  C
  C295     1.0000 0.62862  0.49425  0.20331  Biso   1.000  C
  C296     1.0000 0.59839  0.49532  0.20233  Biso   1.000  C
  C297     1.0000 0.69496  0.49454  0.19588  Biso   1.000  C
  C298     1.0000 0.71240  0.51805  0.19994  Biso   1.000  C
  C299     1.0000 0.73375  0.51797  0.22119  Biso   1.000  C
  C300     1.0000 0.73817  0.49418  0.23835  Biso   1.000  C
  H141     1.0000 0.72366  0.45063  0.24710  Biso   1.000  H
  H142     1.0000 0.68579  0.45114  0.20996  Biso   1.000  H
  H143     1.0000 0.72173  0.49770  0.08755  Biso   1.000  H
  H144     1.0000 0.72300  0.49531  0.14067  Biso   1.000  H
  H145     1.0000 0.62794  0.49991  0.08967  Biso   1.000  H
  H146     1.0000 0.58880  0.49955  0.12880  Biso   1.000  H
  H147     1.0000 0.63977  0.49308  0.22377  Biso   1.000  H
  H148     1.0000 0.58663  0.49482  0.22249  Biso   1.000  H
  H149     1.0000 0.70927  0.53708  0.18678  Biso   1.000  H
  H150     1.0000 0.74705  0.53696  0.22403  Biso   1.000  H
  O61      1.0000 0.69678  0.00058  0.53954  Biso   1.000  O
  O62      1.0000 0.64921  0.00048  0.53977  Biso   1.000  O
  O63      1.0000 0.53896  0.99952  0.65003  Biso   1.000  O
  O64      1.0000 0.53873  0.99942  0.69759  Biso   1.000  O
  N16      1.0000 0.67258  0.99486  0.67342  Biso   1.000  N
  C301     1.0000 0.72076  0.96976  0.73401  Biso   1.000  C
  C302     1.0000 0.69916  0.97004  0.71303  Biso   1.000  C
  C303     1.0000 0.70155  0.99783  0.59931  Biso   1.000  C
  C304     1.0000 0.70254  0.99653  0.62953  Biso   1.000  C
  C305     1.0000 0.67651  0.99660  0.64455  Biso   1.000  C
  C306     1.0000 0.65044  0.99777  0.63025  Biso   1.000  C
  C307     1.0000 0.64873  0.99913  0.60028  Biso   1.000  C
  C308     1.0000 0.67480  0.99908  0.58440  Biso   1.000  C
  C309     1.0000 0.67308  0.00069  0.55325  Biso   1.000  C
  C310     1.0000 0.55244  0.99930  0.67389  Biso   1.000  C
  C311     1.0000 0.58350  0.99724  0.67561  Biso   1.000  C
  C312     1.0000 0.59938  0.99796  0.64955  Biso   1.000  C
  C313     1.0000 0.62938  0.99691  0.65126  Biso   1.000  C
  C314     1.0000 0.64366  0.99502  0.67730  Biso   1.000  C
  C315     1.0000 0.62862  0.99425  0.70331  Biso   1.000  C
  C316     1.0000 0.59839  0.99532  0.70233  Biso   1.000  C
  C317     1.0000 0.69496  0.99454  0.69588  Biso   1.000  C
  C318     1.0000 0.71240  0.01805  0.69994  Biso   1.000  C
  C319     1.0000 0.73375  0.01797  0.72119  Biso   1.000  C
  C320     1.0000 0.73817  0.99418  0.73835  Biso   1.000  C
  H151     1.0000 0.72366  0.95063  0.74710  Biso   1.000  H
  H152     1.0000 0.68579  0.95114  0.70996  Biso   1.000  H
  H153     1.0000 0.72173  0.99770  0.58755  Biso   1.000  H
  H154     1.0000 0.72300  0.99531  0.64067  Biso   1.000  H
  H155     1.0000 0.62794  0.99991  0.58967  Biso   1.000  H
  H156     1.0000 0.58880  0.99955  0.62880  Biso   1.000  H
  H157     1.0000 0.63977  0.99308  0.72377  Biso   1.000  H
  H158     1.0000 0.58663  0.99482  0.72249  Biso   1.000  H
  H159     1.0000 0.70927  0.03708  0.68678  Biso   1.000  H
  H160     1.0000 0.74705  0.03696  0.72403  Biso   1.000  H
  O65      1.0000 0.46046  0.19678  0.49942  Biso   1.000  O
  O66      1.0000 0.46023  0.14921  0.49952  Biso   1.000  O
  O67      1.0000 0.34997  0.03896  0.50048  Biso   1.000  O
  O68      1.0000 0.30241  0.03873  0.50058  Biso   1.000  O
  N17      1.0000 0.32658  0.17258  0.50514  Biso   1.000  N
  C321     1.0000 0.26599  0.22076  0.53024  Biso   1.000  C
  C322     1.0000 0.28697  0.19916  0.52996  Biso   1.000  C
  C323     1.0000 0.40069  0.20155  0.50217  Biso   1.000  C
  C324     1.0000 0.37047  0.20254  0.50347  Biso   1.000  C
  C325     1.0000 0.35545  0.17651  0.50340  Biso   1.000  C
  C326     1.0000 0.36975  0.15044  0.50223  Biso   1.000  C
  C327     1.0000 0.39972  0.14873  0.50087  Biso   1.000  C
  C328     1.0000 0.41560  0.17480  0.50092  Biso   1.000  C
  C329     1.0000 0.44675  0.17308  0.49931  Biso   1.000  C
  C330     1.0000 0.32611  0.05244  0.50070  Biso   1.000  C
  C331     1.0000 0.32439  0.08350  0.50276  Biso   1.000  C
  C332     1.0000 0.35045  0.09938  0.50204  Biso   1.000  C
  C333     1.0000 0.34874  0.12938  0.50309  Biso   1.000  C
  C334     1.0000 0.32270  0.14366  0.50498  Biso   1.000  C
  C335     1.0000 0.29669  0.12862  0.50575  Biso   1.000  C
  C336     1.0000 0.29767  0.09839  0.50468  Biso   1.000  C
  C337     1.0000 0.30412  0.19496  0.50546  Biso   1.000  C
  C338     1.0000 0.30006  0.21240  0.48195  Biso   1.000  C
  C339     1.0000 0.27881  0.23375  0.48203  Biso   1.000  C
  C340     1.0000 0.26165  0.23817  0.50582  Biso   1.000  C
  H161     1.0000 0.25290  0.22366  0.54937  Biso   1.000  H
  H162     1.0000 0.29004  0.18579  0.54886  Biso   1.000  H
  H163     1.0000 0.41245  0.22173  0.50230  Biso   1.000  H
  H164     1.0000 0.35933  0.22300  0.50469  Biso   1.000  H
  H165     1.0000 0.41033  0.12794  0.50009  Biso   1.000  H
  H166     1.0000 0.37120  0.08880  0.50045  Biso   1.000  H
  H167     1.0000 0.27623  0.13977  0.50692  Biso   1.000  H
  H168     1.0000 0.27751  0.08663  0.50518  Biso   1.000  H
  H169     1.0000 0.31322  0.20927  0.46292  Biso   1.000  H
  H170     1.0000 0.27597  0.24705  0.46304  Biso   1.000  H
  O69      1.0000 0.46046  0.69678  0.99942  Biso   1.000  O
  O70      1.0000 0.46023  0.64921  0.99952  Biso   1.000  O
  O71      1.0000 0.34997  0.53896  0.00048  Biso   1.000  O
  O72      1.0000 0.30241  0.53873  0.00058  Biso   1.000  O
  N18      1.0000 0.32658  0.67258  0.00514  Biso   1.000  N
  C341     1.0000 0.26599  0.72076  0.03024  Biso   1.000  C
  C342     1.0000 0.28697  0.69916  0.02996  Biso   1.000  C
  C343     1.0000 0.40069  0.70155  0.00217  Biso   1.000  C
  C344     1.0000 0.37047  0.70254  0.00347  Biso   1.000  C
  C345     1.0000 0.35545  0.67651  0.00340  Biso   1.000  C
  C346     1.0000 0.36975  0.65044  0.00223  Biso   1.000  C
  C347     1.0000 0.39972  0.64873  0.00087  Biso   1.000  C
  C348     1.0000 0.41560  0.67480  0.00092  Biso   1.000  C
  C349     1.0000 0.44675  0.67308  0.99931  Biso   1.000  C
  C350     1.0000 0.32611  0.55244  0.00070  Biso   1.000  C
  C351     1.0000 0.32439  0.58350  0.00276  Biso   1.000  C
  C352     1.0000 0.35045  0.59938  0.00204  Biso   1.000  C
  C353     1.0000 0.34874  0.62938  0.00309  Biso   1.000  C
  C354     1.0000 0.32270  0.64366  0.00498  Biso   1.000  C
  C355     1.0000 0.29669  0.62862  0.00575  Biso   1.000  C
  C356     1.0000 0.29767  0.59839  0.00468  Biso   1.000  C
  C357     1.0000 0.30412  0.69496  0.00546  Biso   1.000  C
  C358     1.0000 0.30006  0.71240  0.98195  Biso   1.000  C
  C359     1.0000 0.27881  0.73375  0.98203  Biso   1.000  C
  C360     1.0000 0.26165  0.73817  0.00582  Biso   1.000  C
  H171     1.0000 0.25290  0.72366  0.04937  Biso   1.000  H
  H172     1.0000 0.29004  0.68579  0.04886  Biso   1.000  H
  H173     1.0000 0.41245  0.72173  0.00230  Biso   1.000  H
  H174     1.0000 0.35933  0.72300  0.00469  Biso   1.000  H
  H175     1.0000 0.41033  0.62794  0.00009  Biso   1.000  H
  H176     1.0000 0.37120  0.58880  0.00045  Biso   1.000  H
  H177     1.0000 0.27623  0.63977  0.00692  Biso   1.000  H
  H178     1.0000 0.27751  0.58663  0.00518  Biso   1.000  H
  H179     1.0000 0.31322  0.70927  0.96292  Biso   1.000  H
  H180     1.0000 0.27597  0.74705  0.96304  Biso   1.000  H
  O73      1.0000 0.96046  0.19678  0.99942  Biso   1.000  O
  O74      1.0000 0.96023  0.14921  0.99952  Biso   1.000  O
  O75      1.0000 0.84997  0.03896  0.00048  Biso   1.000  O
  O76      1.0000 0.80241  0.03873  0.00058  Biso   1.000  O
  N19      1.0000 0.82658  0.17258  0.00514  Biso   1.000  N
  C361     1.0000 0.76599  0.22076  0.03024  Biso   1.000  C
  C362     1.0000 0.78697  0.19916  0.02996  Biso   1.000  C
  C363     1.0000 0.90069  0.20155  0.00217  Biso   1.000  C
  C364     1.0000 0.87047  0.20254  0.00347  Biso   1.000  C
  C365     1.0000 0.85545  0.17651  0.00340  Biso   1.000  C
  C366     1.0000 0.86975  0.15044  0.00223  Biso   1.000  C
  C367     1.0000 0.89972  0.14873  0.00087  Biso   1.000  C
  C368     1.0000 0.91560  0.17480  0.00092  Biso   1.000  C
  C369     1.0000 0.94675  0.17308  0.99931  Biso   1.000  C
  C370     1.0000 0.82611  0.05244  0.00070  Biso   1.000  C
  C371     1.0000 0.82439  0.08350  0.00276  Biso   1.000  C
  C372     1.0000 0.85045  0.09938  0.00204  Biso   1.000  C
  C373     1.0000 0.84874  0.12938  0.00309  Biso   1.000  C
  C374     1.0000 0.82270  0.14366  0.00498  Biso   1.000  C
  C375     1.0000 0.79669  0.12862  0.00575  Biso   1.000  C
  C376     1.0000 0.79767  0.09839  0.00468  Biso   1.000  C
  C377     1.0000 0.80412  0.19496  0.00546  Biso   1.000  C
  C378     1.0000 0.80006  0.21240  0.98195  Biso   1.000  C
  C379     1.0000 0.77881  0.23375  0.98203  Biso   1.000  C
  C380     1.0000 0.76165  0.23817  0.00582  Biso   1.000  C
  H181     1.0000 0.75290  0.22366  0.04937  Biso   1.000  H
  H182     1.0000 0.79004  0.18579  0.04886  Biso   1.000  H
  H183     1.0000 0.91245  0.22173  0.00230  Biso   1.000  H
  H184     1.0000 0.85933  0.22300  0.00469  Biso   1.000  H
  H185     1.0000 0.91033  0.12794  0.00009  Biso   1.000  H
  H186     1.0000 0.87120  0.08880  0.00045  Biso   1.000  H
  H187     1.0000 0.77623  0.13977  0.00692  Biso   1.000  H
  H188     1.0000 0.77751  0.08663  0.00518  Biso   1.000  H
  H189     1.0000 0.81322  0.20927  0.96292  Biso   1.000  H
  H190     1.0000 0.77597  0.24705  0.96304  Biso   1.000  H
  O77      1.0000 0.96046  0.69678  0.49942  Biso   1.000  O
  O78      1.0000 0.96023  0.64921  0.49952  Biso   1.000  O
  O79      1.0000 0.84997  0.53896  0.50048  Biso   1.000  O
  O80      1.0000 0.80241  0.53873  0.50058  Biso   1.000  O
  N20      1.0000 0.82658  0.67258  0.50514  Biso   1.000  N
  C381     1.0000 0.76599  0.72076  0.53024  Biso   1.000  C
  C382     1.0000 0.78697  0.69916  0.52996  Biso   1.000  C
  C383     1.0000 0.90069  0.70155  0.50217  Biso   1.000  C
  C384     1.0000 0.87047  0.70254  0.50347  Biso   1.000  C
  C385     1.0000 0.85545  0.67651  0.50340  Biso   1.000  C
  C386     1.0000 0.86975  0.65044  0.50223  Biso   1.000  C
  C387     1.0000 0.89972  0.64873  0.50087  Biso   1.000  C
  C388     1.0000 0.91560  0.67480  0.50092  Biso   1.000  C
  C389     1.0000 0.94675  0.67308  0.49931  Biso   1.000  C
  C390     1.0000 0.82611  0.55244  0.50070  Biso   1.000  C
  C391     1.0000 0.82439  0.58350  0.50276  Biso   1.000  C
  C392     1.0000 0.85045  0.59938  0.50204  Biso   1.000  C
  C393     1.0000 0.84874  0.62938  0.50309  Biso   1.000  C
  C394     1.0000 0.82270  0.64366  0.50498  Biso   1.000  C
  C395     1.0000 0.79669  0.62862  0.50575  Biso   1.000  C
  C396     1.0000 0.79767  0.59839  0.50468  Biso   1.000  C
  C397     1.0000 0.80412  0.69496  0.50546  Biso   1.000  C
  C398     1.0000 0.80006  0.71240  0.48195  Biso   1.000  C
  C399     1.0000 0.77881  0.73375  0.48203  Biso   1.000  C
  C400     1.0000 0.76165  0.73817  0.50582  Biso   1.000  C
  H191     1.0000 0.75290  0.72366  0.54937  Biso   1.000  H
  H192     1.0000 0.79004  0.68579  0.54886  Biso   1.000  H
  H193     1.0000 0.91245  0.72173  0.50230  Biso   1.000  H
  H194     1.0000 0.85933  0.72300  0.50469  Biso   1.000  H
  H195     1.0000 0.91033  0.62794  0.50009  Biso   1.000  H
  H196     1.0000 0.87120  0.58880  0.50045  Biso   1.000  H
  H197     1.0000 0.77623  0.63977  0.50692  Biso   1.000  H
  H198     1.0000 0.77751  0.58663  0.50518  Biso   1.000  H
  H199     1.0000 0.81322  0.70927  0.46292  Biso   1.000  H
  H200     1.0000 0.77597  0.74705  0.46304  Biso   1.000  H
  O81      1.0000 0.46046  0.80322  0.50058  Biso   1.000  O
  O82      1.0000 0.46023  0.85079  0.50048  Biso   1.000  O
  O83      1.0000 0.34997  0.96104  0.49952  Biso   1.000  O
  O84      1.0000 0.30241  0.96127  0.49942  Biso   1.000  O
  N21      1.0000 0.32658  0.82742  0.49486  Biso   1.000  N
  C401     1.0000 0.26599  0.77924  0.46976  Biso   1.000  C
  C402     1.0000 0.28697  0.80084  0.47004  Biso   1.000  C
  C403     1.0000 0.40069  0.79845  0.49783  Biso   1.000  C
  C404     1.0000 0.37047  0.79746  0.49653  Biso   1.000  C
  C405     1.0000 0.35545  0.82349  0.49660  Biso   1.000  C
  C406     1.0000 0.36975  0.84956  0.49777  Biso   1.000  C
  C407     1.0000 0.39972  0.85127  0.49913  Biso   1.000  C
  C408     1.0000 0.41560  0.82520  0.49908  Biso   1.000  C
  C409     1.0000 0.44675  0.82692  0.50069  Biso   1.000  C
  C410     1.0000 0.32611  0.94756  0.49930  Biso   1.000  C
  C411     1.0000 0.32439  0.91650  0.49724  Biso   1.000  C
  C412     1.0000 0.35045  0.90062  0.49796  Biso   1.000  C
  C413     1.0000 0.34874  0.87062  0.49691  Biso   1.000  C
  C414     1.0000 0.32270  0.85634  0.49502  Biso   1.000  C
  C415     1.0000 0.29669  0.87138  0.49425  Biso   1.000  C
  C416     1.0000 0.29767  0.90161  0.49532  Biso   1.000  C
  C417     1.0000 0.30412  0.80504  0.49454  Biso   1.000  C
  C418     1.0000 0.30006  0.78760  0.51805  Biso   1.000  C
  C419     1.0000 0.27881  0.76625  0.51797  Biso   1.000  C
  C420     1.0000 0.26165  0.76183  0.49418  Biso   1.000  C
  H201     1.0000 0.25290  0.77634  0.45063  Biso   1.000  H
  H202     1.0000 0.29004  0.81421  0.45114  Biso   1.000  H
  H203     1.0000 0.41245  0.77827  0.49770  Biso   1.000  H
  H204     1.0000 0.35933  0.77700  0.49531  Biso   1.000  H
  H205     1.0000 0.41033  0.87206  0.49991  Biso   1.000  H
  H206     1.0000 0.37120  0.91120  0.49955  Biso   1.000  H
  H207     1.0000 0.27623  0.86023  0.49308  Biso   1.000  H
  H208     1.0000 0.27751  0.91337  0.49482  Biso   1.000  H
  H209     1.0000 0.31322  0.79073  0.53708  Biso   1.000  H
  H210     1.0000 0.27597  0.75295  0.53696  Biso   1.000  H
  O85      1.0000 0.46046  0.30322  0.00058  Biso   1.000  O
  O86      1.0000 0.46023  0.35079  0.00048  Biso   1.000  O
  O87      1.0000 0.34997  0.46104  0.99952  Biso   1.000  O
  O88      1.0000 0.30241  0.46127  0.99942  Biso   1.000  O
  N22      1.0000 0.32658  0.32742  0.99486  Biso   1.000  N
  C421     1.0000 0.26599  0.27924  0.96976  Biso   1.000  C
  C422     1.0000 0.28697  0.30084  0.97004  Biso   1.000  C
  C423     1.0000 0.40069  0.29845  0.99783  Biso   1.000  C
  C424     1.0000 0.37047  0.29746  0.99653  Biso   1.000  C
  C425     1.0000 0.35545  0.32349  0.99660  Biso   1.000  C
  C426     1.0000 0.36975  0.34956  0.99777  Biso   1.000  C
  C427     1.0000 0.39972  0.35127  0.99913  Biso   1.000  C
  C428     1.0000 0.41560  0.32520  0.99908  Biso   1.000  C
  C429     1.0000 0.44675  0.32692  0.00069  Biso   1.000  C
  C430     1.0000 0.32611  0.44756  0.99930  Biso   1.000  C
  C431     1.0000 0.32439  0.41650  0.99724  Biso   1.000  C
  C432     1.0000 0.35045  0.40062  0.99796  Biso   1.000  C
  C433     1.0000 0.34874  0.37062  0.99691  Biso   1.000  C
  C434     1.0000 0.32270  0.35634  0.99502  Biso   1.000  C
  C435     1.0000 0.29669  0.37138  0.99425  Biso   1.000  C
  C436     1.0000 0.29767  0.40161  0.99532  Biso   1.000  C
  C437     1.0000 0.30412  0.30504  0.99454  Biso   1.000  C
  C438     1.0000 0.30006  0.28760  0.01805  Biso   1.000  C
  C439     1.0000 0.27881  0.26625  0.01797  Biso   1.000  C
  C440     1.0000 0.26165  0.26183  0.99418  Biso   1.000  C
  H211     1.0000 0.25290  0.27634  0.95063  Biso   1.000  H
  H212     1.0000 0.29004  0.31421  0.95114  Biso   1.000  H
  H213     1.0000 0.41245  0.27827  0.99770  Biso   1.000  H
  H214     1.0000 0.35933  0.27700  0.99531  Biso   1.000  H
  H215     1.0000 0.41033  0.37206  0.99991  Biso   1.000  H
  H216     1.0000 0.37120  0.41120  0.99955  Biso   1.000  H
  H217     1.0000 0.27623  0.36023  0.99308  Biso   1.000  H
  H218     1.0000 0.27751  0.41337  0.99482  Biso   1.000  H
  H219     1.0000 0.31322  0.29073  0.03708  Biso   1.000  H
  H220     1.0000 0.27597  0.25295  0.03696  Biso   1.000  H
  O89      1.0000 0.96046  0.80322  0.00058  Biso   1.000  O
  O90      1.0000 0.96023  0.85079  0.00048  Biso   1.000  O
  O91      1.0000 0.84997  0.96104  0.99952  Biso   1.000  O
  O92      1.0000 0.80241  0.96127  0.99942  Biso   1.000  O
  N23      1.0000 0.82658  0.82742  0.99486  Biso   1.000  N
  C441     1.0000 0.76599  0.77924  0.96976  Biso   1.000  C
  C442     1.0000 0.78697  0.80084  0.97004  Biso   1.000  C
  C443     1.0000 0.90069  0.79845  0.99783  Biso   1.000  C
  C444     1.0000 0.87047  0.79746  0.99653  Biso   1.000  C
  C445     1.0000 0.85545  0.82349  0.99660  Biso   1.000  C
  C446     1.0000 0.86975  0.84956  0.99777  Biso   1.000  C
  C447     1.0000 0.89972  0.85127  0.99913  Biso   1.000  C
  C448     1.0000 0.91560  0.82520  0.99908  Biso   1.000  C
  C449     1.0000 0.94675  0.82692  0.00069  Biso   1.000  C
  C450     1.0000 0.82611  0.94756  0.99930  Biso   1.000  C
  C451     1.0000 0.82439  0.91650  0.99724  Biso   1.000  C
  C452     1.0000 0.85045  0.90062  0.99796  Biso   1.000  C
  C453     1.0000 0.84874  0.87062  0.99691  Biso   1.000  C
  C454     1.0000 0.82270  0.85634  0.99502  Biso   1.000  C
  C455     1.0000 0.79669  0.87138  0.99425  Biso   1.000  C
  C456     1.0000 0.79767  0.90161  0.99532  Biso   1.000  C
  C457     1.0000 0.80412  0.80504  0.99454  Biso   1.000  C
  C458     1.0000 0.80006  0.78760  0.01805  Biso   1.000  C
  C459     1.0000 0.77881  0.76625  0.01797  Biso   1.000  C
  C460     1.0000 0.76165  0.76183  0.99418  Biso   1.000  C
  H221     1.0000 0.75290  0.77634  0.95063  Biso   1.000  H
  H222     1.0000 0.79004  0.81421  0.95114  Biso   1.000  H
  H223     1.0000 0.91245  0.77827  0.99770  Biso   1.000  H
  H224     1.0000 0.85933  0.77700  0.99531  Biso   1.000  H
  H225     1.0000 0.91033  0.87206  0.99991  Biso   1.000  H
  H226     1.0000 0.87120  0.91120  0.99955  Biso   1.000  H
  H227     1.0000 0.77623  0.86023  0.99308  Biso   1.000  H
  H228     1.0000 0.77751  0.91337  0.99482  Biso   1.000  H
  H229     1.0000 0.81322  0.79073  0.03708  Biso   1.000  H
  H230     1.0000 0.77597  0.75295  0.03696  Biso   1.000  H
  O93      1.0000 0.96046  0.30322  0.50058  Biso   1.000  O
  O94      1.0000 0.96023  0.35079  0.50048  Biso   1.000  O
  O95      1.0000 0.84997  0.46104  0.49952  Biso   1.000  O
  O96      1.0000 0.80241  0.46127  0.49942  Biso   1.000  O
  N24      1.0000 0.82658  0.32742  0.49486  Biso   1.000  N
  C461     1.0000 0.76599  0.27924  0.46976  Biso   1.000  C
  C462     1.0000 0.78697  0.30084  0.47004  Biso   1.000  C
  C463     1.0000 0.90069  0.29845  0.49783  Biso   1.000  C
  C464     1.0000 0.87047  0.29746  0.49653  Biso   1.000  C
  C465     1.0000 0.85545  0.32349  0.49660  Biso   1.000  C
  C466     1.0000 0.86975  0.34956  0.49777  Biso   1.000  C
  C467     1.0000 0.89972  0.35127  0.49913  Biso   1.000  C
  C468     1.0000 0.91560  0.32520  0.49908  Biso   1.000  C
  C469     1.0000 0.94675  0.32692  0.50069  Biso   1.000  C
  C470     1.0000 0.82611  0.44756  0.49930  Biso   1.000  C
  C471     1.0000 0.82439  0.41650  0.49724  Biso   1.000  C
  C472     1.0000 0.85045  0.40062  0.49796  Biso   1.000  C
  C473     1.0000 0.84874  0.37062  0.49691  Biso   1.000  C
  C474     1.0000 0.82270  0.35634  0.49502  Biso   1.000  C
  C475     1.0000 0.79669  0.37138  0.49425  Biso   1.000  C
  C476     1.0000 0.79767  0.40161  0.49532  Biso   1.000  C
  C477     1.0000 0.80412  0.30504  0.49454  Biso   1.000  C
  C478     1.0000 0.80006  0.28760  0.51805  Biso   1.000  C
  C479     1.0000 0.77881  0.26625  0.51797  Biso   1.000  C
  C480     1.0000 0.76165  0.26183  0.49418  Biso   1.000  C
  H231     1.0000 0.75290  0.27634  0.45063  Biso   1.000  H
  H232     1.0000 0.79004  0.31421  0.45114  Biso   1.000  H
  H233     1.0000 0.91245  0.27827  0.49770  Biso   1.000  H
  H234     1.0000 0.85933  0.27700  0.49531  Biso   1.000  H
  H235     1.0000 0.91033  0.37206  0.49991  Biso   1.000  H
  H236     1.0000 0.87120  0.41120  0.49955  Biso   1.000  H
  H237     1.0000 0.77623  0.36023  0.49308  Biso   1.000  H
  H238     1.0000 0.77751  0.41337  0.49482  Biso   1.000  H
  H239     1.0000 0.81322  0.29073  0.53708  Biso   1.000  H
  H240     1.0000 0.77597  0.25295  0.53696  Biso   1.000  H
  O97      1.0000 0.53954  0.80322  0.49942  Biso   1.000  O
  O98      1.0000 0.53977  0.85079  0.49952  Biso   1.000  O
  O99      1.0000 0.65003  0.96104  0.50048  Biso   1.000  O
  O100     1.0000 0.69759  0.96127  0.50058  Biso   1.000  O
  N25      1.0000 0.67342  0.82742  0.50514  Biso   1.000  N
  C481     1.0000 0.73401  0.77924  0.53024  Biso   1.000  C
  C482     1.0000 0.71303  0.80084  0.52996  Biso   1.000  C
  C483     1.0000 0.59931  0.79845  0.50217  Biso   1.000  C
  C484     1.0000 0.62953  0.79746  0.50347  Biso   1.000  C
  C485     1.0000 0.64455  0.82349  0.50340  Biso   1.000  C
  C486     1.0000 0.63025  0.84956  0.50223  Biso   1.000  C
  C487     1.0000 0.60028  0.85127  0.50087  Biso   1.000  C
  C488     1.0000 0.58440  0.82520  0.50092  Biso   1.000  C
  C489     1.0000 0.55325  0.82692  0.49931  Biso   1.000  C
  C490     1.0000 0.67389  0.94756  0.50070  Biso   1.000  C
  C491     1.0000 0.67561  0.91650  0.50276  Biso   1.000  C
  C492     1.0000 0.64955  0.90062  0.50204  Biso   1.000  C
  C493     1.0000 0.65126  0.87062  0.50309  Biso   1.000  C
  C494     1.0000 0.67730  0.85634  0.50498  Biso   1.000  C
  C495     1.0000 0.70331  0.87138  0.50575  Biso   1.000  C
  C496     1.0000 0.70233  0.90161  0.50468  Biso   1.000  C
  C497     1.0000 0.69588  0.80504  0.50546  Biso   1.000  C
  C498     1.0000 0.69994  0.78760  0.48195  Biso   1.000  C
  C499     1.0000 0.72119  0.76625  0.48203  Biso   1.000  C
  C500     1.0000 0.73835  0.76183  0.50582  Biso   1.000  C
  H241     1.0000 0.74710  0.77634  0.54937  Biso   1.000  H
  H242     1.0000 0.70996  0.81421  0.54886  Biso   1.000  H
  H243     1.0000 0.58755  0.77827  0.50230  Biso   1.000  H
  H244     1.0000 0.64067  0.77700  0.50469  Biso   1.000  H
  H245     1.0000 0.58967  0.87206  0.50009  Biso   1.000  H
  H246     1.0000 0.62880  0.91120  0.50045  Biso   1.000  H
  H247     1.0000 0.72377  0.86023  0.50692  Biso   1.000  H
  H248     1.0000 0.72249  0.91337  0.50518  Biso   1.000  H
  H249     1.0000 0.68678  0.79073  0.46292  Biso   1.000  H
  H250     1.0000 0.72403  0.75295  0.46304  Biso   1.000  H
  O101     1.0000 0.53954  0.30322  0.99942  Biso   1.000  O
  O102     1.0000 0.53977  0.35079  0.99952  Biso   1.000  O
  O103     1.0000 0.65003  0.46104  0.00048  Biso   1.000  O
  O104     1.0000 0.69759  0.46127  0.00058  Biso   1.000  O
  N26      1.0000 0.67342  0.32742  0.00514  Biso   1.000  N
  C501     1.0000 0.73401  0.27924  0.03024  Biso   1.000  C
  C502     1.0000 0.71303  0.30084  0.02996  Biso   1.000  C
  C503     1.0000 0.59931  0.29845  0.00217  Biso   1.000  C
  C504     1.0000 0.62953  0.29746  0.00347  Biso   1.000  C
  C505     1.0000 0.64455  0.32349  0.00340  Biso   1.000  C
  C506     1.0000 0.63025  0.34956  0.00223  Biso   1.000  C
  C507     1.0000 0.60028  0.35127  0.00087  Biso   1.000  C
  C508     1.0000 0.58440  0.32520  0.00092  Biso   1.000  C
  C509     1.0000 0.55325  0.32692  0.99931  Biso   1.000  C
  C510     1.0000 0.67389  0.44756  0.00070  Biso   1.000  C
  C511     1.0000 0.67561  0.41650  0.00276  Biso   1.000  C
  C512     1.0000 0.64955  0.40062  0.00204  Biso   1.000  C
  C513     1.0000 0.65126  0.37062  0.00309  Biso   1.000  C
  C514     1.0000 0.67730  0.35634  0.00498  Biso   1.000  C
  C515     1.0000 0.70331  0.37138  0.00575  Biso   1.000  C
  C516     1.0000 0.70233  0.40161  0.00468  Biso   1.000  C
  C517     1.0000 0.69588  0.30504  0.00546  Biso   1.000  C
  C518     1.0000 0.69994  0.28760  0.98195  Biso   1.000  C
  C519     1.0000 0.72119  0.26625  0.98203  Biso   1.000  C
  C520     1.0000 0.73835  0.26183  0.00582  Biso   1.000  C
  H251     1.0000 0.74710  0.27634  0.04937  Biso   1.000  H
  H252     1.0000 0.70996  0.31421  0.04886  Biso   1.000  H
  H253     1.0000 0.58755  0.27827  0.00230  Biso   1.000  H
  H254     1.0000 0.64067  0.27700  0.00469  Biso   1.000  H
  H255     1.0000 0.58967  0.37206  0.00009  Biso   1.000  H
  H256     1.0000 0.62880  0.41120  0.00045  Biso   1.000  H
  H257     1.0000 0.72377  0.36023  0.00692  Biso   1.000  H
  H258     1.0000 0.72249  0.41337  0.00518  Biso   1.000  H
  H259     1.0000 0.68678  0.29073  0.96292  Biso   1.000  H
  H260     1.0000 0.72403  0.25295  0.96304  Biso   1.000  H
  O105     1.0000 0.03954  0.80322  0.99942  Biso   1.000  O
  O106     1.0000 0.03977  0.85079  0.99952  Biso   1.000  O
  O107     1.0000 0.15003  0.96104  0.00048  Biso   1.000  O
  O108     1.0000 0.19759  0.96127  0.00058  Biso   1.000  O
  N27      1.0000 0.17342  0.82742  0.00514  Biso   1.000  N
  C521     1.0000 0.23401  0.77924  0.03024  Biso   1.000  C
  C522     1.0000 0.21303  0.80084  0.02996  Biso   1.000  C
  C523     1.0000 0.09931  0.79845  0.00217  Biso   1.000  C
  C524     1.0000 0.12953  0.79746  0.00347  Biso   1.000  C
  C525     1.0000 0.14455  0.82349  0.00340  Biso   1.000  C
  C526     1.0000 0.13025  0.84956  0.00223  Biso   1.000  C
  C527     1.0000 0.10028  0.85127  0.00087  Biso   1.000  C
  C528     1.0000 0.08440  0.82520  0.00092  Biso   1.000  C
  C529     1.0000 0.05325  0.82692  0.99931  Biso   1.000  C
  C530     1.0000 0.17389  0.94756  0.00070  Biso   1.000  C
  C531     1.0000 0.17561  0.91650  0.00276  Biso   1.000  C
  C532     1.0000 0.14955  0.90062  0.00204  Biso   1.000  C
  C533     1.0000 0.15126  0.87062  0.00309  Biso   1.000  C
  C534     1.0000 0.17730  0.85634  0.00498  Biso   1.000  C
  C535     1.0000 0.20331  0.87138  0.00575  Biso   1.000  C
  C536     1.0000 0.20233  0.90161  0.00468  Biso   1.000  C
  C537     1.0000 0.19588  0.80504  0.00546  Biso   1.000  C
  C538     1.0000 0.19994  0.78760  0.98195  Biso   1.000  C
  C539     1.0000 0.22119  0.76625  0.98203  Biso   1.000  C
  C540     1.0000 0.23835  0.76183  0.00582  Biso   1.000  C
  H261     1.0000 0.24710  0.77634  0.04937  Biso   1.000  H
  H262     1.0000 0.20996  0.81421  0.04886  Biso   1.000  H
  H263     1.0000 0.08755  0.77827  0.00230  Biso   1.000  H
  H264     1.0000 0.14067  0.77700  0.00469  Biso   1.000  H
  H265     1.0000 0.08967  0.87206  0.00009  Biso   1.000  H
  H266     1.0000 0.12880  0.91120  0.00045  Biso   1.000  H
  H267     1.0000 0.22377  0.86023  0.00692  Biso   1.000  H
  H268     1.0000 0.22249  0.91337  0.00518  Biso   1.000  H
  H269     1.0000 0.18678  0.79073  0.96292  Biso   1.000  H
  H270     1.0000 0.22403  0.75295  0.96304  Biso   1.000  H
  O109     1.0000 0.03954  0.30322  0.49942  Biso   1.000  O
  O110     1.0000 0.03977  0.35079  0.49952  Biso   1.000  O
  O111     1.0000 0.15003  0.46104  0.50048  Biso   1.000  O
  O112     1.0000 0.19759  0.46127  0.50058  Biso   1.000  O
  N28      1.0000 0.17342  0.32742  0.50514  Biso   1.000  N
  C541     1.0000 0.23401  0.27924  0.53024  Biso   1.000  C
  C542     1.0000 0.21303  0.30084  0.52996  Biso   1.000  C
  C543     1.0000 0.09931  0.29845  0.50217  Biso   1.000  C
  C544     1.0000 0.12953  0.29746  0.50347  Biso   1.000  C
  C545     1.0000 0.14455  0.32349  0.50340  Biso   1.000  C
  C546     1.0000 0.13025  0.34956  0.50223  Biso   1.000  C
  C547     1.0000 0.10028  0.35127  0.50087  Biso   1.000  C
  C548     1.0000 0.08440  0.32520  0.50092  Biso   1.000  C
  C549     1.0000 0.05325  0.32692  0.49931  Biso   1.000  C
  C550     1.0000 0.17389  0.44756  0.50070  Biso   1.000  C
  C551     1.0000 0.17561  0.41650  0.50276  Biso   1.000  C
  C552     1.0000 0.14955  0.40062  0.50204  Biso   1.000  C
  C553     1.0000 0.15126  0.37062  0.50309  Biso   1.000  C
  C554     1.0000 0.17730  0.35634  0.50498  Biso   1.000  C
  C555     1.0000 0.20331  0.37138  0.50575  Biso   1.000  C
  C556     1.0000 0.20233  0.40161  0.50468  Biso   1.000  C
  C557     1.0000 0.19588  0.30504  0.50546  Biso   1.000  C
  C558     1.0000 0.19994  0.28760  0.48195  Biso   1.000  C
  C559     1.0000 0.22119  0.26625  0.48203  Biso   1.000  C
  C560     1.0000 0.23835  0.26183  0.50582  Biso   1.000  C
  H271     1.0000 0.24710  0.27634  0.54937  Biso   1.000  H
  H272     1.0000 0.20996  0.31421  0.54886  Biso   1.000  H
  H273     1.0000 0.08755  0.27827  0.50230  Biso   1.000  H
  H274     1.0000 0.14067  0.27700  0.50469  Biso   1.000  H
  H275     1.0000 0.08967  0.37206  0.50009  Biso   1.000  H
  H276     1.0000 0.12880  0.41120  0.50045  Biso   1.000  H
  H277     1.0000 0.22377  0.36023  0.50692  Biso   1.000  H
  H278     1.0000 0.22249  0.41337  0.50518  Biso   1.000  H
  H279     1.0000 0.18678  0.29073  0.46292  Biso   1.000  H
  H280     1.0000 0.22403  0.25295  0.46304  Biso   1.000  H
  O113     1.0000 0.53954  0.19678  0.50058  Biso   1.000  O
  O114     1.0000 0.53977  0.14921  0.50048  Biso   1.000  O
  O115     1.0000 0.65003  0.03896  0.49952  Biso   1.000  O
  O116     1.0000 0.69759  0.03873  0.49942  Biso   1.000  O
  N29      1.0000 0.67342  0.17258  0.49486  Biso   1.000  N
  C561     1.0000 0.73401  0.22076  0.46976  Biso   1.000  C
  C562     1.0000 0.71303  0.19916  0.47004  Biso   1.000  C
  C563     1.0000 0.59931  0.20155  0.49783  Biso   1.000  C
  C564     1.0000 0.62953  0.20254  0.49653  Biso   1.000  C
  C565     1.0000 0.64455  0.17651  0.49660  Biso   1.000  C
  C566     1.0000 0.63025  0.15044  0.49777  Biso   1.000  C
  C567     1.0000 0.60028  0.14873  0.49913  Biso   1.000  C
  C568     1.0000 0.58440  0.17480  0.49908  Biso   1.000  C
  C569     1.0000 0.55325  0.17308  0.50069  Biso   1.000  C
  C570     1.0000 0.67389  0.05244  0.49930  Biso   1.000  C
  C571     1.0000 0.67561  0.08350  0.49724  Biso   1.000  C
  C572     1.0000 0.64955  0.09938  0.49796  Biso   1.000  C
  C573     1.0000 0.65126  0.12938  0.49691  Biso   1.000  C
  C574     1.0000 0.67730  0.14366  0.49502  Biso   1.000  C
  C575     1.0000 0.70331  0.12862  0.49425  Biso   1.000  C
  C576     1.0000 0.70233  0.09839  0.49532  Biso   1.000  C
  C577     1.0000 0.69588  0.19496  0.49454  Biso   1.000  C
  C578     1.0000 0.69994  0.21240  0.51805  Biso   1.000  C
  C579     1.0000 0.72119  0.23375  0.51797  Biso   1.000  C
  C580     1.0000 0.73835  0.23817  0.49418  Biso   1.000  C
  H281     1.0000 0.74710  0.22366  0.45063  Biso   1.000  H
  H282     1.0000 0.70996  0.18579  0.45114  Biso   1.000  H
  H283     1.0000 0.58755  0.22173  0.49770  Biso   1.000  H
  H284     1.0000 0.64067  0.22300  0.49531  Biso   1.000  H
  H285     1.0000 0.58967  0.12794  0.49991  Biso   1.000  H
  H286     1.0000 0.62880  0.08880  0.49955  Biso   1.000  H
  H287     1.0000 0.72377  0.13977  0.49308  Biso   1.000  H
  H288     1.0000 0.72249  0.08663  0.49482  Biso   1.000  H
  H289     1.0000 0.68678  0.20927  0.53708  Biso   1.000  H
  H290     1.0000 0.72403  0.24705  0.53696  Biso   1.000  H
  O117     1.0000 0.53954  0.69678  0.00058  Biso   1.000  O
  O118     1.0000 0.53977  0.64921  0.00048  Biso   1.000  O
  O119     1.0000 0.65003  0.53896  0.99952  Biso   1.000  O
  O120     1.0000 0.69759  0.53873  0.99942  Biso   1.000  O
  N30      1.0000 0.67342  0.67258  0.99486  Biso   1.000  N
  C581     1.0000 0.73401  0.72076  0.96976  Biso   1.000  C
  C582     1.0000 0.71303  0.69916  0.97004  Biso   1.000  C
  C583     1.0000 0.59931  0.70155  0.99783  Biso   1.000  C
  C584     1.0000 0.62953  0.70254  0.99653  Biso   1.000  C
  C585     1.0000 0.64455  0.67651  0.99660  Biso   1.000  C
  C586     1.0000 0.63025  0.65044  0.99777  Biso   1.000  C
  C587     1.0000 0.60028  0.64873  0.99913  Biso   1.000  C
  C588     1.0000 0.58440  0.67480  0.99908  Biso   1.000  C
  C589     1.0000 0.55325  0.67308  0.00069  Biso   1.000  C
  C590     1.0000 0.67389  0.55244  0.99930  Biso   1.000  C
  C591     1.0000 0.67561  0.58350  0.99724  Biso   1.000  C
  C592     1.0000 0.64955  0.59938  0.99796  Biso   1.000  C
  C593     1.0000 0.65126  0.62938  0.99691  Biso   1.000  C
  C594     1.0000 0.67730  0.64366  0.99502  Biso   1.000  C
  C595     1.0000 0.70331  0.62862  0.99425  Biso   1.000  C
  C596     1.0000 0.70233  0.59839  0.99532  Biso   1.000  C
  C597     1.0000 0.69588  0.69496  0.99454  Biso   1.000  C
  C598     1.0000 0.69994  0.71240  0.01805  Biso   1.000  C
  C599     1.0000 0.72119  0.73375  0.01797  Biso   1.000  C
  C600     1.0000 0.73835  0.73817  0.99418  Biso   1.000  C
  H291     1.0000 0.74710  0.72366  0.95063  Biso   1.000  H
  H292     1.0000 0.70996  0.68579  0.95114  Biso   1.000  H
  H293     1.0000 0.58755  0.72173  0.99770  Biso   1.000  H
  H294     1.0000 0.64067  0.72300  0.99531  Biso   1.000  H
  H295     1.0000 0.58967  0.62794  0.99991  Biso   1.000  H
  H296     1.0000 0.62880  0.58880  0.99955  Biso   1.000  H
  H297     1.0000 0.72377  0.63977  0.99308  Biso   1.000  H
  H298     1.0000 0.72249  0.58663  0.99482  Biso   1.000  H
  H299     1.0000 0.68678  0.70927  0.03708  Biso   1.000  H
  H300     1.0000 0.72403  0.74705  0.03696  Biso   1.000  H
  O121     1.0000 0.03954  0.19678  0.00058  Biso   1.000  O
  O122     1.0000 0.03977  0.14921  0.00048  Biso   1.000  O
  O123     1.0000 0.15003  0.03896  0.99952  Biso   1.000  O
  O124     1.0000 0.19759  0.03873  0.99942  Biso   1.000  O
  N31      1.0000 0.17342  0.17258  0.99486  Biso   1.000  N
  C601     1.0000 0.23401  0.22076  0.96976  Biso   1.000  C
  C602     1.0000 0.21303  0.19916  0.97004  Biso   1.000  C
  C603     1.0000 0.09931  0.20155  0.99783  Biso   1.000  C
  C604     1.0000 0.12953  0.20254  0.99653  Biso   1.000  C
  C605     1.0000 0.14455  0.17651  0.99660  Biso   1.000  C
  C606     1.0000 0.13025  0.15044  0.99777  Biso   1.000  C
  C607     1.0000 0.10028  0.14873  0.99913  Biso   1.000  C
  C608     1.0000 0.08440  0.17480  0.99908  Biso   1.000  C
  C609     1.0000 0.05325  0.17308  0.00069  Biso   1.000  C
  C610     1.0000 0.17389  0.05244  0.99930  Biso   1.000  C
  C611     1.0000 0.17561  0.08350  0.99724  Biso   1.000  C
  C612     1.0000 0.14955  0.09938  0.99796  Biso   1.000  C
  C613     1.0000 0.15126  0.12938  0.99691  Biso   1.000  C
  C614     1.0000 0.17730  0.14366  0.99502  Biso   1.000  C
  C615     1.0000 0.20331  0.12862  0.99425  Biso   1.000  C
  C616     1.0000 0.20233  0.09839  0.99532  Biso   1.000  C
  C617     1.0000 0.19588  0.19496  0.99454  Biso   1.000  C
  C618     1.0000 0.19994  0.21240  0.01805  Biso   1.000  C
  C619     1.0000 0.22119  0.23375  0.01797  Biso   1.000  C
  C620     1.0000 0.23835  0.23817  0.99418  Biso   1.000  C
  H301     1.0000 0.24710  0.22366  0.95063  Biso   1.000  H
  H302     1.0000 0.20996  0.18579  0.95114  Biso   1.000  H
  H303     1.0000 0.08755  0.22173  0.99770  Biso   1.000  H
  H304     1.0000 0.14067  0.22300  0.99531  Biso   1.000  H
  H305     1.0000 0.08967  0.12794  0.99991  Biso   1.000  H
  H306     1.0000 0.12880  0.08880  0.99955  Biso   1.000  H
  H307     1.0000 0.22377  0.13977  0.99308  Biso   1.000  H
  H308     1.0000 0.22249  0.08663  0.99482  Biso   1.000  H
  H309     1.0000 0.18678  0.20927  0.03708  Biso   1.000  H
  H310     1.0000 0.22403  0.24705  0.03696  Biso   1.000  H
  O125     1.0000 0.03954  0.69678  0.50058  Biso   1.000  O
  O126     1.0000 0.03977  0.64921  0.50048  Biso   1.000  O
  O127     1.0000 0.15003  0.53896  0.49952  Biso   1.000  O
  O128     1.0000 0.19759  0.53873  0.49942  Biso   1.000  O
  N32      1.0000 0.17342  0.67258  0.49486  Biso   1.000  N
  C621     1.0000 0.23401  0.72076  0.46976  Biso   1.000  C
  C622     1.0000 0.21303  0.69916  0.47004  Biso   1.000  C
  C623     1.0000 0.09931  0.70155  0.49783  Biso   1.000  C
  C624     1.0000 0.12953  0.70254  0.49653  Biso   1.000  C
  C625     1.0000 0.14455  0.67651  0.49660  Biso   1.000  C
  C626     1.0000 0.13025  0.65044  0.49777  Biso   1.000  C
  C627     1.0000 0.10028  0.64873  0.49913  Biso   1.000  C
  C628     1.0000 0.08440  0.67480  0.49908  Biso   1.000  C
  C629     1.0000 0.05325  0.67308  0.50069  Biso   1.000  C
  C630     1.0000 0.17389  0.55244  0.49930  Biso   1.000  C
  C631     1.0000 0.17561  0.58350  0.49724  Biso   1.000  C
  C632     1.0000 0.14955  0.59938  0.49796  Biso   1.000  C
  C633     1.0000 0.15126  0.62938  0.49691  Biso   1.000  C
  C634     1.0000 0.17730  0.64366  0.49502  Biso   1.000  C
  C635     1.0000 0.20331  0.62862  0.49425  Biso   1.000  C
  C636     1.0000 0.20233  0.59839  0.49532  Biso   1.000  C
  C637     1.0000 0.19588  0.69496  0.49454  Biso   1.000  C
  C638     1.0000 0.19994  0.71240  0.51805  Biso   1.000  C
  C639     1.0000 0.22119  0.73375  0.51797  Biso   1.000  C
  C640     1.0000 0.23835  0.73817  0.49418  Biso   1.000  C
  H311     1.0000 0.24710  0.72366  0.45063  Biso   1.000  H
  H312     1.0000 0.20996  0.68579  0.45114  Biso   1.000  H
  H313     1.0000 0.08755  0.72173  0.49770  Biso   1.000  H
  H314     1.0000 0.14067  0.72300  0.49531  Biso   1.000  H
  H315     1.0000 0.08967  0.62794  0.49991  Biso   1.000  H
  H316     1.0000 0.12880  0.58880  0.49955  Biso   1.000  H
  H317     1.0000 0.22377  0.63977  0.49308  Biso   1.000  H
  H318     1.0000 0.22249  0.58663  0.49482  Biso   1.000  H
  H319     1.0000 0.18678  0.70927  0.53708  Biso   1.000  H
  H320     1.0000 0.22403  0.74705  0.53696  Biso   1.000  H
  O129     1.0000 0.49942  0.46046  0.19678  Biso   1.000  O
  O130     1.0000 0.49952  0.46023  0.14921  Biso   1.000  O
  O131     1.0000 0.50048  0.34997  0.03896  Biso   1.000  O
  O132     1.0000 0.50058  0.30241  0.03873  Biso   1.000  O
  N33      1.0000 0.50514  0.32658  0.17258  Biso   1.000  N
  C641     1.0000 0.53024  0.26599  0.22076  Biso   1.000  C
  C642     1.0000 0.52996  0.28697  0.19916  Biso   1.000  C
  C643     1.0000 0.50217  0.40069  0.20155  Biso   1.000  C
  C644     1.0000 0.50347  0.37047  0.20254  Biso   1.000  C
  C645     1.0000 0.50340  0.35545  0.17651  Biso   1.000  C
  C646     1.0000 0.50223  0.36975  0.15044  Biso   1.000  C
  C647     1.0000 0.50087  0.39972  0.14873  Biso   1.000  C
  C648     1.0000 0.50092  0.41560  0.17480  Biso   1.000  C
  C649     1.0000 0.49931  0.44675  0.17308  Biso   1.000  C
  C650     1.0000 0.50070  0.32611  0.05244  Biso   1.000  C
  C651     1.0000 0.50276  0.32439  0.08350  Biso   1.000  C
  C652     1.0000 0.50204  0.35045  0.09938  Biso   1.000  C
  C653     1.0000 0.50309  0.34874  0.12938  Biso   1.000  C
  C654     1.0000 0.50498  0.32270  0.14366  Biso   1.000  C
  C655     1.0000 0.50575  0.29669  0.12862  Biso   1.000  C
  C656     1.0000 0.50468  0.29767  0.09839  Biso   1.000  C
  C657     1.0000 0.50546  0.30412  0.19496  Biso   1.000  C
  C658     1.0000 0.48195  0.30006  0.21240  Biso   1.000  C
  C659     1.0000 0.48203  0.27881  0.23375  Biso   1.000  C
  C660     1.0000 0.50582  0.26165  0.23817  Biso   1.000  C
  H321     1.0000 0.54937  0.25290  0.22366  Biso   1.000  H
  H322     1.0000 0.54886  0.29004  0.18579  Biso   1.000  H
  H323     1.0000 0.50230  0.41245  0.22173  Biso   1.000  H
  H324     1.0000 0.50469  0.35933  0.22300  Biso   1.000  H
  H325     1.0000 0.50009  0.41033  0.12794  Biso   1.000  H
  H326     1.0000 0.50045  0.37120  0.08880  Biso   1.000  H
  H327     1.0000 0.50692  0.27623  0.13977  Biso   1.000  H
  H328     1.0000 0.50518  0.27751  0.08663  Biso   1.000  H
  H329     1.0000 0.46292  0.31322  0.20927  Biso   1.000  H
  H330     1.0000 0.46304  0.27597  0.24705  Biso   1.000  H
  O133     1.0000 0.49942  0.96046  0.69678  Biso   1.000  O
  O134     1.0000 0.49952  0.96023  0.64921  Biso   1.000  O
  O135     1.0000 0.50048  0.84997  0.53896  Biso   1.000  O
  O136     1.0000 0.50058  0.80241  0.53873  Biso   1.000  O
  N34      1.0000 0.50514  0.82658  0.67258  Biso   1.000  N
  C661     1.0000 0.53024  0.76599  0.72076  Biso   1.000  C
  C662     1.0000 0.52996  0.78697  0.69916  Biso   1.000  C
  C663     1.0000 0.50217  0.90069  0.70155  Biso   1.000  C
  C664     1.0000 0.50347  0.87047  0.70254  Biso   1.000  C
  C665     1.0000 0.50340  0.85545  0.67651  Biso   1.000  C
  C666     1.0000 0.50223  0.86975  0.65044  Biso   1.000  C
  C667     1.0000 0.50087  0.89972  0.64873  Biso   1.000  C
  C668     1.0000 0.50092  0.91560  0.67480  Biso   1.000  C
  C669     1.0000 0.49931  0.94675  0.67308  Biso   1.000  C
  C670     1.0000 0.50070  0.82611  0.55244  Biso   1.000  C
  C671     1.0000 0.50276  0.82439  0.58350  Biso   1.000  C
  C672     1.0000 0.50204  0.85045  0.59938  Biso   1.000  C
  C673     1.0000 0.50309  0.84874  0.62938  Biso   1.000  C
  C674     1.0000 0.50498  0.82270  0.64366  Biso   1.000  C
  C675     1.0000 0.50575  0.79669  0.62862  Biso   1.000  C
  C676     1.0000 0.50468  0.79767  0.59839  Biso   1.000  C
  C677     1.0000 0.50546  0.80412  0.69496  Biso   1.000  C
  C678     1.0000 0.48195  0.80006  0.71240  Biso   1.000  C
  C679     1.0000 0.48203  0.77881  0.73375  Biso   1.000  C
  C680     1.0000 0.50582  0.76165  0.73817  Biso   1.000  C
  H331     1.0000 0.54937  0.75290  0.72366  Biso   1.000  H
  H332     1.0000 0.54886  0.79004  0.68579  Biso   1.000  H
  H333     1.0000 0.50230  0.91245  0.72173  Biso   1.000  H
  H334     1.0000 0.50469  0.85933  0.72300  Biso   1.000  H
  H335     1.0000 0.50009  0.91033  0.62794  Biso   1.000  H
  H336     1.0000 0.50045  0.87120  0.58880  Biso   1.000  H
  H337     1.0000 0.50692  0.77623  0.63977  Biso   1.000  H
  H338     1.0000 0.50518  0.77751  0.58663  Biso   1.000  H
  H339     1.0000 0.46292  0.81322  0.70927  Biso   1.000  H
  H340     1.0000 0.46304  0.77597  0.74705  Biso   1.000  H
  O137     1.0000 0.99942  0.46046  0.69678  Biso   1.000  O
  O138     1.0000 0.99952  0.46023  0.64921  Biso   1.000  O
  O139     1.0000 0.00048  0.34997  0.53896  Biso   1.000  O
  O140     1.0000 0.00058  0.30241  0.53873  Biso   1.000  O
  N35      1.0000 0.00514  0.32658  0.67258  Biso   1.000  N
  C681     1.0000 0.03024  0.26599  0.72076  Biso   1.000  C
  C682     1.0000 0.02996  0.28697  0.69916  Biso   1.000  C
  C683     1.0000 0.00217  0.40069  0.70155  Biso   1.000  C
  C684     1.0000 0.00347  0.37047  0.70254  Biso   1.000  C
  C685     1.0000 0.00340  0.35545  0.67651  Biso   1.000  C
  C686     1.0000 0.00223  0.36975  0.65044  Biso   1.000  C
  C687     1.0000 0.00087  0.39972  0.64873  Biso   1.000  C
  C688     1.0000 0.00092  0.41560  0.67480  Biso   1.000  C
  C689     1.0000 0.99931  0.44675  0.67308  Biso   1.000  C
  C690     1.0000 0.00070  0.32611  0.55244  Biso   1.000  C
  C691     1.0000 0.00276  0.32439  0.58350  Biso   1.000  C
  C692     1.0000 0.00204  0.35045  0.59938  Biso   1.000  C
  C693     1.0000 0.00309  0.34874  0.62938  Biso   1.000  C
  C694     1.0000 0.00498  0.32270  0.64366  Biso   1.000  C
  C695     1.0000 0.00575  0.29669  0.62862  Biso   1.000  C
  C696     1.0000 0.00468  0.29767  0.59839  Biso   1.000  C
  C697     1.0000 0.00546  0.30412  0.69496  Biso   1.000  C
  C698     1.0000 0.98195  0.30006  0.71240  Biso   1.000  C
  C699     1.0000 0.98203  0.27881  0.73375  Biso   1.000  C
  C700     1.0000 0.00582  0.26165  0.73817  Biso   1.000  C
  H341     1.0000 0.04937  0.25290  0.72366  Biso   1.000  H
  H342     1.0000 0.04886  0.29004  0.68579  Biso   1.000  H
  H343     1.0000 0.00230  0.41245  0.72173  Biso   1.000  H
  H344     1.0000 0.00469  0.35933  0.72300  Biso   1.000  H
  H345     1.0000 0.00009  0.41033  0.62794  Biso   1.000  H
  H346     1.0000 0.00045  0.37120  0.58880  Biso   1.000  H
  H347     1.0000 0.00692  0.27623  0.63977  Biso   1.000  H
  H348     1.0000 0.00518  0.27751  0.58663  Biso   1.000  H
  H349     1.0000 0.96292  0.31322  0.70927  Biso   1.000  H
  H350     1.0000 0.96304  0.27597  0.74705  Biso   1.000  H
  O141     1.0000 0.99942  0.96046  0.19678  Biso   1.000  O
  O142     1.0000 0.99952  0.96023  0.14921  Biso   1.000  O
  O143     1.0000 0.00048  0.84997  0.03896  Biso   1.000  O
  O144     1.0000 0.00058  0.80241  0.03873  Biso   1.000  O
  N36      1.0000 0.00514  0.82658  0.17258  Biso   1.000  N
  C701     1.0000 0.03024  0.76599  0.22076  Biso   1.000  C
  C702     1.0000 0.02996  0.78697  0.19916  Biso   1.000  C
  C703     1.0000 0.00217  0.90069  0.20155  Biso   1.000  C
  C704     1.0000 0.00347  0.87047  0.20254  Biso   1.000  C
  C705     1.0000 0.00340  0.85545  0.17651  Biso   1.000  C
  C706     1.0000 0.00223  0.86975  0.15044  Biso   1.000  C
  C707     1.0000 0.00087  0.89972  0.14873  Biso   1.000  C
  C708     1.0000 0.00092  0.91560  0.17480  Biso   1.000  C
  C709     1.0000 0.99931  0.94675  0.17308  Biso   1.000  C
  C710     1.0000 0.00070  0.82611  0.05244  Biso   1.000  C
  C711     1.0000 0.00276  0.82439  0.08350  Biso   1.000  C
  C712     1.0000 0.00204  0.85045  0.09938  Biso   1.000  C
  C713     1.0000 0.00309  0.84874  0.12938  Biso   1.000  C
  C714     1.0000 0.00498  0.82270  0.14366  Biso   1.000  C
  C715     1.0000 0.00575  0.79669  0.12862  Biso   1.000  C
  C716     1.0000 0.00468  0.79767  0.09839  Biso   1.000  C
  C717     1.0000 0.00546  0.80412  0.19496  Biso   1.000  C
  C718     1.0000 0.98195  0.80006  0.21240  Biso   1.000  C
  C719     1.0000 0.98203  0.77881  0.23375  Biso   1.000  C
  C720     1.0000 0.00582  0.76165  0.23817  Biso   1.000  C
  H351     1.0000 0.04937  0.75290  0.22366  Biso   1.000  H
  H352     1.0000 0.04886  0.79004  0.18579  Biso   1.000  H
  H353     1.0000 0.00230  0.91245  0.22173  Biso   1.000  H
  H354     1.0000 0.00469  0.85933  0.22300  Biso   1.000  H
  H355     1.0000 0.00009  0.91033  0.12794  Biso   1.000  H
  H356     1.0000 0.00045  0.87120  0.08880  Biso   1.000  H
  H357     1.0000 0.00692  0.77623  0.13977  Biso   1.000  H
  H358     1.0000 0.00518  0.77751  0.08663  Biso   1.000  H
  H359     1.0000 0.96292  0.81322  0.20927  Biso   1.000  H
  H360     1.0000 0.96304  0.77597  0.24705  Biso   1.000  H
  O145     1.0000 0.50058  0.46046  0.80322  Biso   1.000  O
  O146     1.0000 0.50048  0.46023  0.85079  Biso   1.000  O
  O147     1.0000 0.49952  0.34997  0.96104  Biso   1.000  O
  O148     1.0000 0.49942  0.30241  0.96127  Biso   1.000  O
  N37      1.0000 0.49486  0.32658  0.82742  Biso   1.000  N
  C721     1.0000 0.46976  0.26599  0.77924  Biso   1.000  C
  C722     1.0000 0.47004  0.28697  0.80084  Biso   1.000  C
  C723     1.0000 0.49783  0.40069  0.79845  Biso   1.000  C
  C724     1.0000 0.49653  0.37047  0.79746  Biso   1.000  C
  C725     1.0000 0.49660  0.35545  0.82349  Biso   1.000  C
  C726     1.0000 0.49777  0.36975  0.84956  Biso   1.000  C
  C727     1.0000 0.49913  0.39972  0.85127  Biso   1.000  C
  C728     1.0000 0.49908  0.41560  0.82520  Biso   1.000  C
  C729     1.0000 0.50069  0.44675  0.82692  Biso   1.000  C
  C730     1.0000 0.49930  0.32611  0.94756  Biso   1.000  C
  C731     1.0000 0.49724  0.32439  0.91650  Biso   1.000  C
  C732     1.0000 0.49796  0.35045  0.90062  Biso   1.000  C
  C733     1.0000 0.49691  0.34874  0.87062  Biso   1.000  C
  C734     1.0000 0.49502  0.32270  0.85634  Biso   1.000  C
  C735     1.0000 0.49425  0.29669  0.87138  Biso   1.000  C
  C736     1.0000 0.49532  0.29767  0.90161  Biso   1.000  C
  C737     1.0000 0.49454  0.30412  0.80504  Biso   1.000  C
  C738     1.0000 0.51805  0.30006  0.78760  Biso   1.000  C
  C739     1.0000 0.51797  0.27881  0.76625  Biso   1.000  C
  C740     1.0000 0.49418  0.26165  0.76183  Biso   1.000  C
  H361     1.0000 0.45063  0.25290  0.77634  Biso   1.000  H
  H362     1.0000 0.45114  0.29004  0.81421  Biso   1.000  H
  H363     1.0000 0.49770  0.41245  0.77827  Biso   1.000  H
  H364     1.0000 0.49531  0.35933  0.77700  Biso   1.000  H
  H365     1.0000 0.49991  0.41033  0.87206  Biso   1.000  H
  H366     1.0000 0.49955  0.37120  0.91120  Biso   1.000  H
  H367     1.0000 0.49308  0.27623  0.86023  Biso   1.000  H
  H368     1.0000 0.49482  0.27751  0.91337  Biso   1.000  H
  H369     1.0000 0.53708  0.31322  0.79073  Biso   1.000  H
  H370     1.0000 0.53696  0.27597  0.75295  Biso   1.000  H
  O149     1.0000 0.50058  0.96046  0.30322  Biso   1.000  O
  O150     1.0000 0.50048  0.96023  0.35079  Biso   1.000  O
  O151     1.0000 0.49952  0.84997  0.46104  Biso   1.000  O
  O152     1.0000 0.49942  0.80241  0.46127  Biso   1.000  O
  N38      1.0000 0.49486  0.82658  0.32742  Biso   1.000  N
  C741     1.0000 0.46976  0.76599  0.27924  Biso   1.000  C
  C742     1.0000 0.47004  0.78697  0.30084  Biso   1.000  C
  C743     1.0000 0.49783  0.90069  0.29845  Biso   1.000  C
  C744     1.0000 0.49653  0.87047  0.29746  Biso   1.000  C
  C745     1.0000 0.49660  0.85545  0.32349  Biso   1.000  C
  C746     1.0000 0.49777  0.86975  0.34956  Biso   1.000  C
  C747     1.0000 0.49913  0.89972  0.35127  Biso   1.000  C
  C748     1.0000 0.49908  0.91560  0.32520  Biso   1.000  C
  C749     1.0000 0.50069  0.94675  0.32692  Biso   1.000  C
  C750     1.0000 0.49930  0.82611  0.44756  Biso   1.000  C
  C751     1.0000 0.49724  0.82439  0.41650  Biso   1.000  C
  C752     1.0000 0.49796  0.85045  0.40062  Biso   1.000  C
  C753     1.0000 0.49691  0.84874  0.37062  Biso   1.000  C
  C754     1.0000 0.49502  0.82270  0.35634  Biso   1.000  C
  C755     1.0000 0.49425  0.79669  0.37138  Biso   1.000  C
  C756     1.0000 0.49532  0.79767  0.40161  Biso   1.000  C
  C757     1.0000 0.49454  0.80412  0.30504  Biso   1.000  C
  C758     1.0000 0.51805  0.80006  0.28760  Biso   1.000  C
  C759     1.0000 0.51797  0.77881  0.26625  Biso   1.000  C
  C760     1.0000 0.49418  0.76165  0.26183  Biso   1.000  C
  H371     1.0000 0.45063  0.75290  0.27634  Biso   1.000  H
  H372     1.0000 0.45114  0.79004  0.31421  Biso   1.000  H
  H373     1.0000 0.49770  0.91245  0.27827  Biso   1.000  H
  H374     1.0000 0.49531  0.85933  0.27700  Biso   1.000  H
  H375     1.0000 0.49991  0.91033  0.37206  Biso   1.000  H
  H376     1.0000 0.49955  0.87120  0.41120  Biso   1.000  H
  H377     1.0000 0.49308  0.77623  0.36023  Biso   1.000  H
  H378     1.0000 0.49482  0.77751  0.41337  Biso   1.000  H
  H379     1.0000 0.53708  0.81322  0.29073  Biso   1.000  H
  H380     1.0000 0.53696  0.77597  0.25295  Biso   1.000  H
  O153     1.0000 0.00058  0.46046  0.30322  Biso   1.000  O
  O154     1.0000 0.00048  0.46023  0.35079  Biso   1.000  O
  O155     1.0000 0.99952  0.34997  0.46104  Biso   1.000  O
  O156     1.0000 0.99942  0.30241  0.46127  Biso   1.000  O
  N39      1.0000 0.99486  0.32658  0.32742  Biso   1.000  N
  C761     1.0000 0.96976  0.26599  0.27924  Biso   1.000  C
  C762     1.0000 0.97004  0.28697  0.30084  Biso   1.000  C
  C763     1.0000 0.99783  0.40069  0.29845  Biso   1.000  C
  C764     1.0000 0.99653  0.37047  0.29746  Biso   1.000  C
  C765     1.0000 0.99660  0.35545  0.32349  Biso   1.000  C
  C766     1.0000 0.99777  0.36975  0.34956  Biso   1.000  C
  C767     1.0000 0.99913  0.39972  0.35127  Biso   1.000  C
  C768     1.0000 0.99908  0.41560  0.32520  Biso   1.000  C
  C769     1.0000 0.00069  0.44675  0.32692  Biso   1.000  C
  C770     1.0000 0.99930  0.32611  0.44756  Biso   1.000  C
  C771     1.0000 0.99724  0.32439  0.41650  Biso   1.000  C
  C772     1.0000 0.99796  0.35045  0.40062  Biso   1.000  C
  C773     1.0000 0.99691  0.34874  0.37062  Biso   1.000  C
  C774     1.0000 0.99502  0.32270  0.35634  Biso   1.000  C
  C775     1.0000 0.99425  0.29669  0.37138  Biso   1.000  C
  C776     1.0000 0.99532  0.29767  0.40161  Biso   1.000  C
  C777     1.0000 0.99454  0.30412  0.30504  Biso   1.000  C
  C778     1.0000 0.01805  0.30006  0.28760  Biso   1.000  C
  C779     1.0000 0.01797  0.27881  0.26625  Biso   1.000  C
  C780     1.0000 0.99418  0.26165  0.26183  Biso   1.000  C
  H381     1.0000 0.95063  0.25290  0.27634  Biso   1.000  H
  H382     1.0000 0.95114  0.29004  0.31421  Biso   1.000  H
  H383     1.0000 0.99770  0.41245  0.27827  Biso   1.000  H
  H384     1.0000 0.99531  0.35933  0.27700  Biso   1.000  H
  H385     1.0000 0.99991  0.41033  0.37206  Biso   1.000  H
  H386     1.0000 0.99955  0.37120  0.41120  Biso   1.000  H
  H387     1.0000 0.99308  0.27623  0.36023  Biso   1.000  H
  H388     1.0000 0.99482  0.27751  0.41337  Biso   1.000  H
  H389     1.0000 0.03708  0.31322  0.29073  Biso   1.000  H
  H390     1.0000 0.03696  0.27597  0.25295  Biso   1.000  H
  O157     1.0000 0.00058  0.96046  0.80322  Biso   1.000  O
  O158     1.0000 0.00048  0.96023  0.85079  Biso   1.000  O
  O159     1.0000 0.99952  0.84997  0.96104  Biso   1.000  O
  O160     1.0000 0.99942  0.80241  0.96127  Biso   1.000  O
  N40      1.0000 0.99486  0.82658  0.82742  Biso   1.000  N
  C781     1.0000 0.96976  0.76599  0.77924  Biso   1.000  C
  C782     1.0000 0.97004  0.78697  0.80084  Biso   1.000  C
  C783     1.0000 0.99783  0.90069  0.79845  Biso   1.000  C
  C784     1.0000 0.99653  0.87047  0.79746  Biso   1.000  C
  C785     1.0000 0.99660  0.85545  0.82349  Biso   1.000  C
  C786     1.0000 0.99777  0.86975  0.84956  Biso   1.000  C
  C787     1.0000 0.99913  0.89972  0.85127  Biso   1.000  C
  C788     1.0000 0.99908  0.91560  0.82520  Biso   1.000  C
  C789     1.0000 0.00069  0.94675  0.82692  Biso   1.000  C
  C790     1.0000 0.99930  0.82611  0.94756  Biso   1.000  C
  C791     1.0000 0.99724  0.82439  0.91650  Biso   1.000  C
  C792     1.0000 0.99796  0.85045  0.90062  Biso   1.000  C
  C793     1.0000 0.99691  0.84874  0.87062  Biso   1.000  C
  C794     1.0000 0.99502  0.82270  0.85634  Biso   1.000  C
  C795     1.0000 0.99425  0.79669  0.87138  Biso   1.000  C
  C796     1.0000 0.99532  0.79767  0.90161  Biso   1.000  C
  C797     1.0000 0.99454  0.80412  0.80504  Biso   1.000  C
  C798     1.0000 0.01805  0.80006  0.78760  Biso   1.000  C
  C799     1.0000 0.01797  0.77881  0.76625  Biso   1.000  C
  C800     1.0000 0.99418  0.76165  0.76183  Biso   1.000  C
  H391     1.0000 0.95063  0.75290  0.77634  Biso   1.000  H
  H392     1.0000 0.95114  0.79004  0.81421  Biso   1.000  H
  H393     1.0000 0.99770  0.91245  0.77827  Biso   1.000  H
  H394     1.0000 0.99531  0.85933  0.77700  Biso   1.000  H
  H395     1.0000 0.99991  0.91033  0.87206  Biso   1.000  H
  H396     1.0000 0.99955  0.87120  0.91120  Biso   1.000  H
  H397     1.0000 0.99308  0.77623  0.86023  Biso   1.000  H
  H398     1.0000 0.99482  0.77751  0.91337  Biso   1.000  H
  H399     1.0000 0.03708  0.81322  0.79073  Biso   1.000  H
  H400     1.0000 0.03696  0.77597  0.75295  Biso   1.000  H
  O161     1.0000 0.49942  0.53954  0.80322  Biso   1.000  O
  O162     1.0000 0.49952  0.53977  0.85079  Biso   1.000  O
  O163     1.0000 0.50048  0.65003  0.96104  Biso   1.000  O
  O164     1.0000 0.50058  0.69759  0.96127  Biso   1.000  O
  N41      1.0000 0.50514  0.67342  0.82742  Biso   1.000  N
  C801     1.0000 0.53024  0.73401  0.77924  Biso   1.000  C
  C802     1.0000 0.52996  0.71303  0.80084  Biso   1.000  C
  C803     1.0000 0.50217  0.59931  0.79845  Biso   1.000  C
  C804     1.0000 0.50347  0.62953  0.79746  Biso   1.000  C
  C805     1.0000 0.50340  0.64455  0.82349  Biso   1.000  C
  C806     1.0000 0.50223  0.63025  0.84956  Biso   1.000  C
  C807     1.0000 0.50087  0.60028  0.85127  Biso   1.000  C
  C808     1.0000 0.50092  0.58440  0.82520  Biso   1.000  C
  C809     1.0000 0.49931  0.55325  0.82692  Biso   1.000  C
  C810     1.0000 0.50070  0.67389  0.94756  Biso   1.000  C
  C811     1.0000 0.50276  0.67561  0.91650  Biso   1.000  C
  C812     1.0000 0.50204  0.64955  0.90062  Biso   1.000  C
  C813     1.0000 0.50309  0.65126  0.87062  Biso   1.000  C
  C814     1.0000 0.50498  0.67730  0.85634  Biso   1.000  C
  C815     1.0000 0.50575  0.70331  0.87138  Biso   1.000  C
  C816     1.0000 0.50468  0.70233  0.90161  Biso   1.000  C
  C817     1.0000 0.50546  0.69588  0.80504  Biso   1.000  C
  C818     1.0000 0.48195  0.69994  0.78760  Biso   1.000  C
  C819     1.0000 0.48203  0.72119  0.76625  Biso   1.000  C
  C820     1.0000 0.50582  0.73835  0.76183  Biso   1.000  C
  H401     1.0000 0.54937  0.74710  0.77634  Biso   1.000  H
  H402     1.0000 0.54886  0.70996  0.81421  Biso   1.000  H
  H403     1.0000 0.50230  0.58755  0.77827  Biso   1.000  H
  H404     1.0000 0.50469  0.64067  0.77700  Biso   1.000  H
  H405     1.0000 0.50009  0.58967  0.87206  Biso   1.000  H
  H406     1.0000 0.50045  0.62880  0.91120  Biso   1.000  H
  H407     1.0000 0.50692  0.72377  0.86023  Biso   1.000  H
  H408     1.0000 0.50518  0.72249  0.91337  Biso   1.000  H
  H409     1.0000 0.46292  0.68678  0.79073  Biso   1.000  H
  H410     1.0000 0.46304  0.72403  0.75295  Biso   1.000  H
  O165     1.0000 0.49942  0.03954  0.30322  Biso   1.000  O
  O166     1.0000 0.49952  0.03977  0.35079  Biso   1.000  O
  O167     1.0000 0.50048  0.15003  0.46104  Biso   1.000  O
  O168     1.0000 0.50058  0.19759  0.46127  Biso   1.000  O
  N42      1.0000 0.50514  0.17342  0.32742  Biso   1.000  N
  C821     1.0000 0.53024  0.23401  0.27924  Biso   1.000  C
  C822     1.0000 0.52996  0.21303  0.30084  Biso   1.000  C
  C823     1.0000 0.50217  0.09931  0.29845  Biso   1.000  C
  C824     1.0000 0.50347  0.12953  0.29746  Biso   1.000  C
  C825     1.0000 0.50340  0.14455  0.32349  Biso   1.000  C
  C826     1.0000 0.50223  0.13025  0.34956  Biso   1.000  C
  C827     1.0000 0.50087  0.10028  0.35127  Biso   1.000  C
  C828     1.0000 0.50092  0.08440  0.32520  Biso   1.000  C
  C829     1.0000 0.49931  0.05325  0.32692  Biso   1.000  C
  C830     1.0000 0.50070  0.17389  0.44756  Biso   1.000  C
  C831     1.0000 0.50276  0.17561  0.41650  Biso   1.000  C
  C832     1.0000 0.50204  0.14955  0.40062  Biso   1.000  C
  C833     1.0000 0.50309  0.15126  0.37062  Biso   1.000  C
  C834     1.0000 0.50498  0.17730  0.35634  Biso   1.000  C
  C835     1.0000 0.50575  0.20331  0.37138  Biso   1.000  C
  C836     1.0000 0.50468  0.20233  0.40161  Biso   1.000  C
  C837     1.0000 0.50546  0.19588  0.30504  Biso   1.000  C
  C838     1.0000 0.48195  0.19994  0.28760  Biso   1.000  C
  C839     1.0000 0.48203  0.22119  0.26625  Biso   1.000  C
  C840     1.0000 0.50582  0.23835  0.26183  Biso   1.000  C
  H411     1.0000 0.54937  0.24710  0.27634  Biso   1.000  H
  H412     1.0000 0.54886  0.20996  0.31421  Biso   1.000  H
  H413     1.0000 0.50230  0.08755  0.27827  Biso   1.000  H
  H414     1.0000 0.50469  0.14067  0.27700  Biso   1.000  H
  H415     1.0000 0.50009  0.08967  0.37206  Biso   1.000  H
  H416     1.0000 0.50045  0.12880  0.41120  Biso   1.000  H
  H417     1.0000 0.50692  0.22377  0.36023  Biso   1.000  H
  H418     1.0000 0.50518  0.22249  0.41337  Biso   1.000  H
  H419     1.0000 0.46292  0.18678  0.29073  Biso   1.000  H
  H420     1.0000 0.46304  0.22403  0.25295  Biso   1.000  H
  O169     1.0000 0.99942  0.53954  0.30322  Biso   1.000  O
  O170     1.0000 0.99952  0.53977  0.35079  Biso   1.000  O
  O171     1.0000 0.00048  0.65003  0.46104  Biso   1.000  O
  O172     1.0000 0.00058  0.69759  0.46127  Biso   1.000  O
  N43      1.0000 0.00514  0.67342  0.32742  Biso   1.000  N
  C841     1.0000 0.03024  0.73401  0.27924  Biso   1.000  C
  C842     1.0000 0.02996  0.71303  0.30084  Biso   1.000  C
  C843     1.0000 0.00217  0.59931  0.29845  Biso   1.000  C
  C844     1.0000 0.00347  0.62953  0.29746  Biso   1.000  C
  C845     1.0000 0.00340  0.64455  0.32349  Biso   1.000  C
  C846     1.0000 0.00223  0.63025  0.34956  Biso   1.000  C
  C847     1.0000 0.00087  0.60028  0.35127  Biso   1.000  C
  C848     1.0000 0.00092  0.58440  0.32520  Biso   1.000  C
  C849     1.0000 0.99931  0.55325  0.32692  Biso   1.000  C
  C850     1.0000 0.00070  0.67389  0.44756  Biso   1.000  C
  C851     1.0000 0.00276  0.67561  0.41650  Biso   1.000  C
  C852     1.0000 0.00204  0.64955  0.40062  Biso   1.000  C
  C853     1.0000 0.00309  0.65126  0.37062  Biso   1.000  C
  C854     1.0000 0.00498  0.67730  0.35634  Biso   1.000  C
  C855     1.0000 0.00575  0.70331  0.37138  Biso   1.000  C
  C856     1.0000 0.00468  0.70233  0.40161  Biso   1.000  C
  C857     1.0000 0.00546  0.69588  0.30504  Biso   1.000  C
  C858     1.0000 0.98195  0.69994  0.28760  Biso   1.000  C
  C859     1.0000 0.98203  0.72119  0.26625  Biso   1.000  C
  C860     1.0000 0.00582  0.73835  0.26183  Biso   1.000  C
  H421     1.0000 0.04937  0.74710  0.27634  Biso   1.000  H
  H422     1.0000 0.04886  0.70996  0.31421  Biso   1.000  H
  H423     1.0000 0.00230  0.58755  0.27827  Biso   1.000  H
  H424     1.0000 0.00469  0.64067  0.27700  Biso   1.000  H
  H425     1.0000 0.00009  0.58967  0.37206  Biso   1.000  H
  H426     1.0000 0.00045  0.62880  0.41120  Biso   1.000  H
  H427     1.0000 0.00692  0.72377  0.36023  Biso   1.000  H
  H428     1.0000 0.00518  0.72249  0.41337  Biso   1.000  H
  H429     1.0000 0.96292  0.68678  0.29073  Biso   1.000  H
  H430     1.0000 0.96304  0.72403  0.25295  Biso   1.000  H
  O173     1.0000 0.99942  0.03954  0.80322  Biso   1.000  O
  O174     1.0000 0.99952  0.03977  0.85079  Biso   1.000  O
  O175     1.0000 0.00048  0.15003  0.96104  Biso   1.000  O
  O176     1.0000 0.00058  0.19759  0.96127  Biso   1.000  O
  N44      1.0000 0.00514  0.17342  0.82742  Biso   1.000  N
  C861     1.0000 0.03024  0.23401  0.77924  Biso   1.000  C
  C862     1.0000 0.02996  0.21303  0.80084  Biso   1.000  C
  C863     1.0000 0.00217  0.09931  0.79845  Biso   1.000  C
  C864     1.0000 0.00347  0.12953  0.79746  Biso   1.000  C
  C865     1.0000 0.00340  0.14455  0.82349  Biso   1.000  C
  C866     1.0000 0.00223  0.13025  0.84956  Biso   1.000  C
  C867     1.0000 0.00087  0.10028  0.85127  Biso   1.000  C
  C868     1.0000 0.00092  0.08440  0.82520  Biso   1.000  C
  C869     1.0000 0.99931  0.05325  0.82692  Biso   1.000  C
  C870     1.0000 0.00070  0.17389  0.94756  Biso   1.000  C
  C871     1.0000 0.00276  0.17561  0.91650  Biso   1.000  C
  C872     1.0000 0.00204  0.14955  0.90062  Biso   1.000  C
  C873     1.0000 0.00309  0.15126  0.87062  Biso   1.000  C
  C874     1.0000 0.00498  0.17730  0.85634  Biso   1.000  C
  C875     1.0000 0.00575  0.20331  0.87138  Biso   1.000  C
  C876     1.0000 0.00468  0.20233  0.90161  Biso   1.000  C
  C877     1.0000 0.00546  0.19588  0.80504  Biso   1.000  C
  C878     1.0000 0.98195  0.19994  0.78760  Biso   1.000  C
  C879     1.0000 0.98203  0.22119  0.76625  Biso   1.000  C
  C880     1.0000 0.00582  0.23835  0.76183  Biso   1.000  C
  H431     1.0000 0.04937  0.24710  0.77634  Biso   1.000  H
  H432     1.0000 0.04886  0.20996  0.81421  Biso   1.000  H
  H433     1.0000 0.00230  0.08755  0.77827  Biso   1.000  H
  H434     1.0000 0.00469  0.14067  0.77700  Biso   1.000  H
  H435     1.0000 0.00009  0.08967  0.87206  Biso   1.000  H
  H436     1.0000 0.00045  0.12880  0.91120  Biso   1.000  H
  H437     1.0000 0.00692  0.22377  0.86023  Biso   1.000  H
  H438     1.0000 0.00518  0.22249  0.91337  Biso   1.000  H
  H439     1.0000 0.96292  0.18678  0.79073  Biso   1.000  H
  H440     1.0000 0.96304  0.22403  0.75295  Biso   1.000  H
  O177     1.0000 0.50058  0.53954  0.19678  Biso   1.000  O
  O178     1.0000 0.50048  0.53977  0.14921  Biso   1.000  O
  O179     1.0000 0.49952  0.65003  0.03896  Biso   1.000  O
  O180     1.0000 0.49942  0.69759  0.03873  Biso   1.000  O
  N45      1.0000 0.49486  0.67342  0.17258  Biso   1.000  N
  C881     1.0000 0.46976  0.73401  0.22076  Biso   1.000  C
  C882     1.0000 0.47004  0.71303  0.19916  Biso   1.000  C
  C883     1.0000 0.49783  0.59931  0.20155  Biso   1.000  C
  C884     1.0000 0.49653  0.62953  0.20254  Biso   1.000  C
  C885     1.0000 0.49660  0.64455  0.17651  Biso   1.000  C
  C886     1.0000 0.49777  0.63025  0.15044  Biso   1.000  C
  C887     1.0000 0.49913  0.60028  0.14873  Biso   1.000  C
  C888     1.0000 0.49908  0.58440  0.17480  Biso   1.000  C
  C889     1.0000 0.50069  0.55325  0.17308  Biso   1.000  C
  C890     1.0000 0.49930  0.67389  0.05244  Biso   1.000  C
  C891     1.0000 0.49724  0.67561  0.08350  Biso   1.000  C
  C892     1.0000 0.49796  0.64955  0.09938  Biso   1.000  C
  C893     1.0000 0.49691  0.65126  0.12938  Biso   1.000  C
  C894     1.0000 0.49502  0.67730  0.14366  Biso   1.000  C
  C895     1.0000 0.49425  0.70331  0.12862  Biso   1.000  C
  C896     1.0000 0.49532  0.70233  0.09839  Biso   1.000  C
  C897     1.0000 0.49454  0.69588  0.19496  Biso   1.000  C
  C898     1.0000 0.51805  0.69994  0.21240  Biso   1.000  C
  C899     1.0000 0.51797  0.72119  0.23375  Biso   1.000  C
  C900     1.0000 0.49418  0.73835  0.23817  Biso   1.000  C
  H441     1.0000 0.45063  0.74710  0.22366  Biso   1.000  H
  H442     1.0000 0.45114  0.70996  0.18579  Biso   1.000  H
  H443     1.0000 0.49770  0.58755  0.22173  Biso   1.000  H
  H444     1.0000 0.49531  0.64067  0.22300  Biso   1.000  H
  H445     1.0000 0.49991  0.58967  0.12794  Biso   1.000  H
  H446     1.0000 0.49955  0.62880  0.08880  Biso   1.000  H
  H447     1.0000 0.49308  0.72377  0.13977  Biso   1.000  H
  H448     1.0000 0.49482  0.72249  0.08663  Biso   1.000  H
  H449     1.0000 0.53708  0.68678  0.20927  Biso   1.000  H
  H450     1.0000 0.53696  0.72403  0.24705  Biso   1.000  H
  O181     1.0000 0.50058  0.03954  0.69678  Biso   1.000  O
  O182     1.0000 0.50048  0.03977  0.64921  Biso   1.000  O
  O183     1.0000 0.49952  0.15003  0.53896  Biso   1.000  O
  O184     1.0000 0.49942  0.19759  0.53873  Biso   1.000  O
  N46      1.0000 0.49486  0.17342  0.67258  Biso   1.000  N
  C901     1.0000 0.46976  0.23401  0.72076  Biso   1.000  C
  C902     1.0000 0.47004  0.21303  0.69916  Biso   1.000  C
  C903     1.0000 0.49783  0.09931  0.70155  Biso   1.000  C
  C904     1.0000 0.49653  0.12953  0.70254  Biso   1.000  C
  C905     1.0000 0.49660  0.14455  0.67651  Biso   1.000  C
  C906     1.0000 0.49777  0.13025  0.65044  Biso   1.000  C
  C907     1.0000 0.49913  0.10028  0.64873  Biso   1.000  C
  C908     1.0000 0.49908  0.08440  0.67480  Biso   1.000  C
  C909     1.0000 0.50069  0.05325  0.67308  Biso   1.000  C
  C910     1.0000 0.49930  0.17389  0.55244  Biso   1.000  C
  C911     1.0000 0.49724  0.17561  0.58350  Biso   1.000  C
  C912     1.0000 0.49796  0.14955  0.59938  Biso   1.000  C
  C913     1.0000 0.49691  0.15126  0.62938  Biso   1.000  C
  C914     1.0000 0.49502  0.17730  0.64366  Biso   1.000  C
  C915     1.0000 0.49425  0.20331  0.62862  Biso   1.000  C
  C916     1.0000 0.49532  0.20233  0.59839  Biso   1.000  C
  C917     1.0000 0.49454  0.19588  0.69496  Biso   1.000  C
  C918     1.0000 0.51805  0.19994  0.71240  Biso   1.000  C
  C919     1.0000 0.51797  0.22119  0.73375  Biso   1.000  C
  C920     1.0000 0.49418  0.23835  0.73817  Biso   1.000  C
  H451     1.0000 0.45063  0.24710  0.72366  Biso   1.000  H
  H452     1.0000 0.45114  0.20996  0.68579  Biso   1.000  H
  H453     1.0000 0.49770  0.08755  0.72173  Biso   1.000  H
  H454     1.0000 0.49531  0.14067  0.72300  Biso   1.000  H
  H455     1.0000 0.49991  0.08967  0.62794  Biso   1.000  H
  H456     1.0000 0.49955  0.12880  0.58880  Biso   1.000  H
  H457     1.0000 0.49308  0.22377  0.63977  Biso   1.000  H
  H458     1.0000 0.49482  0.22249  0.58663  Biso   1.000  H
  H459     1.0000 0.53708  0.18678  0.70927  Biso   1.000  H
  H460     1.0000 0.53696  0.22403  0.74705  Biso   1.000  H
  O185     1.0000 0.00058  0.53954  0.69678  Biso   1.000  O
  O186     1.0000 0.00048  0.53977  0.64921  Biso   1.000  O
  O187     1.0000 0.99952  0.65003  0.53896  Biso   1.000  O
  O188     1.0000 0.99942  0.69759  0.53873  Biso   1.000  O
  N47      1.0000 0.99486  0.67342  0.67258  Biso   1.000  N
  C921     1.0000 0.96976  0.73401  0.72076  Biso   1.000  C
  C922     1.0000 0.97004  0.71303  0.69916  Biso   1.000  C
  C923     1.0000 0.99783  0.59931  0.70155  Biso   1.000  C
  C924     1.0000 0.99653  0.62953  0.70254  Biso   1.000  C
  C925     1.0000 0.99660  0.64455  0.67651  Biso   1.000  C
  C926     1.0000 0.99777  0.63025  0.65044  Biso   1.000  C
  C927     1.0000 0.99913  0.60028  0.64873  Biso   1.000  C
  C928     1.0000 0.99908  0.58440  0.67480  Biso   1.000  C
  C929     1.0000 0.00069  0.55325  0.67308  Biso   1.000  C
  C930     1.0000 0.99930  0.67389  0.55244  Biso   1.000  C
  C931     1.0000 0.99724  0.67561  0.58350  Biso   1.000  C
  C932     1.0000 0.99796  0.64955  0.59938  Biso   1.000  C
  C933     1.0000 0.99691  0.65126  0.62938  Biso   1.000  C
  C934     1.0000 0.99502  0.67730  0.64366  Biso   1.000  C
  C935     1.0000 0.99425  0.70331  0.62862  Biso   1.000  C
  C936     1.0000 0.99532  0.70233  0.59839  Biso   1.000  C
  C937     1.0000 0.99454  0.69588  0.69496  Biso   1.000  C
  C938     1.0000 0.01805  0.69994  0.71240  Biso   1.000  C
  C939     1.0000 0.01797  0.72119  0.73375  Biso   1.000  C
  C940     1.0000 0.99418  0.73835  0.73817  Biso   1.000  C
  H461     1.0000 0.95063  0.74710  0.72366  Biso   1.000  H
  H462     1.0000 0.95114  0.70996  0.68579  Biso   1.000  H
  H463     1.0000 0.99770  0.58755  0.72173  Biso   1.000  H
  H464     1.0000 0.99531  0.64067  0.72300  Biso   1.000  H
  H465     1.0000 0.99991  0.58967  0.62794  Biso   1.000  H
  H466     1.0000 0.99955  0.62880  0.58880  Biso   1.000  H
  H467     1.0000 0.99308  0.72377  0.63977  Biso   1.000  H
  H468     1.0000 0.99482  0.72249  0.58663  Biso   1.000  H
  H469     1.0000 0.03708  0.68678  0.70927  Biso   1.000  H
  H470     1.0000 0.03696  0.72403  0.74705  Biso   1.000  H
  O189     1.0000 0.00058  0.03954  0.19678  Biso   1.000  O
  O190     1.0000 0.00048  0.03977  0.14921  Biso   1.000  O
  O191     1.0000 0.99952  0.15003  0.03896  Biso   1.000  O
  O192     1.0000 0.99942  0.19759  0.03873  Biso   1.000  O
  N48      1.0000 0.99486  0.17342  0.17258  Biso   1.000  N
  C941     1.0000 0.96976  0.23401  0.22076  Biso   1.000  C
  C942     1.0000 0.97004  0.21303  0.19916  Biso   1.000  C
  C943     1.0000 0.99783  0.09931  0.20155  Biso   1.000  C
  C944     1.0000 0.99653  0.12953  0.20254  Biso   1.000  C
  C945     1.0000 0.99660  0.14455  0.17651  Biso   1.000  C
  C946     1.0000 0.99777  0.13025  0.15044  Biso   1.000  C
  C947     1.0000 0.99913  0.10028  0.14873  Biso   1.000  C
  C948     1.0000 0.99908  0.08440  0.17480  Biso   1.000  C
  C949     1.0000 0.00069  0.05325  0.17308  Biso   1.000  C
  C950     1.0000 0.99930  0.17389  0.05244  Biso   1.000  C
  C951     1.0000 0.99724  0.17561  0.08350  Biso   1.000  C
  C952     1.0000 0.99796  0.14955  0.09938  Biso   1.000  C
  C953     1.0000 0.99691  0.15126  0.12938  Biso   1.000  C
  C954     1.0000 0.99502  0.17730  0.14366  Biso   1.000  C
  C955     1.0000 0.99425  0.20331  0.12862  Biso   1.000  C
  C956     1.0000 0.99532  0.20233  0.09839  Biso   1.000  C
  C957     1.0000 0.99454  0.19588  0.19496  Biso   1.000  C
  C958     1.0000 0.01805  0.19994  0.21240  Biso   1.000  C
  C959     1.0000 0.01797  0.22119  0.23375  Biso   1.000  C
  C960     1.0000 0.99418  0.23835  0.23817  Biso   1.000  C
  H471     1.0000 0.95063  0.24710  0.22366  Biso   1.000  H
  H472     1.0000 0.95114  0.20996  0.18579  Biso   1.000  H
  H473     1.0000 0.99770  0.08755  0.22173  Biso   1.000  H
  H474     1.0000 0.99531  0.14067  0.22300  Biso   1.000  H
  H475     1.0000 0.99991  0.08967  0.12794  Biso   1.000  H
  H476     1.0000 0.99955  0.12880  0.08880  Biso   1.000  H
  H477     1.0000 0.99308  0.22377  0.13977  Biso   1.000  H
  H478     1.0000 0.99482  0.22249  0.08663  Biso   1.000  H
  H479     1.0000 0.03708  0.18678  0.20927  Biso   1.000  H
  H480     1.0000 0.03696  0.22403  0.24705  Biso   1.000  H
  Cu1      1.0000 0.19997  0.50000  0.50000  Biso   1.000  Cu
  Cu2      1.0000 0.14625  0.50000  0.50000  Biso   1.000  Cu
  Cu3      1.0000 0.19997  0.00000  0.00000  Biso   1.000  Cu
  Cu4      1.0000 0.14625  0.00000  0.00000  Biso   1.000  Cu
  Cu5      1.0000 0.69997  0.50000  0.00000  Biso   1.000  Cu
  Cu6      1.0000 0.64625  0.50000  0.00000  Biso   1.000  Cu
  Cu7      1.0000 0.69997  0.00000  0.50000  Biso   1.000  Cu
  Cu8      1.0000 0.64625  0.00000  0.50000  Biso   1.000  Cu
  Cu9      1.0000 0.80003  0.50000  0.50000  Biso   1.000  Cu
  Cu10     1.0000 0.85375  0.50000  0.50000  Biso   1.000  Cu
  Cu11     1.0000 0.80003  0.00000  0.00000  Biso   1.000  Cu
  Cu12     1.0000 0.85375  0.00000  0.00000  Biso   1.000  Cu
  Cu13     1.0000 0.30003  0.50000  0.00000  Biso   1.000  Cu
  Cu14     1.0000 0.35375  0.50000  0.00000  Biso   1.000  Cu
  Cu15     1.0000 0.30003  0.00000  0.50000  Biso   1.000  Cu
  Cu16     1.0000 0.35375  0.00000  0.50000  Biso   1.000  Cu
  Cu17     1.0000 0.50000  0.19997  0.50000  Biso   1.000  Cu
  Cu18     1.0000 0.50000  0.14625  0.50000  Biso   1.000  Cu
  Cu19     1.0000 0.50000  0.69997  0.00000  Biso   1.000  Cu
  Cu20     1.0000 0.50000  0.64625  0.00000  Biso   1.000  Cu
  Cu21     1.0000 0.00000  0.19997  0.00000  Biso   1.000  Cu
  Cu22     1.0000 0.00000  0.14625  0.00000  Biso   1.000  Cu
  Cu23     1.0000 0.00000  0.69997  0.50000  Biso   1.000  Cu
  Cu24     1.0000 0.00000  0.64625  0.50000  Biso   1.000  Cu
  Cu25     1.0000 0.50000  0.80003  0.50000  Biso   1.000  Cu
  Cu26     1.0000 0.50000  0.85375  0.50000  Biso   1.000  Cu
  Cu27     1.0000 0.50000  0.30003  0.00000  Biso   1.000  Cu
  Cu28     1.0000 0.50000  0.35375  0.00000  Biso   1.000  Cu
  Cu29     1.0000 0.00000  0.80003  0.00000  Biso   1.000  Cu
  Cu30     1.0000 0.00000  0.85375  0.00000  Biso   1.000  Cu
  Cu31     1.0000 0.00000  0.30003  0.50000  Biso   1.000  Cu
  Cu32     1.0000 0.00000  0.35375  0.50000  Biso   1.000  Cu
  Cu33     1.0000 0.50000  0.50000  0.19997  Biso   1.000  Cu
  Cu34     1.0000 0.50000  0.50000  0.14625  Biso   1.000  Cu
  Cu35     1.0000 0.50000  0.00000  0.69997  Biso   1.000  Cu
  Cu36     1.0000 0.50000  0.00000  0.64625  Biso   1.000  Cu
  Cu37     1.0000 0.00000  0.50000  0.69997  Biso   1.000  Cu
  Cu38     1.0000 0.00000  0.50000  0.64625  Biso   1.000  Cu
  Cu39     1.0000 0.00000  0.00000  0.19997  Biso   1.000  Cu
  Cu40     1.0000 0.00000  0.00000  0.14625  Biso   1.000  Cu
  Cu41     1.0000 0.50000  0.50000  0.80003  Biso   1.000  Cu
  Cu42     1.0000 0.50000  0.50000  0.85375  Biso   1.000  Cu
  Cu43     1.0000 0.50000  0.00000  0.30003  Biso   1.000  Cu
  Cu44     1.0000 0.50000  0.00000  0.35375  Biso   1.000  Cu
  Cu45     1.0000 0.00000  0.50000  0.30003  Biso   1.000  Cu
  Cu46     1.0000 0.00000  0.50000  0.35375  Biso   1.000  Cu
  Cu47     1.0000 0.00000  0.00000  0.80003  Biso   1.000  Cu
  Cu48     1.0000 0.00000  0.00000  0.85375  Biso   1.000  Cu
