data_image0
_cell_length_a       34.58
_cell_length_b       34.58
_cell_length_c       20.76
_cell_angle_alpha    90
_cell_angle_beta     90
_cell_angle_gamma    120

_symmetry_space_group_name_H-M    "P 1"
_symmetry_int_tables_number       1

loop_
  _symmetry_equiv_pos_as_xyz
  'x, y, z'

loop_
  _atom_site_label
  _atom_site_occupancy
  _atom_site_fract_x
  _atom_site_fract_y
  _atom_site_fract_z
  _atom_site_thermal_displace_type
  _atom_site_B_iso_or_equiv
  _atom_site_type_symbol
  Cu1      1.0000 0.66578  0.68723  0.23517  Biso   1.000  Cu
  Cu2      1.0000 0.70962  0.63986  0.30223  Biso   1.000  Cu
  Cu3      1.0000 0.62012  0.55287  0.30510  Biso   1.000  Cu
  Cu4      1.0000 0.57448  0.59914  0.23147  Biso   1.000  Cu
  Cu5      1.0000 0.56026  0.70466  0.22822  Biso   1.000  Cu
  Cu6      1.0000 0.66766  0.60020  0.12553  Biso   1.000  Cu
  S1       1.0000 0.63120  0.72783  0.26042  Biso   1.000  S
  S2       1.0000 0.63345  0.53456  0.40709  Biso   1.000  S
  S3       1.0000 0.63027  0.63417  0.15638  Biso   1.000  S
  S4       1.0000 0.67618  0.58226  0.22833  Biso   1.000  S
  S5       1.0000 0.73830  0.71268  0.26283  Biso   1.000  S
  S6       1.0000 0.55009  0.52688  0.26458  Biso   1.000  S
  O1       1.0000 0.64281  0.42031  0.52130  Biso   1.000  O
  O2       1.0000 0.60028  0.38220  0.43480  Biso   1.000  O
  O3       1.0000 0.64570  0.64800  0.92660  Biso   1.000  O
  O4       1.0000 0.67130  0.72110  0.96380  Biso   1.000  O
  O5       1.0000 0.73550  0.51326  0.08410  Biso   1.000  O
  O6       1.0000 0.68467  0.45519  0.14100  Biso   1.000  O
  O7       1.0000 0.87660  0.82830  0.17190  Biso   1.000  O
  O8       1.0000 0.83140  0.81270  0.09580  Biso   1.000  O
  O9       1.0000 0.45050  0.37330  0.19150  Biso   1.000  O
  O10      1.0000 0.52020  0.39030  0.16840  Biso   1.000  O
  N1       1.0000 0.58495  0.76686  0.19200  Biso   1.000  N
  H1       1.0000 0.57280  0.76490  0.15190  Biso   1.000  H
  H2       1.0000 0.57650  0.78280  0.21810  Biso   1.000  H
  N2       1.0000 0.68563  0.49492  0.45900  Biso   1.000  N
  H3       1.0000 0.70720  0.48920  0.44340  Biso   1.000  H
  H4       1.0000 0.68500  0.49170  0.50310  Biso   1.000  H
  N3       1.0000 0.67638  0.63200  0.03870  Biso   1.000  N
  H5       1.0000 0.70590  0.64470  0.02690  Biso   1.000  H
  H6       1.0000 0.65970  0.61100  0.00800  Biso   1.000  H
  N4       1.0000 0.68622  0.55596  0.09500  Biso   1.000  N
  H7       1.0000 0.66890  0.54100  0.05990  Biso   1.000  H
  H8       1.0000 0.71530  0.57190  0.08110  Biso   1.000  H
  N5       1.0000 0.81260  0.80470  0.25780  Biso   1.000  N
  H9       1.0000 0.81390  0.83190  0.25420  Biso   1.000  H
  H10      1.0000 0.84080  0.81040  0.26850  Biso   1.000  H
  N6       1.0000 0.47580  0.43960  0.28730  Biso   1.000  N
  H11      1.0000 0.46740  0.41690  0.31670  Biso   1.000  H
  H12      1.0000 0.45090  0.43320  0.26330  Biso   1.000  H
  C1       1.0000 0.65930  0.78930  0.23600  Biso   1.000  C
  C2       1.0000 0.63390  0.79110  0.18640  Biso   1.000  C
  H13      1.0000 0.64110  0.77870  0.14770  Biso   1.000  H
  C3       1.0000 0.65580  0.81130  0.29370  Biso   1.000  C
  H14      1.0000 0.62470  0.80380  0.29980  Biso   1.000  H
  H15      1.0000 0.67480  0.84370  0.28900  Biso   1.000  H
  H16      1.0000 0.66560  0.80120  0.33120  Biso   1.000  H
  C4       1.0000 0.70020  0.79680  0.21730  Biso   1.000  C
  H17      1.0000 0.71630  0.79460  0.25470  Biso   1.000  H
  H18      1.0000 0.71720  0.82670  0.19840  Biso   1.000  H
  H19      1.0000 0.69660  0.77440  0.18520  Biso   1.000  H
  C5       1.0000 0.60956  0.47593  0.43790  Biso   1.000  C
  C6       1.0000 0.64212  0.46085  0.43310  Biso   1.000  C
  H20      1.0000 0.64680  0.45860  0.38600  Biso   1.000  H
  C7       1.0000 0.62630  0.41830  0.45820  Biso   1.000  C
  C8       1.0000 0.59640  0.47480  0.50720  Biso   1.000  C
  H21      1.0000 0.57460  0.48490  0.51040  Biso   1.000  H
  H22      1.0000 0.62290  0.49450  0.53270  Biso   1.000  H
  H23      1.0000 0.58320  0.44420  0.52360  Biso   1.000  H
  C9       1.0000 0.56620  0.44710  0.39880  Biso   1.000  C
  H24      1.0000 0.54610  0.45910  0.40380  Biso   1.000  H
  H25      1.0000 0.55150  0.41630  0.41460  Biso   1.000  H
  H26      1.0000 0.57370  0.44760  0.35310  Biso   1.000  H
  C10      1.0000 0.62261  0.65347  0.07530  Biso   1.000  C
  C11      1.0000 0.66400  0.66672  0.03813  Biso   1.000  C
  H27      1.0000 0.68880  0.69430  0.05800  Biso   1.000  H
  C12      1.0000 0.65660  0.67790  0.96838  Biso   1.000  C
  C13      1.0000 0.58140  0.61080  0.04260  Biso   1.000  C
  H28      1.0000 0.55420  0.60220  0.06730  Biso   1.000  H
  H29      1.0000 0.58740  0.58590  0.04200  Biso   1.000  H
  H30      1.0000 0.57750  0.61810  0.99830  Biso   1.000  H
  C14      1.0000 0.61460  0.69490  0.08440  Biso   1.000  C
  H31      1.0000 0.58720  0.68540  0.10910  Biso   1.000  H
  H32      1.0000 0.61190  0.70580  0.04210  Biso   1.000  H
  H33      1.0000 0.64000  0.71880  0.10760  Biso   1.000  H
  C15      1.0000 0.70530  0.54885  0.20710  Biso   1.000  C
  C16      1.0000 0.68311  0.52350  0.14050  Biso   1.000  C
  H34      1.0000 0.65060  0.50340  0.14940  Biso   1.000  H
  C17      1.0000 0.70060  0.49460  0.12130  Biso   1.000  C
  C18      1.0000 0.75275  0.58413  0.20170  Biso   1.000  C
  H35      1.0000 0.75620  0.60440  0.16630  Biso   1.000  H
  H36      1.0000 0.77110  0.57040  0.19320  Biso   1.000  H
  H37      1.0000 0.76240  0.60100  0.24210  Biso   1.000  H
  C19      1.0000 0.69406  0.51543  0.25990  Biso   1.000  C
  H38      1.0000 0.66190  0.49420  0.25960  Biso   1.000  H
  H39      1.0000 0.70260  0.53090  0.30150  Biso   1.000  H
  H40      1.0000 0.71040  0.49930  0.25320  Biso   1.000  H
  C20      1.0000 0.78570  0.73673  0.20230  Biso   1.000  C
  C21      1.0000 0.80284  0.78580  0.20090  Biso   1.000  C
  H41      1.0000 0.77790  0.78960  0.18390  Biso   1.000  H
  C22      1.0000 0.84197  0.81010  0.15240  Biso   1.000  C
  C23      1.0000 0.81720  0.72570  0.21920  Biso   1.000  C
  H42      1.0000 0.83180  0.74110  0.25930  Biso   1.000  H
  H43      1.0000 0.83960  0.73490  0.18490  Biso   1.000  H
  H44      1.0000 0.80290  0.69340  0.22550  Biso   1.000  H
  C24      1.0000 0.76670  0.71370  0.14710  Biso   1.000  C
  H45      1.0000 0.74300  0.71940  0.13330  Biso   1.000  H
  H46      1.0000 0.75410  0.68160  0.15490  Biso   1.000  H
  H47      1.0000 0.78950  0.72330  0.11330  Biso   1.000  H
  C25      1.0000 0.52904  0.47987  0.20570  Biso   1.000  C
  C26      1.0000 0.51030  0.43882  0.24190  Biso   1.000  C
  H48      1.0000 0.53450  0.43930  0.26870  Biso   1.000  H
  C27      1.0000 0.49150  0.39540  0.19110  Biso   1.000  C
  C28      1.0000 0.49395  0.48664  0.16550  Biso   1.000  C
  H49      1.0000 0.50940  0.51530  0.14280  Biso   1.000  H
  H50      1.0000 0.47150  0.48640  0.19460  Biso   1.000  H
  H51      1.0000 0.47920  0.46240  0.13400  Biso   1.000  H
  C29      1.0000 0.57040  0.48890  0.16370  Biso   1.000  C
  H52      1.0000 0.58190  0.51750  0.14120  Biso   1.000  H
  H53      1.0000 0.56140  0.46480  0.13210  Biso   1.000  H
  H54      1.0000 0.59380  0.48990  0.19150  Biso   1.000  H
  K1       1.0000 0.40346  0.75440  0.02000  Biso   1.000  K
  O11      1.0000 0.68380  0.41860  0.64740  Biso   1.000  O
  K2       1.0000 0.68980  0.62540  0.84950  Biso   1.000  K
  Cu7      1.0000 0.31277  0.97855  0.90184  Biso   1.000  Cu
  Cu8      1.0000 0.36014  0.06976  0.96890  Biso   1.000  Cu
  Cu9      1.0000 0.44713  0.06725  0.97177  Biso   1.000  Cu
  Cu10     1.0000 0.40086  0.97534  0.89814  Biso   1.000  Cu
  Cu11     1.0000 0.29534  0.85560  0.89489  Biso   1.000  Cu
  Cu12     1.0000 0.39980  0.06746  0.79220  Biso   1.000  Cu
  S7       1.0000 0.27217  0.90337  0.92709  Biso   1.000  S
  S8       1.0000 0.46544  0.09889  0.07376  Biso   1.000  S
  S9       1.0000 0.36583  0.99610  0.82305  Biso   1.000  S
  S10      1.0000 0.41774  0.09392  0.89500  Biso   1.000  S
  S11      1.0000 0.28732  0.02562  0.92950  Biso   1.000  S
  S12      1.0000 0.47312  0.02321  0.93125  Biso   1.000  S
  O12      1.0000 0.57969  0.22250  0.18797  Biso   1.000  O
  O13      1.0000 0.61780  0.21808  0.10147  Biso   1.000  O
  O14      1.0000 0.35200  0.99770  0.59327  Biso   1.000  O
  O15      1.0000 0.27890  0.95020  0.63047  Biso   1.000  O
  O16      1.0000 0.48674  0.22224  0.75077  Biso   1.000  O
  O17      1.0000 0.54481  0.22948  0.80767  Biso   1.000  O
  O18      1.0000 0.17170  0.04830  0.83857  Biso   1.000  O
  O19      1.0000 0.18730  0.01870  0.76247  Biso   1.000  O
  O20      1.0000 0.62670  0.07720  0.85817  Biso   1.000  O
  O21      1.0000 0.60970  0.12990  0.83507  Biso   1.000  O
  N7       1.0000 0.23314  0.81809  0.85867  Biso   1.000  N
  H55      1.0000 0.23510  0.80790  0.81857  Biso   1.000  H
  H56      1.0000 0.21720  0.79370  0.88477  Biso   1.000  H
  N8       1.0000 0.50508  0.19071  0.12567  Biso   1.000  N
  H57      1.0000 0.51080  0.21800  0.11007  Biso   1.000  H
  H58      1.0000 0.50830  0.19330  0.16977  Biso   1.000  H
  N9       1.0000 0.36800  0.04438  0.70537  Biso   1.000  N
  H59      1.0000 0.35530  0.06120  0.69357  Biso   1.000  H
  H60      1.0000 0.38900  0.04870  0.67467  Biso   1.000  H
  N10      1.0000 0.44404  0.13026  0.76167  Biso   1.000  N
  H61      1.0000 0.45900  0.12790  0.72657  Biso   1.000  H
  H62      1.0000 0.42810  0.14340  0.74777  Biso   1.000  H
  N11      1.0000 0.19530  0.00790  0.92447  Biso   1.000  N
  H63      1.0000 0.16810  0.98200  0.92087  Biso   1.000  H
  H64      1.0000 0.18960  0.03040  0.93517  Biso   1.000  H
  N12      1.0000 0.56040  0.03620  0.95397  Biso   1.000  N
  H65      1.0000 0.58310  0.05050  0.98337  Biso   1.000  H
  H66      1.0000 0.56680  0.01770  0.92997  Biso   1.000  H
  C30      1.0000 0.21070  0.87000  0.90267  Biso   1.000  C
  C31      1.0000 0.20890  0.84280  0.85307  Biso   1.000  C
  H67      1.0000 0.22130  0.86240  0.81437  Biso   1.000  H
  C32      1.0000 0.18870  0.84450  0.96037  Biso   1.000  C
  H68      1.0000 0.19620  0.82090  0.96647  Biso   1.000  H
  H69      1.0000 0.15630  0.83110  0.95567  Biso   1.000  H
  H70      1.0000 0.19880  0.86440  0.99787  Biso   1.000  H
  C33      1.0000 0.20320  0.90340  0.88397  Biso   1.000  C
  H71      1.0000 0.20540  0.92170  0.92137  Biso   1.000  H
  H72      1.0000 0.17330  0.89050  0.86507  Biso   1.000  H
  H73      1.0000 0.22560  0.92220  0.85187  Biso   1.000  H
  C34      1.0000 0.52407  0.13363  0.10457  Biso   1.000  C
  C35      1.0000 0.53915  0.18127  0.09977  Biso   1.000  C
  H74      1.0000 0.54140  0.18820  0.05267  Biso   1.000  H
  C36      1.0000 0.58170  0.20800  0.12487  Biso   1.000  C
  C37      1.0000 0.52520  0.12160  0.17387  Biso   1.000  C
  H75      1.0000 0.51510  0.08970  0.17707  Biso   1.000  H
  H76      1.0000 0.50550  0.12840  0.19937  Biso   1.000  H
  H77      1.0000 0.55580  0.13900  0.19027  Biso   1.000  H
  C38      1.0000 0.55290  0.11910  0.06547  Biso   1.000  C
  H78      1.0000 0.54090  0.08700  0.07047  Biso   1.000  H
  H79      1.0000 0.58370  0.13520  0.08127  Biso   1.000  H
  H80      1.0000 0.55240  0.12610  0.01977  Biso   1.000  H
  C39      1.0000 0.34653  0.96914  0.74197  Biso   1.000  C
  C40      1.0000 0.33328  0.99728  0.70480  Biso   1.000  C
  H81      1.0000 0.30570  0.99450  0.72467  Biso   1.000  H
  C41      1.0000 0.32210  0.97870  0.63505  Biso   1.000  C
  C42      1.0000 0.38920  0.97060  0.70927  Biso   1.000  C
  H82      1.0000 0.39780  0.95200  0.73397  Biso   1.000  H
  H83      1.0000 0.41410  0.00150  0.70867  Biso   1.000  H
  H84      1.0000 0.38190  0.95940  0.66497  Biso   1.000  H
  C43      1.0000 0.30510  0.91970  0.75107  Biso   1.000  C
  H85      1.0000 0.31460  0.90180  0.77577  Biso   1.000  H
  H86      1.0000 0.29420  0.90610  0.70877  Biso   1.000  H
  H87      1.0000 0.28120  0.92120  0.77427  Biso   1.000  H
  C44      1.0000 0.45115  0.15645  0.87377  Biso   1.000  C
  C45      1.0000 0.47650  0.15961  0.80717  Biso   1.000  C
  H88      1.0000 0.49660  0.14720  0.81607  Biso   1.000  H
  C46      1.0000 0.50540  0.20600  0.78797  Biso   1.000  C
  C47      1.0000 0.41587  0.16862  0.86837  Biso   1.000  C
  H89      1.0000 0.39560  0.15180  0.83297  Biso   1.000  H
  H90      1.0000 0.42960  0.20070  0.85987  Biso   1.000  H
  H91      1.0000 0.39900  0.16140  0.90877  Biso   1.000  H
  C48      1.0000 0.48457  0.17863  0.92657  Biso   1.000  C
  H92      1.0000 0.50580  0.16770  0.92627  Biso   1.000  H
  H93      1.0000 0.46910  0.17170  0.96817  Biso   1.000  H
  H94      1.0000 0.50070  0.21110  0.91987  Biso   1.000  H
  C49      1.0000 0.26327  0.04897  0.86897  Biso   1.000  C
  C50      1.0000 0.21420  0.01704  0.86757  Biso   1.000  C
  H95      1.0000 0.21040  0.98830  0.85057  Biso   1.000  H
  C51      1.0000 0.18990  0.03187  0.81907  Biso   1.000  C
  C52      1.0000 0.27430  0.09150  0.88587  Biso   1.000  C
  H96      1.0000 0.25890  0.09070  0.92597  Biso   1.000  H
  H97      1.0000 0.26510  0.10470  0.85157  Biso   1.000  H
  H98      1.0000 0.30660  0.10950  0.89217  Biso   1.000  H
  C53      1.0000 0.28630  0.05300  0.81377  Biso   1.000  C
  H99      1.0000 0.28060  0.02360  0.79997  Biso   1.000  H
  H100     1.0000 0.31840  0.07250  0.82157  Biso   1.000  H
  H101     1.0000 0.27670  0.06620  0.77997  Biso   1.000  H
  C54      1.0000 0.52013  0.04917  0.87237  Biso   1.000  C
  C55      1.0000 0.56118  0.07148  0.90857  Biso   1.000  C
  H102     1.0000 0.56070  0.09520  0.93537  Biso   1.000  H
  C56      1.0000 0.60460  0.09610  0.85777  Biso   1.000  C
  C57      1.0000 0.51336  0.00731  0.83217  Biso   1.000  C
  H103     1.0000 0.48470  0.99410  0.80947  Biso   1.000  H
  H104     1.0000 0.51360  0.98510  0.86127  Biso   1.000  H
  H105     1.0000 0.53760  0.01680  0.80067  Biso   1.000  H
  C58      1.0000 0.51110  0.08150  0.83037  Biso   1.000  C
  H106     1.0000 0.48250  0.06440  0.80787  Biso   1.000  H
  H107     1.0000 0.53520  0.09660  0.79877  Biso   1.000  H
  H108     1.0000 0.51010  0.10390  0.85817  Biso   1.000  H
  K3       1.0000 0.24560  0.64906  0.68667  Biso   1.000  K
  O22      1.0000 0.58140  0.26520  0.31407  Biso   1.000  O
  K4       1.0000 0.37460  0.06440  0.51617  Biso   1.000  K
  Cu13     1.0000 0.02145  0.33422  0.56850  Biso   1.000  Cu
  Cu14     1.0000 0.93024  0.29038  0.63556  Biso   1.000  Cu
  Cu15     1.0000 0.93275  0.37988  0.63843  Biso   1.000  Cu
  Cu16     1.0000 0.02466  0.42552  0.56480  Biso   1.000  Cu
  Cu17     1.0000 0.14440  0.43974  0.56155  Biso   1.000  Cu
  Cu18     1.0000 0.93254  0.33234  0.45886  Biso   1.000  Cu
  S13      1.0000 0.09663  0.36880  0.59375  Biso   1.000  S
  S14      1.0000 0.90111  0.36655  0.74042  Biso   1.000  S
  S15      1.0000 0.00390  0.36973  0.48971  Biso   1.000  S
  S16      1.0000 0.90608  0.32382  0.56166  Biso   1.000  S
  S17      1.0000 0.97438  0.26170  0.59616  Biso   1.000  S
  S18      1.0000 0.97679  0.44991  0.59791  Biso   1.000  S
  O23      1.0000 0.77750  0.35719  0.85463  Biso   1.000  O
  O24      1.0000 0.78192  0.39972  0.76813  Biso   1.000  O
  O25      1.0000 0.00230  0.35430  0.25993  Biso   1.000  O
  O26      1.0000 0.04980  0.32870  0.29713  Biso   1.000  O
  O27      1.0000 0.77776  0.26450  0.41743  Biso   1.000  O
  O28      1.0000 0.77052  0.31533  0.47433  Biso   1.000  O
  O29      1.0000 0.95170  0.12340  0.50523  Biso   1.000  O
  O30      1.0000 0.98130  0.16860  0.42913  Biso   1.000  O
  O31      1.0000 0.92280  0.54950  0.52483  Biso   1.000  O
  O32      1.0000 0.87010  0.47980  0.50173  Biso   1.000  O
  N13      1.0000 0.18191  0.41505  0.52533  Biso   1.000  N
  H109     1.0000 0.19210  0.42720  0.48523  Biso   1.000  H
  H110     1.0000 0.20630  0.42350  0.55143  Biso   1.000  H
  N14      1.0000 0.80929  0.31437  0.79233  Biso   1.000  N
  H111     1.0000 0.78200  0.29280  0.77673  Biso   1.000  H
  H112     1.0000 0.80670  0.31500  0.83643  Biso   1.000  H
  N15      1.0000 0.95562  0.32362  0.37203  Biso   1.000  N
  H113     1.0000 0.93880  0.29410  0.36023  Biso   1.000  H
  H114     1.0000 0.95130  0.34030  0.34133  Biso   1.000  H
  N16      1.0000 0.86974  0.31378  0.42833  Biso   1.000  N
  H115     1.0000 0.87210  0.33110  0.39323  Biso   1.000  H
  H116     1.0000 0.85660  0.28470  0.41443  Biso   1.000  H
  N17      1.0000 0.99210  0.18740  0.59113  Biso   1.000  N
  H117     1.0000 0.01800  0.18610  0.58753  Biso   1.000  H
  H118     1.0000 0.96960  0.15920  0.60183  Biso   1.000  H
  N18      1.0000 0.96380  0.52420  0.62063  Biso   1.000  N
  H119     1.0000 0.94950  0.53260  0.65003  Biso   1.000  H
  H120     1.0000 0.98230  0.54910  0.59663  Biso   1.000  H
  C59      1.0000 0.13000  0.34070  0.56933  Biso   1.000  C
  C60      1.0000 0.15720  0.36610  0.51973  Biso   1.000  C
  H121     1.0000 0.13760  0.35890  0.48103  Biso   1.000  H
  C61      1.0000 0.15550  0.34420  0.62703  Biso   1.000  C
  H122     1.0000 0.17910  0.37530  0.63313  Biso   1.000  H
  H123     1.0000 0.16890  0.32520  0.62233  Biso   1.000  H
  H124     1.0000 0.13560  0.33440  0.66453  Biso   1.000  H
  C62      1.0000 0.09660  0.29980  0.55063  Biso   1.000  C
  H125     1.0000 0.07830  0.28370  0.58803  Biso   1.000  H
  H126     1.0000 0.10950  0.28280  0.53173  Biso   1.000  H
  H127     1.0000 0.07780  0.30340  0.51853  Biso   1.000  H
  C63      1.0000 0.86637  0.39044  0.77123  Biso   1.000  C
  C64      1.0000 0.81873  0.35788  0.76643  Biso   1.000  C
  H128     1.0000 0.81180  0.35320  0.71933  Biso   1.000  H
  C65      1.0000 0.79200  0.37370  0.79153  Biso   1.000  C
  C66      1.0000 0.87840  0.40360  0.84053  Biso   1.000  C
  H129     1.0000 0.91030  0.42540  0.84373  Biso   1.000  H
  H130     1.0000 0.87160  0.37710  0.86603  Biso   1.000  H
  H131     1.0000 0.86100  0.41680  0.85693  Biso   1.000  H
  C67      1.0000 0.88090  0.43380  0.73213  Biso   1.000  C
  H132     1.0000 0.91300  0.45390  0.73713  Biso   1.000  H
  H133     1.0000 0.86480  0.44850  0.74793  Biso   1.000  H
  H134     1.0000 0.87390  0.42630  0.68643  Biso   1.000  H
  C68      1.0000 0.03086  0.37739  0.40863  Biso   1.000  C
  C69      1.0000 0.00272  0.33600  0.37146  Biso   1.000  C
  H135     1.0000 0.00550  0.31120  0.39133  Biso   1.000  H
  C70      1.0000 0.02130  0.34340  0.30171  Biso   1.000  C
  C71      1.0000 0.02940  0.41860  0.37593  Biso   1.000  C
  H136     1.0000 0.04800  0.44580  0.40063  Biso   1.000  H
  H137     1.0000 0.99850  0.41260  0.37533  Biso   1.000  H
  H138     1.0000 0.04060  0.42250  0.33163  Biso   1.000  H
  C72      1.0000 0.08030  0.38540  0.41773  Biso   1.000  C
  H139     1.0000 0.09820  0.41280  0.44243  Biso   1.000  H
  H140     1.0000 0.09390  0.38810  0.37543  Biso   1.000  H
  H141     1.0000 0.07880  0.36000  0.44093  Biso   1.000  H
  C73      1.0000 0.84355  0.29470  0.54043  Biso   1.000  C
  C74      1.0000 0.84039  0.31689  0.47383  Biso   1.000  C
  H142     1.0000 0.85280  0.34940  0.48273  Biso   1.000  H
  C75      1.0000 0.79400  0.29940  0.45463  Biso   1.000  C
  C76      1.0000 0.83138  0.24725  0.53503  Biso   1.000  C
  H143     1.0000 0.84820  0.24380  0.49963  Biso   1.000  H
  H144     1.0000 0.79930  0.22890  0.52653  Biso   1.000  H
  H145     1.0000 0.83860  0.23760  0.57543  Biso   1.000  H
  C77      1.0000 0.82137  0.30594  0.59323  Biso   1.000  C
  H146     1.0000 0.83230  0.33810  0.59293  Biso   1.000  H
  H147     1.0000 0.82830  0.29740  0.63483  Biso   1.000  H
  H148     1.0000 0.78890  0.28960  0.58653  Biso   1.000  H
  C78      1.0000 0.95103  0.21430  0.53563  Biso   1.000  C
  C79      1.0000 0.98296  0.19716  0.53423  Biso   1.000  C
  H149     1.0000 0.01170  0.22210  0.51723  Biso   1.000  H
  C80      1.0000 0.96813  0.15803  0.48573  Biso   1.000  C
  C81      1.0000 0.90850  0.18280  0.55253  Biso   1.000  C
  H150     1.0000 0.90930  0.16820  0.59263  Biso   1.000  H
  H151     1.0000 0.89530  0.16040  0.51823  Biso   1.000  H
  H152     1.0000 0.89050  0.19710  0.55883  Biso   1.000  H
  C82      1.0000 0.94700  0.23330  0.48043  Biso   1.000  C
  H153     1.0000 0.97640  0.25700  0.46663  Biso   1.000  H
  H154     1.0000 0.92750  0.24590  0.48823  Biso   1.000  H
  H155     1.0000 0.93380  0.21050  0.44663  Biso   1.000  H
  C83      1.0000 0.95083  0.47096  0.53903  Biso   1.000  C
  C84      1.0000 0.92852  0.48970  0.57523  Biso   1.000  C
  H156     1.0000 0.90480  0.46550  0.60203  Biso   1.000  H
  C85      1.0000 0.90390  0.50850  0.52443  Biso   1.000  C
  C86      1.0000 0.99269  0.50605  0.49883  Biso   1.000  C
  H157     1.0000 0.00590  0.49060  0.47613  Biso   1.000  H
  H158     1.0000 0.01490  0.52850  0.52793  Biso   1.000  H
  H159     1.0000 0.98320  0.52080  0.46733  Biso   1.000  H
  C87      1.0000 0.91850  0.42960  0.49703  Biso   1.000  C
  H160     1.0000 0.93560  0.41810  0.47453  Biso   1.000  H
  H161     1.0000 0.90340  0.43860  0.46543  Biso   1.000  H
  H162     1.0000 0.89610  0.40620  0.52483  Biso   1.000  H
  K5       1.0000 0.35094  0.59654  0.35333  Biso   1.000  K
  O33      1.0000 0.73480  0.31620  0.98073  Biso   1.000  O
  K6       1.0000 0.93560  0.31020  0.18283  Biso   1.000  K
  Cu19     1.0000 0.33422  0.31277  0.73517  Biso   1.000  Cu
  Cu20     1.0000 0.29038  0.36014  0.80223  Biso   1.000  Cu
  Cu21     1.0000 0.37988  0.44713  0.80510  Biso   1.000  Cu
  Cu22     1.0000 0.42552  0.40086  0.73147  Biso   1.000  Cu
  Cu23     1.0000 0.43974  0.29534  0.72822  Biso   1.000  Cu
  Cu24     1.0000 0.33234  0.39980  0.62553  Biso   1.000  Cu
  S19      1.0000 0.36880  0.27217  0.76042  Biso   1.000  S
  S20      1.0000 0.36655  0.46544  0.90709  Biso   1.000  S
  S21      1.0000 0.36973  0.36583  0.65638  Biso   1.000  S
  S22      1.0000 0.32382  0.41774  0.72833  Biso   1.000  S
  S23      1.0000 0.26170  0.28732  0.76283  Biso   1.000  S
  S24      1.0000 0.44991  0.47312  0.76458  Biso   1.000  S
  O34      1.0000 0.35719  0.57969  0.02130  Biso   1.000  O
  O35      1.0000 0.39972  0.61780  0.93480  Biso   1.000  O
  O36      1.0000 0.35430  0.35200  0.42660  Biso   1.000  O
  O37      1.0000 0.32870  0.27890  0.46380  Biso   1.000  O
  O38      1.0000 0.26450  0.48674  0.58410  Biso   1.000  O
  O39      1.0000 0.31533  0.54481  0.64100  Biso   1.000  O
  O40      1.0000 0.12340  0.17170  0.67190  Biso   1.000  O
  O41      1.0000 0.16860  0.18730  0.59580  Biso   1.000  O
  O42      1.0000 0.54950  0.62670  0.69150  Biso   1.000  O
  O43      1.0000 0.47980  0.60970  0.66840  Biso   1.000  O
  N19      1.0000 0.41505  0.23314  0.69200  Biso   1.000  N
  H163     1.0000 0.42720  0.23510  0.65190  Biso   1.000  H
  H164     1.0000 0.42350  0.21720  0.71810  Biso   1.000  H
  N20      1.0000 0.31437  0.50508  0.95900  Biso   1.000  N
  H165     1.0000 0.29280  0.51080  0.94340  Biso   1.000  H
  H166     1.0000 0.31500  0.50830  0.00310  Biso   1.000  H
  N21      1.0000 0.32362  0.36800  0.53870  Biso   1.000  N
  H167     1.0000 0.29410  0.35530  0.52690  Biso   1.000  H
  H168     1.0000 0.34030  0.38900  0.50800  Biso   1.000  H
  N22      1.0000 0.31378  0.44404  0.59500  Biso   1.000  N
  H169     1.0000 0.33110  0.45900  0.55990  Biso   1.000  H
  H170     1.0000 0.28470  0.42810  0.58110  Biso   1.000  H
  N23      1.0000 0.18740  0.19530  0.75780  Biso   1.000  N
  H171     1.0000 0.18610  0.16810  0.75420  Biso   1.000  H
  H172     1.0000 0.15920  0.18960  0.76850  Biso   1.000  H
  N24      1.0000 0.52420  0.56040  0.78730  Biso   1.000  N
  H173     1.0000 0.53260  0.58310  0.81670  Biso   1.000  H
  H174     1.0000 0.54910  0.56680  0.76330  Biso   1.000  H
  C88      1.0000 0.34070  0.21070  0.73600  Biso   1.000  C
  C89      1.0000 0.36610  0.20890  0.68640  Biso   1.000  C
  H175     1.0000 0.35890  0.22130  0.64770  Biso   1.000  H
  C90      1.0000 0.34420  0.18870  0.79370  Biso   1.000  C
  H176     1.0000 0.37530  0.19620  0.79980  Biso   1.000  H
  H177     1.0000 0.32520  0.15630  0.78900  Biso   1.000  H
  H178     1.0000 0.33440  0.19880  0.83120  Biso   1.000  H
  C91      1.0000 0.29980  0.20320  0.71730  Biso   1.000  C
  H179     1.0000 0.28370  0.20540  0.75470  Biso   1.000  H
  H180     1.0000 0.28280  0.17330  0.69840  Biso   1.000  H
  H181     1.0000 0.30340  0.22560  0.68520  Biso   1.000  H
  C92      1.0000 0.39044  0.52407  0.93790  Biso   1.000  C
  C93      1.0000 0.35788  0.53915  0.93310  Biso   1.000  C
  H182     1.0000 0.35320  0.54140  0.88600  Biso   1.000  H
  C94      1.0000 0.37370  0.58170  0.95820  Biso   1.000  C
  C95      1.0000 0.40360  0.52520  0.00720  Biso   1.000  C
  H183     1.0000 0.42540  0.51510  0.01040  Biso   1.000  H
  H184     1.0000 0.37710  0.50550  0.03270  Biso   1.000  H
  H185     1.0000 0.41680  0.55580  0.02360  Biso   1.000  H
  C96      1.0000 0.43380  0.55290  0.89880  Biso   1.000  C
  H186     1.0000 0.45390  0.54090  0.90380  Biso   1.000  H
  H187     1.0000 0.44850  0.58370  0.91460  Biso   1.000  H
  H188     1.0000 0.42630  0.55240  0.85310  Biso   1.000  H
  C97      1.0000 0.37739  0.34653  0.57530  Biso   1.000  C
  C98      1.0000 0.33600  0.33328  0.53813  Biso   1.000  C
  H189     1.0000 0.31120  0.30570  0.55800  Biso   1.000  H
  C99      1.0000 0.34340  0.32210  0.46838  Biso   1.000  C
  C100     1.0000 0.41860  0.38920  0.54260  Biso   1.000  C
  H190     1.0000 0.44580  0.39780  0.56730  Biso   1.000  H
  H191     1.0000 0.41260  0.41410  0.54200  Biso   1.000  H
  H192     1.0000 0.42250  0.38190  0.49830  Biso   1.000  H
  C101     1.0000 0.38540  0.30510  0.58440  Biso   1.000  C
  H193     1.0000 0.41280  0.31460  0.60910  Biso   1.000  H
  H194     1.0000 0.38810  0.29420  0.54210  Biso   1.000  H
  H195     1.0000 0.36000  0.28120  0.60760  Biso   1.000  H
  C102     1.0000 0.29470  0.45115  0.70710  Biso   1.000  C
  C103     1.0000 0.31689  0.47650  0.64050  Biso   1.000  C
  H196     1.0000 0.34940  0.49660  0.64940  Biso   1.000  H
  C104     1.0000 0.29940  0.50540  0.62130  Biso   1.000  C
  C105     1.0000 0.24725  0.41587  0.70170  Biso   1.000  C
  H197     1.0000 0.24380  0.39560  0.66630  Biso   1.000  H
  H198     1.0000 0.22890  0.42960  0.69320  Biso   1.000  H
  H199     1.0000 0.23760  0.39900  0.74210  Biso   1.000  H
  C106     1.0000 0.30594  0.48457  0.75990  Biso   1.000  C
  H200     1.0000 0.33810  0.50580  0.75960  Biso   1.000  H
  H201     1.0000 0.29740  0.46910  0.80150  Biso   1.000  H
  H202     1.0000 0.28960  0.50070  0.75320  Biso   1.000  H
  C107     1.0000 0.21430  0.26327  0.70230  Biso   1.000  C
  C108     1.0000 0.19716  0.21420  0.70090  Biso   1.000  C
  H203     1.0000 0.22210  0.21040  0.68390  Biso   1.000  H
  C109     1.0000 0.15803  0.18990  0.65240  Biso   1.000  C
  C110     1.0000 0.18280  0.27430  0.71920  Biso   1.000  C
  H204     1.0000 0.16820  0.25890  0.75930  Biso   1.000  H
  H205     1.0000 0.16040  0.26510  0.68490  Biso   1.000  H
  H206     1.0000 0.19710  0.30660  0.72550  Biso   1.000  H
  C111     1.0000 0.23330  0.28630  0.64710  Biso   1.000  C
  H207     1.0000 0.25700  0.28060  0.63330  Biso   1.000  H
  H208     1.0000 0.24590  0.31840  0.65490  Biso   1.000  H
  H209     1.0000 0.21050  0.27670  0.61330  Biso   1.000  H
  C112     1.0000 0.47096  0.52013  0.70570  Biso   1.000  C
  C113     1.0000 0.48970  0.56118  0.74190  Biso   1.000  C
  H210     1.0000 0.46550  0.56070  0.76870  Biso   1.000  H
  C114     1.0000 0.50850  0.60460  0.69110  Biso   1.000  C
  C115     1.0000 0.50605  0.51336  0.66550  Biso   1.000  C
  H211     1.0000 0.49060  0.48470  0.64280  Biso   1.000  H
  H212     1.0000 0.52850  0.51360  0.69460  Biso   1.000  H
  H213     1.0000 0.52080  0.53760  0.63400  Biso   1.000  H
  C116     1.0000 0.42960  0.51110  0.66370  Biso   1.000  C
  H214     1.0000 0.41810  0.48250  0.64120  Biso   1.000  H
  H215     1.0000 0.43860  0.53520  0.63210  Biso   1.000  H
  H216     1.0000 0.40620  0.51010  0.69150  Biso   1.000  H
  K7       1.0000 0.59654  0.24560  0.52000  Biso   1.000  K
  O44      1.0000 0.31620  0.58140  0.14740  Biso   1.000  O
  K8       1.0000 0.31020  0.37460  0.34950  Biso   1.000  K
  Cu25     1.0000 0.68723  0.02145  0.40184  Biso   1.000  Cu
  Cu26     1.0000 0.63986  0.93024  0.46890  Biso   1.000  Cu
  Cu27     1.0000 0.55287  0.93275  0.47177  Biso   1.000  Cu
  Cu28     1.0000 0.59914  0.02466  0.39814  Biso   1.000  Cu
  Cu29     1.0000 0.70466  0.14440  0.39489  Biso   1.000  Cu
  Cu30     1.0000 0.60020  0.93254  0.29220  Biso   1.000  Cu
  S25      1.0000 0.72783  0.09663  0.42709  Biso   1.000  S
  S26      1.0000 0.53456  0.90111  0.57376  Biso   1.000  S
  S27      1.0000 0.63417  0.00390  0.32305  Biso   1.000  S
  S28      1.0000 0.58226  0.90608  0.39500  Biso   1.000  S
  S29      1.0000 0.71268  0.97438  0.42950  Biso   1.000  S
  S30      1.0000 0.52688  0.97679  0.43125  Biso   1.000  S
  O45      1.0000 0.42031  0.77750  0.68797  Biso   1.000  O
  O46      1.0000 0.38220  0.78192  0.60147  Biso   1.000  O
  O47      1.0000 0.64800  0.00230  0.09327  Biso   1.000  O
  O48      1.0000 0.72110  0.04980  0.13047  Biso   1.000  O
  O49      1.0000 0.51326  0.77776  0.25077  Biso   1.000  O
  O50      1.0000 0.45519  0.77052  0.30767  Biso   1.000  O
  O51      1.0000 0.82830  0.95170  0.33857  Biso   1.000  O
  O52      1.0000 0.81270  0.98130  0.26247  Biso   1.000  O
  O53      1.0000 0.37330  0.92280  0.35817  Biso   1.000  O
  O54      1.0000 0.39030  0.87010  0.33507  Biso   1.000  O
  N25      1.0000 0.76686  0.18191  0.35867  Biso   1.000  N
  H217     1.0000 0.76490  0.19210  0.31857  Biso   1.000  H
  H218     1.0000 0.78280  0.20630  0.38477  Biso   1.000  H
  N26      1.0000 0.49492  0.80929  0.62567  Biso   1.000  N
  H219     1.0000 0.48920  0.78200  0.61007  Biso   1.000  H
  H220     1.0000 0.49170  0.80670  0.66977  Biso   1.000  H
  N27      1.0000 0.63200  0.95562  0.20537  Biso   1.000  N
  H221     1.0000 0.64470  0.93880  0.19357  Biso   1.000  H
  H222     1.0000 0.61100  0.95130  0.17467  Biso   1.000  H
  N28      1.0000 0.55596  0.86974  0.26167  Biso   1.000  N
  H223     1.0000 0.54100  0.87210  0.22657  Biso   1.000  H
  H224     1.0000 0.57190  0.85660  0.24777  Biso   1.000  H
  N29      1.0000 0.80470  0.99210  0.42447  Biso   1.000  N
  H225     1.0000 0.83190  0.01800  0.42087  Biso   1.000  H
  H226     1.0000 0.81040  0.96960  0.43517  Biso   1.000  H
  N30      1.0000 0.43960  0.96380  0.45397  Biso   1.000  N
  H227     1.0000 0.41690  0.94950  0.48337  Biso   1.000  H
  H228     1.0000 0.43320  0.98230  0.42997  Biso   1.000  H
  C117     1.0000 0.78930  0.13000  0.40267  Biso   1.000  C
  C118     1.0000 0.79110  0.15720  0.35307  Biso   1.000  C
  H229     1.0000 0.77870  0.13760  0.31437  Biso   1.000  H
  C119     1.0000 0.81130  0.15550  0.46037  Biso   1.000  C
  H230     1.0000 0.80380  0.17910  0.46647  Biso   1.000  H
  H231     1.0000 0.84370  0.16890  0.45567  Biso   1.000  H
  H232     1.0000 0.80120  0.13560  0.49787  Biso   1.000  H
  C120     1.0000 0.79680  0.09660  0.38397  Biso   1.000  C
  H233     1.0000 0.79460  0.07830  0.42137  Biso   1.000  H
  H234     1.0000 0.82670  0.10950  0.36507  Biso   1.000  H
  H235     1.0000 0.77440  0.07780  0.35187  Biso   1.000  H
  C121     1.0000 0.47593  0.86637  0.60457  Biso   1.000  C
  C122     1.0000 0.46085  0.81873  0.59977  Biso   1.000  C
  H236     1.0000 0.45860  0.81180  0.55267  Biso   1.000  H
  C123     1.0000 0.41830  0.79200  0.62487  Biso   1.000  C
  C124     1.0000 0.47480  0.87840  0.67387  Biso   1.000  C
  H237     1.0000 0.48490  0.91030  0.67707  Biso   1.000  H
  H238     1.0000 0.49450  0.87160  0.69937  Biso   1.000  H
  H239     1.0000 0.44420  0.86100  0.69027  Biso   1.000  H
  C125     1.0000 0.44710  0.88090  0.56547  Biso   1.000  C
  H240     1.0000 0.45910  0.91300  0.57047  Biso   1.000  H
  H241     1.0000 0.41630  0.86480  0.58127  Biso   1.000  H
  H242     1.0000 0.44760  0.87390  0.51977  Biso   1.000  H
  C126     1.0000 0.65347  0.03086  0.24197  Biso   1.000  C
  C127     1.0000 0.66672  0.00272  0.20480  Biso   1.000  C
  H243     1.0000 0.69430  0.00550  0.22467  Biso   1.000  H
  C128     1.0000 0.67790  0.02130  0.13505  Biso   1.000  C
  C129     1.0000 0.61080  0.02940  0.20927  Biso   1.000  C
  H244     1.0000 0.60220  0.04800  0.23397  Biso   1.000  H
  H245     1.0000 0.58590  0.99850  0.20867  Biso   1.000  H
  H246     1.0000 0.61810  0.04060  0.16497  Biso   1.000  H
  C130     1.0000 0.69490  0.08030  0.25107  Biso   1.000  C
  H247     1.0000 0.68540  0.09820  0.27577  Biso   1.000  H
  H248     1.0000 0.70580  0.09390  0.20877  Biso   1.000  H
  H249     1.0000 0.71880  0.07880  0.27427  Biso   1.000  H
  C131     1.0000 0.54885  0.84355  0.37377  Biso   1.000  C
  C132     1.0000 0.52350  0.84039  0.30717  Biso   1.000  C
  H250     1.0000 0.50340  0.85280  0.31607  Biso   1.000  H
  C133     1.0000 0.49460  0.79400  0.28797  Biso   1.000  C
  C134     1.0000 0.58413  0.83138  0.36837  Biso   1.000  C
  H251     1.0000 0.60440  0.84820  0.33297  Biso   1.000  H
  H252     1.0000 0.57040  0.79930  0.35987  Biso   1.000  H
  H253     1.0000 0.60100  0.83860  0.40877  Biso   1.000  H
  C135     1.0000 0.51543  0.82137  0.42657  Biso   1.000  C
  H254     1.0000 0.49420  0.83230  0.42627  Biso   1.000  H
  H255     1.0000 0.53090  0.82830  0.46817  Biso   1.000  H
  H256     1.0000 0.49930  0.78890  0.41987  Biso   1.000  H
  C136     1.0000 0.73673  0.95103  0.36897  Biso   1.000  C
  C137     1.0000 0.78580  0.98296  0.36757  Biso   1.000  C
  H257     1.0000 0.78960  0.01170  0.35057  Biso   1.000  H
  C138     1.0000 0.81010  0.96813  0.31907  Biso   1.000  C
  C139     1.0000 0.72570  0.90850  0.38587  Biso   1.000  C
  H258     1.0000 0.74110  0.90930  0.42597  Biso   1.000  H
  H259     1.0000 0.73490  0.89530  0.35157  Biso   1.000  H
  H260     1.0000 0.69340  0.89050  0.39217  Biso   1.000  H
  C140     1.0000 0.71370  0.94700  0.31377  Biso   1.000  C
  H261     1.0000 0.71940  0.97640  0.29997  Biso   1.000  H
  H262     1.0000 0.68160  0.92750  0.32157  Biso   1.000  H
  H263     1.0000 0.72330  0.93380  0.27997  Biso   1.000  H
  C141     1.0000 0.47987  0.95083  0.37237  Biso   1.000  C
  C142     1.0000 0.43882  0.92852  0.40857  Biso   1.000  C
  H264     1.0000 0.43930  0.90480  0.43537  Biso   1.000  H
  C143     1.0000 0.39540  0.90390  0.35777  Biso   1.000  C
  C144     1.0000 0.48664  0.99269  0.33217  Biso   1.000  C
  H265     1.0000 0.51530  0.00590  0.30947  Biso   1.000  H
  H266     1.0000 0.48640  0.01490  0.36127  Biso   1.000  H
  H267     1.0000 0.46240  0.98320  0.30067  Biso   1.000  H
  C145     1.0000 0.48890  0.91850  0.33037  Biso   1.000  C
  H268     1.0000 0.51750  0.93560  0.30787  Biso   1.000  H
  H269     1.0000 0.46480  0.90340  0.29877  Biso   1.000  H
  H270     1.0000 0.48990  0.89610  0.35817  Biso   1.000  H
  K9       1.0000 0.75440  0.35094  0.18667  Biso   1.000  K
  O55      1.0000 0.41860  0.73480  0.81407  Biso   1.000  O
  K10      1.0000 0.62540  0.93560  0.01617  Biso   1.000  K
  Cu31     1.0000 0.97855  0.66578  0.06850  Biso   1.000  Cu
  Cu32     1.0000 0.06976  0.70962  0.13556  Biso   1.000  Cu
  Cu33     1.0000 0.06725  0.62012  0.13843  Biso   1.000  Cu
  Cu34     1.0000 0.97534  0.57448  0.06480  Biso   1.000  Cu
  Cu35     1.0000 0.85560  0.56026  0.06155  Biso   1.000  Cu
  Cu36     1.0000 0.06746  0.66766  0.95886  Biso   1.000  Cu
  S31      1.0000 0.90337  0.63120  0.09375  Biso   1.000  S
  S32      1.0000 0.09889  0.63345  0.24042  Biso   1.000  S
  S33      1.0000 0.99610  0.63027  0.98971  Biso   1.000  S
  S34      1.0000 0.09392  0.67618  0.06166  Biso   1.000  S
  S35      1.0000 0.02562  0.73830  0.09616  Biso   1.000  S
  S36      1.0000 0.02321  0.55009  0.09791  Biso   1.000  S
  O56      1.0000 0.22250  0.64281  0.35463  Biso   1.000  O
  O57      1.0000 0.21808  0.60028  0.26813  Biso   1.000  O
  O58      1.0000 0.99770  0.64570  0.75993  Biso   1.000  O
  O59      1.0000 0.95020  0.67130  0.79713  Biso   1.000  O
  O60      1.0000 0.22224  0.73550  0.91743  Biso   1.000  O
  O61      1.0000 0.22948  0.68467  0.97433  Biso   1.000  O
  O62      1.0000 0.04830  0.87660  0.00523  Biso   1.000  O
  O63      1.0000 0.01870  0.83140  0.92913  Biso   1.000  O
  O64      1.0000 0.07720  0.45050  0.02483  Biso   1.000  O
  O65      1.0000 0.12990  0.52020  0.00173  Biso   1.000  O
  N31      1.0000 0.81809  0.58495  0.02533  Biso   1.000  N
  H271     1.0000 0.80790  0.57280  0.98523  Biso   1.000  H
  H272     1.0000 0.79370  0.57650  0.05143  Biso   1.000  H
  N32      1.0000 0.19071  0.68563  0.29233  Biso   1.000  N
  H273     1.0000 0.21800  0.70720  0.27673  Biso   1.000  H
  H274     1.0000 0.19330  0.68500  0.33643  Biso   1.000  H
  N33      1.0000 0.04438  0.67638  0.87203  Biso   1.000  N
  H275     1.0000 0.06120  0.70590  0.86023  Biso   1.000  H
  H276     1.0000 0.04870  0.65970  0.84133  Biso   1.000  H
  N34      1.0000 0.13026  0.68622  0.92833  Biso   1.000  N
  H277     1.0000 0.12790  0.66890  0.89323  Biso   1.000  H
  H278     1.0000 0.14340  0.71530  0.91443  Biso   1.000  H
  N35      1.0000 0.00790  0.81260  0.09113  Biso   1.000  N
  H279     1.0000 0.98200  0.81390  0.08753  Biso   1.000  H
  H280     1.0000 0.03040  0.84080  0.10183  Biso   1.000  H
  N36      1.0000 0.03620  0.47580  0.12063  Biso   1.000  N
  H281     1.0000 0.05050  0.46740  0.15003  Biso   1.000  H
  H282     1.0000 0.01770  0.45090  0.09663  Biso   1.000  H
  C146     1.0000 0.87000  0.65930  0.06933  Biso   1.000  C
  C147     1.0000 0.84280  0.63390  0.01973  Biso   1.000  C
  H283     1.0000 0.86240  0.64110  0.98103  Biso   1.000  H
  C148     1.0000 0.84450  0.65580  0.12703  Biso   1.000  C
  H284     1.0000 0.82090  0.62470  0.13313  Biso   1.000  H
  H285     1.0000 0.83110  0.67480  0.12233  Biso   1.000  H
  H286     1.0000 0.86440  0.66560  0.16453  Biso   1.000  H
  C149     1.0000 0.90340  0.70020  0.05063  Biso   1.000  C
  H287     1.0000 0.92170  0.71630  0.08803  Biso   1.000  H
  H288     1.0000 0.89050  0.71720  0.03173  Biso   1.000  H
  H289     1.0000 0.92220  0.69660  0.01853  Biso   1.000  H
  C150     1.0000 0.13363  0.60956  0.27123  Biso   1.000  C
  C151     1.0000 0.18127  0.64212  0.26643  Biso   1.000  C
  H290     1.0000 0.18820  0.64680  0.21933  Biso   1.000  H
  C152     1.0000 0.20800  0.62630  0.29153  Biso   1.000  C
  C153     1.0000 0.12160  0.59640  0.34053  Biso   1.000  C
  H291     1.0000 0.08970  0.57460  0.34373  Biso   1.000  H
  H292     1.0000 0.12840  0.62290  0.36603  Biso   1.000  H
  H293     1.0000 0.13900  0.58320  0.35693  Biso   1.000  H
  C154     1.0000 0.11910  0.56620  0.23213  Biso   1.000  C
  H294     1.0000 0.08700  0.54610  0.23713  Biso   1.000  H
  H295     1.0000 0.13520  0.55150  0.24793  Biso   1.000  H
  H296     1.0000 0.12610  0.57370  0.18643  Biso   1.000  H
  C155     1.0000 0.96914  0.62261  0.90863  Biso   1.000  C
  C156     1.0000 0.99728  0.66400  0.87146  Biso   1.000  C
  H297     1.0000 0.99450  0.68880  0.89133  Biso   1.000  H
  C157     1.0000 0.97870  0.65660  0.80171  Biso   1.000  C
  C158     1.0000 0.97060  0.58140  0.87593  Biso   1.000  C
  H298     1.0000 0.95200  0.55420  0.90063  Biso   1.000  H
  H299     1.0000 0.00150  0.58740  0.87533  Biso   1.000  H
  H300     1.0000 0.95940  0.57750  0.83163  Biso   1.000  H
  C159     1.0000 0.91970  0.61460  0.91773  Biso   1.000  C
  H301     1.0000 0.90180  0.58720  0.94243  Biso   1.000  H
  H302     1.0000 0.90610  0.61190  0.87543  Biso   1.000  H
  H303     1.0000 0.92120  0.64000  0.94093  Biso   1.000  H
  C160     1.0000 0.15645  0.70530  0.04043  Biso   1.000  C
  C161     1.0000 0.15961  0.68311  0.97383  Biso   1.000  C
  H304     1.0000 0.14720  0.65060  0.98273  Biso   1.000  H
  C162     1.0000 0.20600  0.70060  0.95463  Biso   1.000  C
  C163     1.0000 0.16862  0.75275  0.03503  Biso   1.000  C
  H305     1.0000 0.15180  0.75620  0.99963  Biso   1.000  H
  H306     1.0000 0.20070  0.77110  0.02653  Biso   1.000  H
  H307     1.0000 0.16140  0.76240  0.07543  Biso   1.000  H
  C164     1.0000 0.17863  0.69406  0.09323  Biso   1.000  C
  H308     1.0000 0.16770  0.66190  0.09293  Biso   1.000  H
  H309     1.0000 0.17170  0.70260  0.13483  Biso   1.000  H
  H310     1.0000 0.21110  0.71040  0.08653  Biso   1.000  H
  C165     1.0000 0.04897  0.78570  0.03563  Biso   1.000  C
  C166     1.0000 0.01704  0.80284  0.03423  Biso   1.000  C
  H311     1.0000 0.98830  0.77790  0.01723  Biso   1.000  H
  C167     1.0000 0.03187  0.84197  0.98573  Biso   1.000  C
  C168     1.0000 0.09150  0.81720  0.05253  Biso   1.000  C
  H312     1.0000 0.09070  0.83180  0.09263  Biso   1.000  H
  H313     1.0000 0.10470  0.83960  0.01823  Biso   1.000  H
  H314     1.0000 0.10950  0.80290  0.05883  Biso   1.000  H
  C169     1.0000 0.05300  0.76670  0.98043  Biso   1.000  C
  H315     1.0000 0.02360  0.74300  0.96663  Biso   1.000  H
  H316     1.0000 0.07250  0.75410  0.98823  Biso   1.000  H
  H317     1.0000 0.06620  0.78950  0.94663  Biso   1.000  H
  C170     1.0000 0.04917  0.52904  0.03903  Biso   1.000  C
  C171     1.0000 0.07148  0.51030  0.07523  Biso   1.000  C
  H318     1.0000 0.09520  0.53450  0.10203  Biso   1.000  H
  C172     1.0000 0.09610  0.49150  0.02443  Biso   1.000  C
  C173     1.0000 0.00731  0.49395  0.99883  Biso   1.000  C
  H319     1.0000 0.99410  0.50940  0.97613  Biso   1.000  H
  H320     1.0000 0.98510  0.47150  0.02793  Biso   1.000  H
  H321     1.0000 0.01680  0.47920  0.96733  Biso   1.000  H
  C174     1.0000 0.08150  0.57040  0.99703  Biso   1.000  C
  H322     1.0000 0.06440  0.58190  0.97453  Biso   1.000  H
  H323     1.0000 0.09660  0.56140  0.96543  Biso   1.000  H
  H324     1.0000 0.10390  0.59380  0.02483  Biso   1.000  H
  K11      1.0000 0.64906  0.40346  0.85333  Biso   1.000  K
  O66      1.0000 0.26520  0.68380  0.48073  Biso   1.000  O
  K12      1.0000 0.06440  0.68980  0.68283  Biso   1.000  K
  Cu37     1.0000 0.68723  0.66578  0.43150  Biso   1.000  Cu
  Cu38     1.0000 0.63986  0.70962  0.36444  Biso   1.000  Cu
  Cu39     1.0000 0.55287  0.62012  0.36157  Biso   1.000  Cu
  Cu40     1.0000 0.59914  0.57448  0.43520  Biso   1.000  Cu
  Cu41     1.0000 0.70466  0.56026  0.43845  Biso   1.000  Cu
  Cu42     1.0000 0.60020  0.66766  0.54114  Biso   1.000  Cu
  S37      1.0000 0.72783  0.63120  0.40625  Biso   1.000  S
  S38      1.0000 0.53456  0.63345  0.25958  Biso   1.000  S
  S39      1.0000 0.63417  0.63027  0.51029  Biso   1.000  S
  S40      1.0000 0.58226  0.67618  0.43834  Biso   1.000  S
  S41      1.0000 0.71268  0.73830  0.40384  Biso   1.000  S
  S42      1.0000 0.52688  0.55009  0.40209  Biso   1.000  S
  O67      1.0000 0.42031  0.64281  0.14537  Biso   1.000  O
  O68      1.0000 0.38220  0.60028  0.23187  Biso   1.000  O
  O69      1.0000 0.64800  0.64570  0.74007  Biso   1.000  O
  O70      1.0000 0.72110  0.67130  0.70287  Biso   1.000  O
  O71      1.0000 0.51326  0.73550  0.58257  Biso   1.000  O
  O72      1.0000 0.45519  0.68467  0.52567  Biso   1.000  O
  O73      1.0000 0.82830  0.87660  0.49477  Biso   1.000  O
  O74      1.0000 0.81270  0.83140  0.57087  Biso   1.000  O
  O75      1.0000 0.37330  0.45050  0.47517  Biso   1.000  O
  O76      1.0000 0.39030  0.52020  0.49827  Biso   1.000  O
  N37      1.0000 0.76686  0.58495  0.47467  Biso   1.000  N
  H325     1.0000 0.76490  0.57280  0.51477  Biso   1.000  H
  H326     1.0000 0.78280  0.57650  0.44857  Biso   1.000  H
  N38      1.0000 0.49492  0.68563  0.20767  Biso   1.000  N
  H327     1.0000 0.48920  0.70720  0.22327  Biso   1.000  H
  H328     1.0000 0.49170  0.68500  0.16357  Biso   1.000  H
  N39      1.0000 0.63200  0.67638  0.62797  Biso   1.000  N
  H329     1.0000 0.64470  0.70590  0.63977  Biso   1.000  H
  H330     1.0000 0.61100  0.65970  0.65867  Biso   1.000  H
  N40      1.0000 0.55596  0.68622  0.57167  Biso   1.000  N
  H331     1.0000 0.54100  0.66890  0.60677  Biso   1.000  H
  H332     1.0000 0.57190  0.71530  0.58557  Biso   1.000  H
  N41      1.0000 0.80470  0.81260  0.40887  Biso   1.000  N
  H333     1.0000 0.83190  0.81390  0.41247  Biso   1.000  H
  H334     1.0000 0.81040  0.84080  0.39817  Biso   1.000  H
  N42      1.0000 0.43960  0.47580  0.37937  Biso   1.000  N
  H335     1.0000 0.41690  0.46740  0.34997  Biso   1.000  H
  H336     1.0000 0.43320  0.45090  0.40337  Biso   1.000  H
  C175     1.0000 0.78930  0.65930  0.43067  Biso   1.000  C
  C176     1.0000 0.79110  0.63390  0.48027  Biso   1.000  C
  H337     1.0000 0.77870  0.64110  0.51897  Biso   1.000  H
  C177     1.0000 0.81130  0.65580  0.37297  Biso   1.000  C
  H338     1.0000 0.80380  0.62470  0.36687  Biso   1.000  H
  H339     1.0000 0.84370  0.67480  0.37767  Biso   1.000  H
  H340     1.0000 0.80120  0.66560  0.33547  Biso   1.000  H
  C178     1.0000 0.79680  0.70020  0.44937  Biso   1.000  C
  H341     1.0000 0.79460  0.71630  0.41197  Biso   1.000  H
  H342     1.0000 0.82670  0.71720  0.46827  Biso   1.000  H
  H343     1.0000 0.77440  0.69660  0.48147  Biso   1.000  H
  C179     1.0000 0.47593  0.60956  0.22877  Biso   1.000  C
  C180     1.0000 0.46085  0.64212  0.23357  Biso   1.000  C
  H344     1.0000 0.45860  0.64680  0.28067  Biso   1.000  H
  C181     1.0000 0.41830  0.62630  0.20847  Biso   1.000  C
  C182     1.0000 0.47480  0.59640  0.15947  Biso   1.000  C
  H345     1.0000 0.48490  0.57460  0.15627  Biso   1.000  H
  H346     1.0000 0.49450  0.62290  0.13397  Biso   1.000  H
  H347     1.0000 0.44420  0.58320  0.14307  Biso   1.000  H
  C183     1.0000 0.44710  0.56620  0.26787  Biso   1.000  C
  H348     1.0000 0.45910  0.54610  0.26287  Biso   1.000  H
  H349     1.0000 0.41630  0.55150  0.25207  Biso   1.000  H
  H350     1.0000 0.44760  0.57370  0.31357  Biso   1.000  H
  C184     1.0000 0.65347  0.62261  0.59137  Biso   1.000  C
  C185     1.0000 0.66672  0.66400  0.62854  Biso   1.000  C
  H351     1.0000 0.69430  0.68880  0.60867  Biso   1.000  H
  C186     1.0000 0.67790  0.65660  0.69829  Biso   1.000  C
  C187     1.0000 0.61080  0.58140  0.62407  Biso   1.000  C
  H352     1.0000 0.60220  0.55420  0.59937  Biso   1.000  H
  H353     1.0000 0.58590  0.58740  0.62467  Biso   1.000  H
  H354     1.0000 0.61810  0.57750  0.66837  Biso   1.000  H
  C188     1.0000 0.69490  0.61460  0.58227  Biso   1.000  C
  H355     1.0000 0.68540  0.58720  0.55757  Biso   1.000  H
  H356     1.0000 0.70580  0.61190  0.62457  Biso   1.000  H
  H357     1.0000 0.71880  0.64000  0.55907  Biso   1.000  H
  C189     1.0000 0.54885  0.70530  0.45957  Biso   1.000  C
  C190     1.0000 0.52350  0.68311  0.52617  Biso   1.000  C
  H358     1.0000 0.50340  0.65060  0.51727  Biso   1.000  H
  C191     1.0000 0.49460  0.70060  0.54537  Biso   1.000  C
  C192     1.0000 0.58413  0.75275  0.46497  Biso   1.000  C
  H359     1.0000 0.60440  0.75620  0.50037  Biso   1.000  H
  H360     1.0000 0.57040  0.77110  0.47347  Biso   1.000  H
  H361     1.0000 0.60100  0.76240  0.42457  Biso   1.000  H
  C193     1.0000 0.51543  0.69406  0.40677  Biso   1.000  C
  H362     1.0000 0.49420  0.66190  0.40707  Biso   1.000  H
  H363     1.0000 0.53090  0.70260  0.36517  Biso   1.000  H
  H364     1.0000 0.49930  0.71040  0.41347  Biso   1.000  H
  C194     1.0000 0.73673  0.78570  0.46437  Biso   1.000  C
  C195     1.0000 0.78580  0.80284  0.46577  Biso   1.000  C
  H365     1.0000 0.78960  0.77790  0.48277  Biso   1.000  H
  C196     1.0000 0.81010  0.84197  0.51427  Biso   1.000  C
  C197     1.0000 0.72570  0.81720  0.44747  Biso   1.000  C
  H366     1.0000 0.74110  0.83180  0.40737  Biso   1.000  H
  H367     1.0000 0.73490  0.83960  0.48177  Biso   1.000  H
  H368     1.0000 0.69340  0.80290  0.44117  Biso   1.000  H
  C198     1.0000 0.71370  0.76670  0.51957  Biso   1.000  C
  H369     1.0000 0.71940  0.74300  0.53337  Biso   1.000  H
  H370     1.0000 0.68160  0.75410  0.51177  Biso   1.000  H
  H371     1.0000 0.72330  0.78950  0.55337  Biso   1.000  H
  C199     1.0000 0.47987  0.52904  0.46097  Biso   1.000  C
  C200     1.0000 0.43882  0.51030  0.42477  Biso   1.000  C
  H372     1.0000 0.43930  0.53450  0.39797  Biso   1.000  H
  C201     1.0000 0.39540  0.49150  0.47557  Biso   1.000  C
  C202     1.0000 0.48664  0.49395  0.50117  Biso   1.000  C
  H373     1.0000 0.51530  0.50940  0.52387  Biso   1.000  H
  H374     1.0000 0.48640  0.47150  0.47207  Biso   1.000  H
  H375     1.0000 0.46240  0.47920  0.53267  Biso   1.000  H
  C203     1.0000 0.48890  0.57040  0.50297  Biso   1.000  C
  H376     1.0000 0.51750  0.58190  0.52547  Biso   1.000  H
  H377     1.0000 0.46480  0.56140  0.53457  Biso   1.000  H
  H378     1.0000 0.48990  0.59380  0.47517  Biso   1.000  H
  K13      1.0000 0.75440  0.40346  0.64667  Biso   1.000  K
  O77      1.0000 0.41860  0.68380  0.01927  Biso   1.000  O
  K14      1.0000 0.62540  0.68980  0.81717  Biso   1.000  K
  Cu43     1.0000 0.97855  0.31277  0.76483  Biso   1.000  Cu
  Cu44     1.0000 0.06976  0.36014  0.69777  Biso   1.000  Cu
  Cu45     1.0000 0.06725  0.44713  0.69490  Biso   1.000  Cu
  Cu46     1.0000 0.97534  0.40086  0.76853  Biso   1.000  Cu
  Cu47     1.0000 0.85560  0.29534  0.77178  Biso   1.000  Cu
  Cu48     1.0000 0.06746  0.39980  0.87447  Biso   1.000  Cu
  S43      1.0000 0.90337  0.27217  0.73958  Biso   1.000  S
  S44      1.0000 0.09889  0.46544  0.59291  Biso   1.000  S
  S45      1.0000 0.99610  0.36583  0.84362  Biso   1.000  S
  S46      1.0000 0.09392  0.41774  0.77167  Biso   1.000  S
  S47      1.0000 0.02562  0.28732  0.73717  Biso   1.000  S
  S48      1.0000 0.02321  0.47312  0.73542  Biso   1.000  S
  O78      1.0000 0.22250  0.57969  0.47870  Biso   1.000  O
  O79      1.0000 0.21808  0.61780  0.56520  Biso   1.000  O
  O80      1.0000 0.99770  0.35200  0.07340  Biso   1.000  O
  O81      1.0000 0.95020  0.27890  0.03620  Biso   1.000  O
  O82      1.0000 0.22224  0.48674  0.91590  Biso   1.000  O
  O83      1.0000 0.22948  0.54481  0.85900  Biso   1.000  O
  O84      1.0000 0.04830  0.17170  0.82810  Biso   1.000  O
  O85      1.0000 0.01870  0.18730  0.90420  Biso   1.000  O
  O86      1.0000 0.07720  0.62670  0.80850  Biso   1.000  O
  O87      1.0000 0.12990  0.60970  0.83160  Biso   1.000  O
  N43      1.0000 0.81809  0.23314  0.80800  Biso   1.000  N
  H379     1.0000 0.80790  0.23510  0.84810  Biso   1.000  H
  H380     1.0000 0.79370  0.21720  0.78190  Biso   1.000  H
  N44      1.0000 0.19071  0.50508  0.54100  Biso   1.000  N
  H381     1.0000 0.21800  0.51080  0.55660  Biso   1.000  H
  H382     1.0000 0.19330  0.50830  0.49690  Biso   1.000  H
  N45      1.0000 0.04438  0.36800  0.96130  Biso   1.000  N
  H383     1.0000 0.06120  0.35530  0.97310  Biso   1.000  H
  H384     1.0000 0.04870  0.38900  0.99200  Biso   1.000  H
  N46      1.0000 0.13026  0.44404  0.90500  Biso   1.000  N
  H385     1.0000 0.12790  0.45900  0.94010  Biso   1.000  H
  H386     1.0000 0.14340  0.42810  0.91890  Biso   1.000  H
  N47      1.0000 0.00790  0.19530  0.74220  Biso   1.000  N
  H387     1.0000 0.98200  0.16810  0.74580  Biso   1.000  H
  H388     1.0000 0.03040  0.18960  0.73150  Biso   1.000  H
  N48      1.0000 0.03620  0.56040  0.71270  Biso   1.000  N
  H389     1.0000 0.05050  0.58310  0.68330  Biso   1.000  H
  H390     1.0000 0.01770  0.56680  0.73670  Biso   1.000  H
  C204     1.0000 0.87000  0.21070  0.76400  Biso   1.000  C
  C205     1.0000 0.84280  0.20890  0.81360  Biso   1.000  C
  H391     1.0000 0.86240  0.22130  0.85230  Biso   1.000  H
  C206     1.0000 0.84450  0.18870  0.70630  Biso   1.000  C
  H392     1.0000 0.82090  0.19620  0.70020  Biso   1.000  H
  H393     1.0000 0.83110  0.15630  0.71100  Biso   1.000  H
  H394     1.0000 0.86440  0.19880  0.66880  Biso   1.000  H
  C207     1.0000 0.90340  0.20320  0.78270  Biso   1.000  C
  H395     1.0000 0.92170  0.20540  0.74530  Biso   1.000  H
  H396     1.0000 0.89050  0.17330  0.80160  Biso   1.000  H
  H397     1.0000 0.92220  0.22560  0.81480  Biso   1.000  H
  C208     1.0000 0.13363  0.52407  0.56210  Biso   1.000  C
  C209     1.0000 0.18127  0.53915  0.56690  Biso   1.000  C
  H398     1.0000 0.18820  0.54140  0.61400  Biso   1.000  H
  C210     1.0000 0.20800  0.58170  0.54180  Biso   1.000  C
  C211     1.0000 0.12160  0.52520  0.49280  Biso   1.000  C
  H399     1.0000 0.08970  0.51510  0.48960  Biso   1.000  H
  H400     1.0000 0.12840  0.50550  0.46730  Biso   1.000  H
  H401     1.0000 0.13900  0.55580  0.47640  Biso   1.000  H
  C212     1.0000 0.11910  0.55290  0.60120  Biso   1.000  C
  H402     1.0000 0.08700  0.54090  0.59620  Biso   1.000  H
  H403     1.0000 0.13520  0.58370  0.58540  Biso   1.000  H
  H404     1.0000 0.12610  0.55240  0.64690  Biso   1.000  H
  C213     1.0000 0.96914  0.34653  0.92470  Biso   1.000  C
  C214     1.0000 0.99728  0.33328  0.96187  Biso   1.000  C
  H405     1.0000 0.99450  0.30570  0.94200  Biso   1.000  H
  C215     1.0000 0.97870  0.32210  0.03162  Biso   1.000  C
  C216     1.0000 0.97060  0.38920  0.95740  Biso   1.000  C
  H406     1.0000 0.95200  0.39780  0.93270  Biso   1.000  H
  H407     1.0000 0.00150  0.41410  0.95800  Biso   1.000  H
  H408     1.0000 0.95940  0.38190  0.00170  Biso   1.000  H
  C217     1.0000 0.91970  0.30510  0.91560  Biso   1.000  C
  H409     1.0000 0.90180  0.31460  0.89090  Biso   1.000  H
  H410     1.0000 0.90610  0.29420  0.95790  Biso   1.000  H
  H411     1.0000 0.92120  0.28120  0.89240  Biso   1.000  H
  C218     1.0000 0.15645  0.45115  0.79290  Biso   1.000  C
  C219     1.0000 0.15961  0.47650  0.85950  Biso   1.000  C
  H412     1.0000 0.14720  0.49660  0.85060  Biso   1.000  H
  C220     1.0000 0.20600  0.50540  0.87870  Biso   1.000  C
  C221     1.0000 0.16862  0.41587  0.79830  Biso   1.000  C
  H413     1.0000 0.15180  0.39560  0.83370  Biso   1.000  H
  H414     1.0000 0.20070  0.42960  0.80680  Biso   1.000  H
  H415     1.0000 0.16140  0.39900  0.75790  Biso   1.000  H
  C222     1.0000 0.17863  0.48457  0.74010  Biso   1.000  C
  H416     1.0000 0.16770  0.50580  0.74040  Biso   1.000  H
  H417     1.0000 0.17170  0.46910  0.69850  Biso   1.000  H
  H418     1.0000 0.21110  0.50070  0.74680  Biso   1.000  H
  C223     1.0000 0.04897  0.26327  0.79770  Biso   1.000  C
  C224     1.0000 0.01704  0.21420  0.79910  Biso   1.000  C
  H419     1.0000 0.98830  0.21040  0.81610  Biso   1.000  H
  C225     1.0000 0.03187  0.18990  0.84760  Biso   1.000  C
  C226     1.0000 0.09150  0.27430  0.78080  Biso   1.000  C
  H420     1.0000 0.09070  0.25890  0.74070  Biso   1.000  H
  H421     1.0000 0.10470  0.26510  0.81510  Biso   1.000  H
  H422     1.0000 0.10950  0.30660  0.77450  Biso   1.000  H
  C227     1.0000 0.05300  0.28630  0.85290  Biso   1.000  C
  H423     1.0000 0.02360  0.28060  0.86670  Biso   1.000  H
  H424     1.0000 0.07250  0.31840  0.84510  Biso   1.000  H
  H425     1.0000 0.06620  0.27670  0.88670  Biso   1.000  H
  C228     1.0000 0.04917  0.52013  0.79430  Biso   1.000  C
  C229     1.0000 0.07148  0.56118  0.75810  Biso   1.000  C
  H426     1.0000 0.09520  0.56070  0.73130  Biso   1.000  H
  C230     1.0000 0.09610  0.60460  0.80890  Biso   1.000  C
  C231     1.0000 0.00731  0.51336  0.83450  Biso   1.000  C
  H427     1.0000 0.99410  0.48470  0.85720  Biso   1.000  H
  H428     1.0000 0.98510  0.51360  0.80540  Biso   1.000  H
  H429     1.0000 0.01680  0.53760  0.86600  Biso   1.000  H
  C232     1.0000 0.08150  0.51110  0.83630  Biso   1.000  C
  H430     1.0000 0.06440  0.48250  0.85880  Biso   1.000  H
  H431     1.0000 0.09660  0.53520  0.86790  Biso   1.000  H
  H432     1.0000 0.10390  0.51010  0.80850  Biso   1.000  H
  K15      1.0000 0.64906  0.24560  0.98000  Biso   1.000  K
  O88      1.0000 0.26520  0.58140  0.35260  Biso   1.000  O
  K16      1.0000 0.06440  0.37460  0.15050  Biso   1.000  K
  Cu49     1.0000 0.33422  0.02145  0.09816  Biso   1.000  Cu
  Cu50     1.0000 0.29038  0.93024  0.03110  Biso   1.000  Cu
  Cu51     1.0000 0.37988  0.93275  0.02823  Biso   1.000  Cu
  Cu52     1.0000 0.42552  0.02466  0.10186  Biso   1.000  Cu
  Cu53     1.0000 0.43974  0.14440  0.10511  Biso   1.000  Cu
  Cu54     1.0000 0.33234  0.93254  0.20780  Biso   1.000  Cu
  S49      1.0000 0.36880  0.09663  0.07291  Biso   1.000  S
  S50      1.0000 0.36655  0.90111  0.92624  Biso   1.000  S
  S51      1.0000 0.36973  0.00390  0.17695  Biso   1.000  S
  S52      1.0000 0.32382  0.90608  0.10500  Biso   1.000  S
  S53      1.0000 0.26170  0.97438  0.07050  Biso   1.000  S
  S54      1.0000 0.44991  0.97679  0.06875  Biso   1.000  S
  O89      1.0000 0.35719  0.77750  0.81203  Biso   1.000  O
  O90      1.0000 0.39972  0.78192  0.89853  Biso   1.000  O
  O91      1.0000 0.35430  0.00230  0.40673  Biso   1.000  O
  O92      1.0000 0.32870  0.04980  0.36953  Biso   1.000  O
  O93      1.0000 0.26450  0.77776  0.24923  Biso   1.000  O
  O94      1.0000 0.31533  0.77052  0.19233  Biso   1.000  O
  O95      1.0000 0.12340  0.95170  0.16143  Biso   1.000  O
  O96      1.0000 0.16860  0.98130  0.23753  Biso   1.000  O
  O97      1.0000 0.54950  0.92280  0.14183  Biso   1.000  O
  O98      1.0000 0.47980  0.87010  0.16493  Biso   1.000  O
  N49      1.0000 0.41505  0.18191  0.14133  Biso   1.000  N
  H433     1.0000 0.42720  0.19210  0.18143  Biso   1.000  H
  H434     1.0000 0.42350  0.20630  0.11523  Biso   1.000  H
  N50      1.0000 0.31437  0.80929  0.87433  Biso   1.000  N
  H435     1.0000 0.29280  0.78200  0.88993  Biso   1.000  H
  H436     1.0000 0.31500  0.80670  0.83023  Biso   1.000  H
  N51      1.0000 0.32362  0.95562  0.29463  Biso   1.000  N
  H437     1.0000 0.29410  0.93880  0.30643  Biso   1.000  H
  H438     1.0000 0.34030  0.95130  0.32533  Biso   1.000  H
  N52      1.0000 0.31378  0.86974  0.23833  Biso   1.000  N
  H439     1.0000 0.33110  0.87210  0.27343  Biso   1.000  H
  H440     1.0000 0.28470  0.85660  0.25223  Biso   1.000  H
  N53      1.0000 0.18740  0.99210  0.07553  Biso   1.000  N
  H441     1.0000 0.18610  0.01800  0.07913  Biso   1.000  H
  H442     1.0000 0.15920  0.96960  0.06483  Biso   1.000  H
  N54      1.0000 0.52420  0.96380  0.04603  Biso   1.000  N
  H443     1.0000 0.53260  0.94950  0.01663  Biso   1.000  H
  H444     1.0000 0.54910  0.98230  0.07003  Biso   1.000  H
  C233     1.0000 0.34070  0.13000  0.09733  Biso   1.000  C
  C234     1.0000 0.36610  0.15720  0.14693  Biso   1.000  C
  H445     1.0000 0.35890  0.13760  0.18563  Biso   1.000  H
  C235     1.0000 0.34420  0.15550  0.03963  Biso   1.000  C
  H446     1.0000 0.37530  0.17910  0.03353  Biso   1.000  H
  H447     1.0000 0.32520  0.16890  0.04433  Biso   1.000  H
  H448     1.0000 0.33440  0.13560  0.00213  Biso   1.000  H
  C236     1.0000 0.29980  0.09660  0.11603  Biso   1.000  C
  H449     1.0000 0.28370  0.07830  0.07863  Biso   1.000  H
  H450     1.0000 0.28280  0.10950  0.13493  Biso   1.000  H
  H451     1.0000 0.30340  0.07780  0.14813  Biso   1.000  H
  C237     1.0000 0.39044  0.86637  0.89543  Biso   1.000  C
  C238     1.0000 0.35788  0.81873  0.90023  Biso   1.000  C
  H452     1.0000 0.35320  0.81180  0.94733  Biso   1.000  H
  C239     1.0000 0.37370  0.79200  0.87513  Biso   1.000  C
  C240     1.0000 0.40360  0.87840  0.82613  Biso   1.000  C
  H453     1.0000 0.42540  0.91030  0.82293  Biso   1.000  H
  H454     1.0000 0.37710  0.87160  0.80063  Biso   1.000  H
  H455     1.0000 0.41680  0.86100  0.80973  Biso   1.000  H
  C241     1.0000 0.43380  0.88090  0.93453  Biso   1.000  C
  H456     1.0000 0.45390  0.91300  0.92953  Biso   1.000  H
  H457     1.0000 0.44850  0.86480  0.91873  Biso   1.000  H
  H458     1.0000 0.42630  0.87390  0.98023  Biso   1.000  H
  C242     1.0000 0.37739  0.03086  0.25803  Biso   1.000  C
  C243     1.0000 0.33600  0.00272  0.29520  Biso   1.000  C
  H459     1.0000 0.31120  0.00550  0.27533  Biso   1.000  H
  C244     1.0000 0.34340  0.02130  0.36495  Biso   1.000  C
  C245     1.0000 0.41860  0.02940  0.29073  Biso   1.000  C
  H460     1.0000 0.44580  0.04800  0.26603  Biso   1.000  H
  H461     1.0000 0.41260  0.99850  0.29133  Biso   1.000  H
  H462     1.0000 0.42250  0.04060  0.33503  Biso   1.000  H
  C246     1.0000 0.38540  0.08030  0.24893  Biso   1.000  C
  H463     1.0000 0.41280  0.09820  0.22423  Biso   1.000  H
  H464     1.0000 0.38810  0.09390  0.29123  Biso   1.000  H
  H465     1.0000 0.36000  0.07880  0.22573  Biso   1.000  H
  C247     1.0000 0.29470  0.84355  0.12623  Biso   1.000  C
  C248     1.0000 0.31689  0.84039  0.19283  Biso   1.000  C
  H466     1.0000 0.34940  0.85280  0.18393  Biso   1.000  H
  C249     1.0000 0.29940  0.79400  0.21203  Biso   1.000  C
  C250     1.0000 0.24725  0.83138  0.13163  Biso   1.000  C
  H467     1.0000 0.24380  0.84820  0.16703  Biso   1.000  H
  H468     1.0000 0.22890  0.79930  0.14013  Biso   1.000  H
  H469     1.0000 0.23760  0.83860  0.09123  Biso   1.000  H
  C251     1.0000 0.30594  0.82137  0.07343  Biso   1.000  C
  H470     1.0000 0.33810  0.83230  0.07373  Biso   1.000  H
  H471     1.0000 0.29740  0.82830  0.03183  Biso   1.000  H
  H472     1.0000 0.28960  0.78890  0.08013  Biso   1.000  H
  C252     1.0000 0.21430  0.95103  0.13103  Biso   1.000  C
  C253     1.0000 0.19716  0.98296  0.13243  Biso   1.000  C
  H473     1.0000 0.22210  0.01170  0.14943  Biso   1.000  H
  C254     1.0000 0.15803  0.96813  0.18093  Biso   1.000  C
  C255     1.0000 0.18280  0.90850  0.11413  Biso   1.000  C
  H474     1.0000 0.16820  0.90930  0.07403  Biso   1.000  H
  H475     1.0000 0.16040  0.89530  0.14843  Biso   1.000  H
  H476     1.0000 0.19710  0.89050  0.10783  Biso   1.000  H
  C256     1.0000 0.23330  0.94700  0.18623  Biso   1.000  C
  H477     1.0000 0.25700  0.97640  0.20003  Biso   1.000  H
  H478     1.0000 0.24590  0.92750  0.17843  Biso   1.000  H
  H479     1.0000 0.21050  0.93380  0.22003  Biso   1.000  H
  C257     1.0000 0.47096  0.95083  0.12763  Biso   1.000  C
  C258     1.0000 0.48970  0.92852  0.09143  Biso   1.000  C
  H480     1.0000 0.46550  0.90480  0.06463  Biso   1.000  H
  C259     1.0000 0.50850  0.90390  0.14223  Biso   1.000  C
  C260     1.0000 0.50605  0.99269  0.16783  Biso   1.000  C
  H481     1.0000 0.49060  0.00590  0.19053  Biso   1.000  H
  H482     1.0000 0.52850  0.01490  0.13873  Biso   1.000  H
  H483     1.0000 0.52080  0.98320  0.19933  Biso   1.000  H
  C261     1.0000 0.42960  0.91850  0.16963  Biso   1.000  C
  H484     1.0000 0.41810  0.93560  0.19213  Biso   1.000  H
  H485     1.0000 0.43860  0.90340  0.20123  Biso   1.000  H
  H486     1.0000 0.40620  0.89610  0.14183  Biso   1.000  H
  K17      1.0000 0.59654  0.35094  0.31333  Biso   1.000  K
  O99      1.0000 0.31620  0.73480  0.68593  Biso   1.000  O
  K18      1.0000 0.31020  0.93560  0.48383  Biso   1.000  K
  Cu55     1.0000 0.31277  0.33422  0.93150  Biso   1.000  Cu
  Cu56     1.0000 0.36014  0.29038  0.86444  Biso   1.000  Cu
  Cu57     1.0000 0.44713  0.37988  0.86157  Biso   1.000  Cu
  Cu58     1.0000 0.40086  0.42552  0.93520  Biso   1.000  Cu
  Cu59     1.0000 0.29534  0.43974  0.93845  Biso   1.000  Cu
  Cu60     1.0000 0.39980  0.33234  0.04114  Biso   1.000  Cu
  S55      1.0000 0.27217  0.36880  0.90625  Biso   1.000  S
  S56      1.0000 0.46544  0.36655  0.75958  Biso   1.000  S
  S57      1.0000 0.36583  0.36973  0.01029  Biso   1.000  S
  S58      1.0000 0.41774  0.32382  0.93834  Biso   1.000  S
  S59      1.0000 0.28732  0.26170  0.90384  Biso   1.000  S
  S60      1.0000 0.47312  0.44991  0.90209  Biso   1.000  S
  O100     1.0000 0.57969  0.35719  0.64537  Biso   1.000  O
  O101     1.0000 0.61780  0.39972  0.73187  Biso   1.000  O
  O102     1.0000 0.35200  0.35430  0.24007  Biso   1.000  O
  O103     1.0000 0.27890  0.32870  0.20287  Biso   1.000  O
  O104     1.0000 0.48674  0.26450  0.08257  Biso   1.000  O
  O105     1.0000 0.54481  0.31533  0.02567  Biso   1.000  O
  O106     1.0000 0.17170  0.12340  0.99477  Biso   1.000  O
  O107     1.0000 0.18730  0.16860  0.07087  Biso   1.000  O
  O108     1.0000 0.62670  0.54950  0.97517  Biso   1.000  O
  O109     1.0000 0.60970  0.47980  0.99827  Biso   1.000  O
  N55      1.0000 0.23314  0.41505  0.97467  Biso   1.000  N
  H487     1.0000 0.23510  0.42720  0.01477  Biso   1.000  H
  H488     1.0000 0.21720  0.42350  0.94857  Biso   1.000  H
  N56      1.0000 0.50508  0.31437  0.70767  Biso   1.000  N
  H489     1.0000 0.51080  0.29280  0.72327  Biso   1.000  H
  H490     1.0000 0.50830  0.31500  0.66357  Biso   1.000  H
  N57      1.0000 0.36800  0.32362  0.12797  Biso   1.000  N
  H491     1.0000 0.35530  0.29410  0.13977  Biso   1.000  H
  H492     1.0000 0.38900  0.34030  0.15867  Biso   1.000  H
  N58      1.0000 0.44404  0.31378  0.07167  Biso   1.000  N
  H493     1.0000 0.45900  0.33110  0.10677  Biso   1.000  H
  H494     1.0000 0.42810  0.28470  0.08557  Biso   1.000  H
  N59      1.0000 0.19530  0.18740  0.90887  Biso   1.000  N
  H495     1.0000 0.16810  0.18610  0.91247  Biso   1.000  H
  H496     1.0000 0.18960  0.15920  0.89817  Biso   1.000  H
  N60      1.0000 0.56040  0.52420  0.87937  Biso   1.000  N
  H497     1.0000 0.58310  0.53260  0.84997  Biso   1.000  H
  H498     1.0000 0.56680  0.54910  0.90337  Biso   1.000  H
  C262     1.0000 0.21070  0.34070  0.93067  Biso   1.000  C
  C263     1.0000 0.20890  0.36610  0.98027  Biso   1.000  C
  H499     1.0000 0.22130  0.35890  0.01897  Biso   1.000  H
  C264     1.0000 0.18870  0.34420  0.87297  Biso   1.000  C
  H500     1.0000 0.19620  0.37530  0.86687  Biso   1.000  H
  H501     1.0000 0.15630  0.32520  0.87767  Biso   1.000  H
  H502     1.0000 0.19880  0.33440  0.83547  Biso   1.000  H
  C265     1.0000 0.20320  0.29980  0.94937  Biso   1.000  C
  H503     1.0000 0.20540  0.28370  0.91197  Biso   1.000  H
  H504     1.0000 0.17330  0.28280  0.96827  Biso   1.000  H
  H505     1.0000 0.22560  0.30340  0.98147  Biso   1.000  H
  C266     1.0000 0.52407  0.39044  0.72877  Biso   1.000  C
  C267     1.0000 0.53915  0.35788  0.73357  Biso   1.000  C
  H506     1.0000 0.54140  0.35320  0.78067  Biso   1.000  H
  C268     1.0000 0.58170  0.37370  0.70847  Biso   1.000  C
  C269     1.0000 0.52520  0.40360  0.65947  Biso   1.000  C
  H507     1.0000 0.51510  0.42540  0.65627  Biso   1.000  H
  H508     1.0000 0.50550  0.37710  0.63397  Biso   1.000  H
  H509     1.0000 0.55580  0.41680  0.64307  Biso   1.000  H
  C270     1.0000 0.55290  0.43380  0.76787  Biso   1.000  C
  H510     1.0000 0.54090  0.45390  0.76287  Biso   1.000  H
  H511     1.0000 0.58370  0.44850  0.75207  Biso   1.000  H
  H512     1.0000 0.55240  0.42630  0.81357  Biso   1.000  H
  C271     1.0000 0.34653  0.37739  0.09137  Biso   1.000  C
  C272     1.0000 0.33328  0.33600  0.12854  Biso   1.000  C
  H513     1.0000 0.30570  0.31120  0.10867  Biso   1.000  H
  C273     1.0000 0.32210  0.34340  0.19829  Biso   1.000  C
  C274     1.0000 0.38920  0.41860  0.12407  Biso   1.000  C
  H514     1.0000 0.39780  0.44580  0.09937  Biso   1.000  H
  H515     1.0000 0.41410  0.41260  0.12467  Biso   1.000  H
  H516     1.0000 0.38190  0.42250  0.16837  Biso   1.000  H
  C275     1.0000 0.30510  0.38540  0.08227  Biso   1.000  C
  H517     1.0000 0.31460  0.41280  0.05757  Biso   1.000  H
  H518     1.0000 0.29420  0.38810  0.12457  Biso   1.000  H
  H519     1.0000 0.28120  0.36000  0.05907  Biso   1.000  H
  C276     1.0000 0.45115  0.29470  0.95957  Biso   1.000  C
  C277     1.0000 0.47650  0.31689  0.02617  Biso   1.000  C
  H520     1.0000 0.49660  0.34940  0.01727  Biso   1.000  H
  C278     1.0000 0.50540  0.29940  0.04537  Biso   1.000  C
  C279     1.0000 0.41587  0.24725  0.96497  Biso   1.000  C
  H521     1.0000 0.39560  0.24380  0.00037  Biso   1.000  H
  H522     1.0000 0.42960  0.22890  0.97347  Biso   1.000  H
  H523     1.0000 0.39900  0.23760  0.92457  Biso   1.000  H
  C280     1.0000 0.48457  0.30594  0.90677  Biso   1.000  C
  H524     1.0000 0.50580  0.33810  0.90707  Biso   1.000  H
  H525     1.0000 0.46910  0.29740  0.86517  Biso   1.000  H
  H526     1.0000 0.50070  0.28960  0.91347  Biso   1.000  H
  C281     1.0000 0.26327  0.21430  0.96437  Biso   1.000  C
  C282     1.0000 0.21420  0.19716  0.96577  Biso   1.000  C
  H527     1.0000 0.21040  0.22210  0.98277  Biso   1.000  H
  C283     1.0000 0.18990  0.15803  0.01427  Biso   1.000  C
  C284     1.0000 0.27430  0.18280  0.94747  Biso   1.000  C
  H528     1.0000 0.25890  0.16820  0.90737  Biso   1.000  H
  H529     1.0000 0.26510  0.16040  0.98177  Biso   1.000  H
  H530     1.0000 0.30660  0.19710  0.94117  Biso   1.000  H
  C285     1.0000 0.28630  0.23330  0.01957  Biso   1.000  C
  H531     1.0000 0.28060  0.25700  0.03337  Biso   1.000  H
  H532     1.0000 0.31840  0.24590  0.01177  Biso   1.000  H
  H533     1.0000 0.27670  0.21050  0.05337  Biso   1.000  H
  C286     1.0000 0.52013  0.47096  0.96097  Biso   1.000  C
  C287     1.0000 0.56118  0.48970  0.92477  Biso   1.000  C
  H534     1.0000 0.56070  0.46550  0.89797  Biso   1.000  H
  C288     1.0000 0.60460  0.50850  0.97557  Biso   1.000  C
  C289     1.0000 0.51336  0.50605  0.00117  Biso   1.000  C
  H535     1.0000 0.48470  0.49060  0.02387  Biso   1.000  H
  H536     1.0000 0.51360  0.52850  0.97207  Biso   1.000  H
  H537     1.0000 0.53760  0.52080  0.03267  Biso   1.000  H
  C290     1.0000 0.51110  0.42960  0.00297  Biso   1.000  C
  H538     1.0000 0.48250  0.41810  0.02547  Biso   1.000  H
  H539     1.0000 0.53520  0.43860  0.03457  Biso   1.000  H
  H540     1.0000 0.51010  0.40620  0.97517  Biso   1.000  H
  K19      1.0000 0.24560  0.59654  0.14667  Biso   1.000  K
  O110     1.0000 0.58140  0.31620  0.51927  Biso   1.000  O
  K20      1.0000 0.37460  0.31020  0.31717  Biso   1.000  K
  Cu61     1.0000 0.02145  0.68723  0.26483  Biso   1.000  Cu
  Cu62     1.0000 0.93024  0.63986  0.19777  Biso   1.000  Cu
  Cu63     1.0000 0.93275  0.55287  0.19490  Biso   1.000  Cu
  Cu64     1.0000 0.02466  0.59914  0.26853  Biso   1.000  Cu
  Cu65     1.0000 0.14440  0.70466  0.27178  Biso   1.000  Cu
  Cu66     1.0000 0.93254  0.60020  0.37447  Biso   1.000  Cu
  S61      1.0000 0.09663  0.72783  0.23958  Biso   1.000  S
  S62      1.0000 0.90111  0.53456  0.09291  Biso   1.000  S
  S63      1.0000 0.00390  0.63417  0.34362  Biso   1.000  S
  S64      1.0000 0.90608  0.58226  0.27167  Biso   1.000  S
  S65      1.0000 0.97438  0.71268  0.23717  Biso   1.000  S
  S66      1.0000 0.97679  0.52688  0.23542  Biso   1.000  S
  O111     1.0000 0.77750  0.42031  0.97870  Biso   1.000  O
  O112     1.0000 0.78192  0.38220  0.06520  Biso   1.000  O
  O113     1.0000 0.00230  0.64800  0.57340  Biso   1.000  O
  O114     1.0000 0.04980  0.72110  0.53620  Biso   1.000  O
  O115     1.0000 0.77776  0.51326  0.41590  Biso   1.000  O
  O116     1.0000 0.77052  0.45519  0.35900  Biso   1.000  O
  O117     1.0000 0.95170  0.82830  0.32810  Biso   1.000  O
  O118     1.0000 0.98130  0.81270  0.40420  Biso   1.000  O
  O119     1.0000 0.92280  0.37330  0.30850  Biso   1.000  O
  O120     1.0000 0.87010  0.39030  0.33160  Biso   1.000  O
  N61      1.0000 0.18191  0.76686  0.30800  Biso   1.000  N
  H541     1.0000 0.19210  0.76490  0.34810  Biso   1.000  H
  H542     1.0000 0.20630  0.78280  0.28190  Biso   1.000  H
  N62      1.0000 0.80929  0.49492  0.04100  Biso   1.000  N
  H543     1.0000 0.78200  0.48920  0.05660  Biso   1.000  H
  H544     1.0000 0.80670  0.49170  0.99690  Biso   1.000  H
  N63      1.0000 0.95562  0.63200  0.46130  Biso   1.000  N
  H545     1.0000 0.93880  0.64470  0.47310  Biso   1.000  H
  H546     1.0000 0.95130  0.61100  0.49200  Biso   1.000  H
  N64      1.0000 0.86974  0.55596  0.40500  Biso   1.000  N
  H547     1.0000 0.87210  0.54100  0.44010  Biso   1.000  H
  H548     1.0000 0.85660  0.57190  0.41890  Biso   1.000  H
  N65      1.0000 0.99210  0.80470  0.24220  Biso   1.000  N
  H549     1.0000 0.01800  0.83190  0.24580  Biso   1.000  H
  H550     1.0000 0.96960  0.81040  0.23150  Biso   1.000  H
  N66      1.0000 0.96380  0.43960  0.21270  Biso   1.000  N
  H551     1.0000 0.94950  0.41690  0.18330  Biso   1.000  H
  H552     1.0000 0.98230  0.43320  0.23670  Biso   1.000  H
  C291     1.0000 0.13000  0.78930  0.26400  Biso   1.000  C
  C292     1.0000 0.15720  0.79110  0.31360  Biso   1.000  C
  H553     1.0000 0.13760  0.77870  0.35230  Biso   1.000  H
  C293     1.0000 0.15550  0.81130  0.20630  Biso   1.000  C
  H554     1.0000 0.17910  0.80380  0.20020  Biso   1.000  H
  H555     1.0000 0.16890  0.84370  0.21100  Biso   1.000  H
  H556     1.0000 0.13560  0.80120  0.16880  Biso   1.000  H
  C294     1.0000 0.09660  0.79680  0.28270  Biso   1.000  C
  H557     1.0000 0.07830  0.79460  0.24530  Biso   1.000  H
  H558     1.0000 0.10950  0.82670  0.30160  Biso   1.000  H
  H559     1.0000 0.07780  0.77440  0.31480  Biso   1.000  H
  C295     1.0000 0.86637  0.47593  0.06210  Biso   1.000  C
  C296     1.0000 0.81873  0.46085  0.06690  Biso   1.000  C
  H560     1.0000 0.81180  0.45860  0.11400  Biso   1.000  H
  C297     1.0000 0.79200  0.41830  0.04180  Biso   1.000  C
  C298     1.0000 0.87840  0.47480  0.99280  Biso   1.000  C
  H561     1.0000 0.91030  0.48490  0.98960  Biso   1.000  H
  H562     1.0000 0.87160  0.49450  0.96730  Biso   1.000  H
  H563     1.0000 0.86100  0.44420  0.97640  Biso   1.000  H
  C299     1.0000 0.88090  0.44710  0.10120  Biso   1.000  C
  H564     1.0000 0.91300  0.45910  0.09620  Biso   1.000  H
  H565     1.0000 0.86480  0.41630  0.08540  Biso   1.000  H
  H566     1.0000 0.87390  0.44760  0.14690  Biso   1.000  H
  C300     1.0000 0.03086  0.65347  0.42470  Biso   1.000  C
  C301     1.0000 0.00272  0.66672  0.46187  Biso   1.000  C
  H567     1.0000 0.00550  0.69430  0.44200  Biso   1.000  H
  C302     1.0000 0.02130  0.67790  0.53162  Biso   1.000  C
  C303     1.0000 0.02940  0.61080  0.45740  Biso   1.000  C
  H568     1.0000 0.04800  0.60220  0.43270  Biso   1.000  H
  H569     1.0000 0.99850  0.58590  0.45800  Biso   1.000  H
  H570     1.0000 0.04060  0.61810  0.50170  Biso   1.000  H
  C304     1.0000 0.08030  0.69490  0.41560  Biso   1.000  C
  H571     1.0000 0.09820  0.68540  0.39090  Biso   1.000  H
  H572     1.0000 0.09390  0.70580  0.45790  Biso   1.000  H
  H573     1.0000 0.07880  0.71880  0.39240  Biso   1.000  H
  C305     1.0000 0.84355  0.54885  0.29290  Biso   1.000  C
  C306     1.0000 0.84039  0.52350  0.35950  Biso   1.000  C
  H574     1.0000 0.85280  0.50340  0.35060  Biso   1.000  H
  C307     1.0000 0.79400  0.49460  0.37870  Biso   1.000  C
  C308     1.0000 0.83138  0.58413  0.29830  Biso   1.000  C
  H575     1.0000 0.84820  0.60440  0.33370  Biso   1.000  H
  H576     1.0000 0.79930  0.57040  0.30680  Biso   1.000  H
  H577     1.0000 0.83860  0.60100  0.25790  Biso   1.000  H
  C309     1.0000 0.82137  0.51543  0.24010  Biso   1.000  C
  H578     1.0000 0.83230  0.49420  0.24040  Biso   1.000  H
  H579     1.0000 0.82830  0.53090  0.19850  Biso   1.000  H
  H580     1.0000 0.78890  0.49930  0.24680  Biso   1.000  H
  C310     1.0000 0.95103  0.73673  0.29770  Biso   1.000  C
  C311     1.0000 0.98296  0.78580  0.29910  Biso   1.000  C
  H581     1.0000 0.01170  0.78960  0.31610  Biso   1.000  H
  C312     1.0000 0.96813  0.81010  0.34760  Biso   1.000  C
  C313     1.0000 0.90850  0.72570  0.28080  Biso   1.000  C
  H582     1.0000 0.90930  0.74110  0.24070  Biso   1.000  H
  H583     1.0000 0.89530  0.73490  0.31510  Biso   1.000  H
  H584     1.0000 0.89050  0.69340  0.27450  Biso   1.000  H
  C314     1.0000 0.94700  0.71370  0.35290  Biso   1.000  C
  H585     1.0000 0.97640  0.71940  0.36670  Biso   1.000  H
  H586     1.0000 0.92750  0.68160  0.34510  Biso   1.000  H
  H587     1.0000 0.93380  0.72330  0.38670  Biso   1.000  H
  C315     1.0000 0.95083  0.47987  0.29430  Biso   1.000  C
  C316     1.0000 0.92852  0.43882  0.25810  Biso   1.000  C
  H588     1.0000 0.90480  0.43930  0.23130  Biso   1.000  H
  C317     1.0000 0.90390  0.39540  0.30890  Biso   1.000  C
  C318     1.0000 0.99269  0.48664  0.33450  Biso   1.000  C
  H589     1.0000 0.00590  0.51530  0.35720  Biso   1.000  H
  H590     1.0000 0.01490  0.48640  0.30540  Biso   1.000  H
  H591     1.0000 0.98320  0.46240  0.36600  Biso   1.000  H
  C319     1.0000 0.91850  0.48890  0.33630  Biso   1.000  C
  H592     1.0000 0.93560  0.51750  0.35880  Biso   1.000  H
  H593     1.0000 0.90340  0.46480  0.36790  Biso   1.000  H
  H594     1.0000 0.89610  0.48990  0.30850  Biso   1.000  H
  K21      1.0000 0.35094  0.75440  0.48000  Biso   1.000  K
  O121     1.0000 0.73480  0.41860  0.85260  Biso   1.000  O
  K22      1.0000 0.93560  0.62540  0.65050  Biso   1.000  K
  Cu67     1.0000 0.66578  0.97855  0.59816  Biso   1.000  Cu
  Cu68     1.0000 0.70962  0.06976  0.53110  Biso   1.000  Cu
  Cu69     1.0000 0.62012  0.06725  0.52823  Biso   1.000  Cu
  Cu70     1.0000 0.57448  0.97534  0.60186  Biso   1.000  Cu
  Cu71     1.0000 0.56026  0.85560  0.60511  Biso   1.000  Cu
  Cu72     1.0000 0.66766  0.06746  0.70780  Biso   1.000  Cu
  S67      1.0000 0.63120  0.90337  0.57291  Biso   1.000  S
  S68      1.0000 0.63345  0.09889  0.42624  Biso   1.000  S
  S69      1.0000 0.63027  0.99610  0.67695  Biso   1.000  S
  S70      1.0000 0.67618  0.09392  0.60500  Biso   1.000  S
  S71      1.0000 0.73830  0.02562  0.57050  Biso   1.000  S
  S72      1.0000 0.55009  0.02321  0.56875  Biso   1.000  S
  O122     1.0000 0.64281  0.22250  0.31203  Biso   1.000  O
  O123     1.0000 0.60028  0.21808  0.39853  Biso   1.000  O
  O124     1.0000 0.64570  0.99770  0.90673  Biso   1.000  O
  O125     1.0000 0.67130  0.95020  0.86953  Biso   1.000  O
  O126     1.0000 0.73550  0.22224  0.74923  Biso   1.000  O
  O127     1.0000 0.68467  0.22948  0.69233  Biso   1.000  O
  O128     1.0000 0.87660  0.04830  0.66143  Biso   1.000  O
  O129     1.0000 0.83140  0.01870  0.73753  Biso   1.000  O
  O130     1.0000 0.45050  0.07720  0.64183  Biso   1.000  O
  O131     1.0000 0.52020  0.12990  0.66493  Biso   1.000  O
  N67      1.0000 0.58495  0.81809  0.64133  Biso   1.000  N
  H595     1.0000 0.57280  0.80790  0.68143  Biso   1.000  H
  H596     1.0000 0.57650  0.79370  0.61523  Biso   1.000  H
  N68      1.0000 0.68563  0.19071  0.37433  Biso   1.000  N
  H597     1.0000 0.70720  0.21800  0.38993  Biso   1.000  H
  H598     1.0000 0.68500  0.19330  0.33023  Biso   1.000  H
  N69      1.0000 0.67638  0.04438  0.79463  Biso   1.000  N
  H599     1.0000 0.70590  0.06120  0.80643  Biso   1.000  H
  H600     1.0000 0.65970  0.04870  0.82533  Biso   1.000  H
  N70      1.0000 0.68622  0.13026  0.73833  Biso   1.000  N
  H601     1.0000 0.66890  0.12790  0.77343  Biso   1.000  H
  H602     1.0000 0.71530  0.14340  0.75223  Biso   1.000  H
  N71      1.0000 0.81260  0.00790  0.57553  Biso   1.000  N
  H603     1.0000 0.81390  0.98200  0.57913  Biso   1.000  H
  H604     1.0000 0.84080  0.03040  0.56483  Biso   1.000  H
  N72      1.0000 0.47580  0.03620  0.54603  Biso   1.000  N
  H605     1.0000 0.46740  0.05050  0.51663  Biso   1.000  H
  H606     1.0000 0.45090  0.01770  0.57003  Biso   1.000  H
  C320     1.0000 0.65930  0.87000  0.59733  Biso   1.000  C
  C321     1.0000 0.63390  0.84280  0.64693  Biso   1.000  C
  H607     1.0000 0.64110  0.86240  0.68563  Biso   1.000  H
  C322     1.0000 0.65580  0.84450  0.53963  Biso   1.000  C
  H608     1.0000 0.62470  0.82090  0.53353  Biso   1.000  H
  H609     1.0000 0.67480  0.83110  0.54433  Biso   1.000  H
  H610     1.0000 0.66560  0.86440  0.50213  Biso   1.000  H
  C323     1.0000 0.70020  0.90340  0.61603  Biso   1.000  C
  H611     1.0000 0.71630  0.92170  0.57863  Biso   1.000  H
  H612     1.0000 0.71720  0.89050  0.63493  Biso   1.000  H
  H613     1.0000 0.69660  0.92220  0.64813  Biso   1.000  H
  C324     1.0000 0.60956  0.13363  0.39543  Biso   1.000  C
  C325     1.0000 0.64212  0.18127  0.40023  Biso   1.000  C
  H614     1.0000 0.64680  0.18820  0.44733  Biso   1.000  H
  C326     1.0000 0.62630  0.20800  0.37513  Biso   1.000  C
  C327     1.0000 0.59640  0.12160  0.32613  Biso   1.000  C
  H615     1.0000 0.57460  0.08970  0.32293  Biso   1.000  H
  H616     1.0000 0.62290  0.12840  0.30063  Biso   1.000  H
  H617     1.0000 0.58320  0.13900  0.30973  Biso   1.000  H
  C328     1.0000 0.56620  0.11910  0.43453  Biso   1.000  C
  H618     1.0000 0.54610  0.08700  0.42953  Biso   1.000  H
  H619     1.0000 0.55150  0.13520  0.41873  Biso   1.000  H
  H620     1.0000 0.57370  0.12610  0.48023  Biso   1.000  H
  C329     1.0000 0.62261  0.96914  0.75803  Biso   1.000  C
  C330     1.0000 0.66400  0.99728  0.79520  Biso   1.000  C
  H621     1.0000 0.68880  0.99450  0.77533  Biso   1.000  H
  C331     1.0000 0.65660  0.97870  0.86495  Biso   1.000  C
  C332     1.0000 0.58140  0.97060  0.79073  Biso   1.000  C
  H622     1.0000 0.55420  0.95200  0.76603  Biso   1.000  H
  H623     1.0000 0.58740  0.00150  0.79133  Biso   1.000  H
  H624     1.0000 0.57750  0.95940  0.83503  Biso   1.000  H
  C333     1.0000 0.61460  0.91970  0.74893  Biso   1.000  C
  H625     1.0000 0.58720  0.90180  0.72423  Biso   1.000  H
  H626     1.0000 0.61190  0.90610  0.79123  Biso   1.000  H
  H627     1.0000 0.64000  0.92120  0.72573  Biso   1.000  H
  C334     1.0000 0.70530  0.15645  0.62623  Biso   1.000  C
  C335     1.0000 0.68311  0.15961  0.69283  Biso   1.000  C
  H628     1.0000 0.65060  0.14720  0.68393  Biso   1.000  H
  C336     1.0000 0.70060  0.20600  0.71203  Biso   1.000  C
  C337     1.0000 0.75275  0.16862  0.63163  Biso   1.000  C
  H629     1.0000 0.75620  0.15180  0.66703  Biso   1.000  H
  H630     1.0000 0.77110  0.20070  0.64013  Biso   1.000  H
  H631     1.0000 0.76240  0.16140  0.59123  Biso   1.000  H
  C338     1.0000 0.69406  0.17863  0.57343  Biso   1.000  C
  H632     1.0000 0.66190  0.16770  0.57373  Biso   1.000  H
  H633     1.0000 0.70260  0.17170  0.53183  Biso   1.000  H
  H634     1.0000 0.71040  0.21110  0.58013  Biso   1.000  H
  C339     1.0000 0.78570  0.04897  0.63103  Biso   1.000  C
  C340     1.0000 0.80284  0.01704  0.63243  Biso   1.000  C
  H635     1.0000 0.77790  0.98830  0.64943  Biso   1.000  H
  C341     1.0000 0.84197  0.03187  0.68093  Biso   1.000  C
  C342     1.0000 0.81720  0.09150  0.61413  Biso   1.000  C
  H636     1.0000 0.83180  0.09070  0.57403  Biso   1.000  H
  H637     1.0000 0.83960  0.10470  0.64843  Biso   1.000  H
  H638     1.0000 0.80290  0.10950  0.60783  Biso   1.000  H
  C343     1.0000 0.76670  0.05300  0.68623  Biso   1.000  C
  H639     1.0000 0.74300  0.02360  0.70003  Biso   1.000  H
  H640     1.0000 0.75410  0.07250  0.67843  Biso   1.000  H
  H641     1.0000 0.78950  0.06620  0.72003  Biso   1.000  H
  C344     1.0000 0.52904  0.04917  0.62763  Biso   1.000  C
  C345     1.0000 0.51030  0.07148  0.59143  Biso   1.000  C
  H642     1.0000 0.53450  0.09520  0.56463  Biso   1.000  H
  C346     1.0000 0.49150  0.09610  0.64223  Biso   1.000  C
  C347     1.0000 0.49395  0.00731  0.66783  Biso   1.000  C
  H643     1.0000 0.50940  0.99410  0.69053  Biso   1.000  H
  H644     1.0000 0.47150  0.98510  0.63873  Biso   1.000  H
  H645     1.0000 0.47920  0.01680  0.69933  Biso   1.000  H
  C348     1.0000 0.57040  0.08150  0.66963  Biso   1.000  C
  H646     1.0000 0.58190  0.06440  0.69213  Biso   1.000  H
  H647     1.0000 0.56140  0.09660  0.70123  Biso   1.000  H
  H648     1.0000 0.59380  0.10390  0.64183  Biso   1.000  H
  K23      1.0000 0.40346  0.64906  0.81333  Biso   1.000  K
  O132     1.0000 0.68380  0.26520  0.18593  Biso   1.000  O
  K24      1.0000 0.68980  0.06440  0.98383  Biso   1.000  K
  Cu73     1.0000 0.77027  0.77027  0.33333  Biso   1.000  Cu
  Cu74     1.0000 0.49269  0.49269  0.33333  Biso   1.000  Cu
  Cl1      1.0000 0.63118  0.63118  0.33333  Biso   1.000  Cl
  Cu75     1.0000 0.22973  0.00000  0.00000  Biso   1.000  Cu
  Cu76     1.0000 0.50731  0.00000  0.00000  Biso   1.000  Cu
  Cl2      1.0000 0.36882  0.00000  0.00000  Biso   1.000  Cl
  Cu77     1.0000 0.00000  0.22973  0.66667  Biso   1.000  Cu
  Cu78     1.0000 0.00000  0.50731  0.66667  Biso   1.000  Cu
  Cl3      1.0000 0.00000  0.36882  0.66667  Biso   1.000  Cl
  Cu79     1.0000 0.22973  0.22973  0.83333  Biso   1.000  Cu
  Cu80     1.0000 0.50731  0.50731  0.83333  Biso   1.000  Cu
  Cl4      1.0000 0.36882  0.36882  0.83333  Biso   1.000  Cl
  Cu81     1.0000 0.77027  0.00000  0.50000  Biso   1.000  Cu
  Cu82     1.0000 0.49269  0.00000  0.50000  Biso   1.000  Cu
  Cl5      1.0000 0.63118  0.00000  0.50000  Biso   1.000  Cl
  Cu83     1.0000 0.00000  0.77027  0.16667  Biso   1.000  Cu
  Cu84     1.0000 0.00000  0.49269  0.16667  Biso   1.000  Cu
  Cl6      1.0000 0.00000  0.63118  0.16667  Biso   1.000  Cl
  Co1      1.0000 0.63271  0.36729  0.58333  Biso   1.000  Co
  Co2      1.0000 0.63271  0.26542  0.25000  Biso   1.000  Co
  Co3      1.0000 0.73458  0.36729  0.91667  Biso   1.000  Co
  Co4      1.0000 0.36729  0.63271  0.08333  Biso   1.000  Co
  Co5      1.0000 0.36729  0.73458  0.75000  Biso   1.000  Co
  Co6      1.0000 0.26542  0.63271  0.41667  Biso   1.000  Co
  O133     1.0000 0.66430  0.66430  0.83333  Biso   1.000  O
  O134     1.0000 0.33570  0.00000  0.50000  Biso   1.000  O
  O135     1.0000 0.00000  0.33570  0.16667  Biso   1.000  O
  O136     1.0000 0.33570  0.33570  0.33333  Biso   1.000  O
  O137     1.0000 0.66430  0.00000  0.00000  Biso   1.000  O
  O138     1.0000 0.00000  0.66430  0.66667  Biso   1.000  O
