data_image0
_cell_length_a       24.927
_cell_length_b       24.927
_cell_length_c       46.045
_cell_angle_alpha    90
_cell_angle_beta     90
_cell_angle_gamma    90

_symmetry_space_group_name_H-M    "P 1"
_symmetry_int_tables_number       1

loop_
  _symmetry_equiv_pos_as_xyz
  'x, y, z'

loop_
  _atom_site_label
  _atom_site_occupancy
  _atom_site_fract_x
  _atom_site_fract_y
  _atom_site_fract_z
  _atom_site_thermal_displace_type
  _atom_site_B_iso_or_equiv
  _atom_site_type_symbol
  Ag1      1.0000 0.71208  0.65604  0.22785  Biso   1.000  Ag
  Ag2      1.0000 0.84585  0.61015  0.24873  Biso   1.000  Ag
  Ag3      1.0000 0.81020  0.50038  0.28849  Biso   1.000  Ag
  Ag4      1.0000 0.67479  0.55774  0.27382  Biso   1.000  Ag
  Ag5      1.0000 0.72925  0.73215  0.29047  Biso   1.000  Ag
  Ag6      1.0000 0.87110  0.71398  0.30986  Biso   1.000  Ag
  Ag7      1.0000 0.80061  0.59139  0.34450  Biso   1.000  Ag
  Ag8      1.0000 0.65067  0.64009  0.34684  Biso   1.000  Ag
  Pd1      1.0000 0.75550  0.49710  0.20383  Biso   1.000  Pd
  Pd2      1.0000 0.83075  0.77110  0.22625  Biso   1.000  Pd
  Pd3      1.0000 0.95410  0.57041  0.31228  Biso   1.000  Pd
  Pd4      1.0000 0.68492  0.47676  0.34935  Biso   1.000  Pd
  Pd5      1.0000 0.57106  0.68222  0.27109  Biso   1.000  Pd
  Pd6      1.0000 0.76551  0.74581  0.37538  Biso   1.000  Pd
  S1       1.0000 0.69517  0.55910  0.21963  Biso   1.000  S
  S2       1.0000 0.82294  0.51506  0.23571  Biso   1.000  S
  S3       1.0000 0.80555  0.68532  0.21844  Biso   1.000  S
  S4       1.0000 0.81762  0.77051  0.27501  Biso   1.000  S
  S5       1.0000 0.91706  0.63588  0.28407  Biso   1.000  S
  S6       1.0000 0.87531  0.53189  0.32561  Biso   1.000  S
  S7       1.0000 0.71530  0.48088  0.30295  Biso   1.000  S
  S8       1.0000 0.70981  0.56162  0.36131  Biso   1.000  S
  S9       1.0000 0.60550  0.61529  0.29927  Biso   1.000  S
  S10      1.0000 0.65158  0.71463  0.25581  Biso   1.000  S
  S11      1.0000 0.69927  0.72883  0.34272  Biso   1.000  S
  S12      1.0000 0.82657  0.68658  0.35705  Biso   1.000  S
  O1       1.0000 0.60890  0.45140  0.14640  Biso   1.000  O
  O2       1.0000 0.58990  0.53440  0.13170  Biso   1.000  O
  O3       1.0000 0.88260  0.39130  0.16023  Biso   1.000  O
  O4       1.0000 0.93420  0.37290  0.19960  Biso   1.000  O
  O5       1.0000 0.87100  0.75650  0.12900  Biso   1.000  O
  O6       1.0000 0.79460  0.71370  0.11740  Biso   1.000  O
  O7       1.0000 0.85510  0.95490  0.24140  Biso   1.000  O
  O8       1.0000 0.90010  0.94060  0.28440  Biso   1.000  O
  O9       1.0000 0.11070  0.64970  0.27450  Biso   1.000  O
  O10      1.0000 0.07610  0.73250  0.27710  Biso   1.000  O
  O11      1.0000 0.02260  0.42980  0.36901  Biso   1.000  O
  O12      1.0000 0.96150  0.36990  0.35350  Biso   1.000  O
  O13      1.0000 0.63460  0.30280  0.31700  Biso   1.000  O
  O14      1.0000 0.71020  0.29140  0.29290  Biso   1.000  O
  O15      1.0000 0.66750  0.46870  0.45120  Biso   1.000  O
  O16      1.0000 0.62430  0.55620  0.45520  Biso   1.000  O
  O17      1.0000 0.41430  0.58680  0.29770  Biso   1.000  O
  O18      1.0000 0.43510  0.58550  0.34540  Biso   1.000  O
  O19      1.0000 0.50920  0.82180  0.20855  Biso   1.000  O
  O20      1.0000 0.57520  0.81010  0.17729  Biso   1.000  O
  O21      1.0000 0.64660  0.88610  0.39890  Biso   1.000  O
  O22      1.0000 0.57130  0.83930  0.39380  Biso   1.000  O
  O23      1.0000 0.90500  0.76530  0.44340  Biso   1.000  O
  O24      1.0000 0.96860  0.75760  0.41460  Biso   1.000  O
  N1       1.0000 0.69940  0.48170  0.17220  Biso   1.000  N
  H1       1.0000 0.71710  0.47480  0.15510  Biso   1.000  H
  H2       1.0000 0.68100  0.45110  0.17730  Biso   1.000  H
  N2       1.0000 0.80510  0.43510  0.18940  Biso   1.000  N
  H3       1.0000 0.78510  0.40410  0.18900  Biso   1.000  H
  H4       1.0000 0.81490  0.44260  0.17060  Biso   1.000  H
  N3       1.0000 0.83290  0.77800  0.18220  Biso   1.000  N
  H5       1.0000 0.81530  0.80890  0.17690  Biso   1.000  H
  H6       1.0000 0.86810  0.78130  0.17640  Biso   1.000  H
  N4       1.0000 0.86070  0.84720  0.23160  Biso   1.000  N
  H7       1.0000 0.89260  0.84970  0.22170  Biso   1.000  H
  H8       1.0000 0.83720  0.87120  0.22330  Biso   1.000  H
  N5       1.0000 0.02650  0.60540  0.30360  Biso   1.000  N
  H9       1.0000 0.04490  0.60960  0.32080  Biso   1.000  H
  H10      1.0000 0.04620  0.58270  0.29200  Biso   1.000  H
  N6       1.0000 0.98900  0.50830  0.33590  Biso   1.000  N
  H11      1.0000 0.02090  0.49860  0.32740  Biso   1.000  H
  H12      1.0000 0.99620  0.51990  0.35450  Biso   1.000  H
  N7       1.0000 0.66890  0.39700  0.34140  Biso   1.000  N
  H13      1.0000 0.67910  0.37710  0.35730  Biso   1.000  H
  H14      1.0000 0.63250  0.39270  0.33900  Biso   1.000  H
  N8       1.0000 0.65440  0.47180  0.39080  Biso   1.000  N
  H15      1.0000 0.61900  0.46150  0.38980  Biso   1.000  H
  H16      1.0000 0.67270  0.44570  0.40090  Biso   1.000  H
  N9       1.0000 0.49790  0.65810  0.28620  Biso   1.000  N
  H17      1.0000 0.47900  0.68790  0.29190  Biso   1.000  H
  H18      1.0000 0.47940  0.64240  0.27120  Biso   1.000  H
  N10      1.0000 0.53890  0.73650  0.24360  Biso   1.000  N
  H19      1.0000 0.50910  0.72160  0.23510  Biso   1.000  H
  H20      1.0000 0.52770  0.76570  0.25430  Biso   1.000  H
  N11      1.0000 0.71140  0.80040  0.39370  Biso   1.000  N
  H21      1.0000 0.71180  0.79610  0.41360  Biso   1.000  H
  H22      1.0000 0.72320  0.83460  0.38980  Biso   1.000  H
  N12      1.0000 0.82470  0.76580  0.40420  Biso   1.000  N
  H23      1.0000 0.82550  0.80250  0.40610  Biso   1.000  H
  H24      1.0000 0.81610  0.75160  0.42210  Biso   1.000  H
  C1       1.0000 0.63730  0.54140  0.19690  Biso   1.000  C
  C2       1.0000 0.66140  0.52340  0.16710  Biso   1.000  C
  H25      1.0000 0.67940  0.55450  0.15750  Biso   1.000  H
  C3       1.0000 0.61470  0.50010  0.14630  Biso   1.000  C
  C4       1.0000 0.60580  0.49930  0.20980  Biso   1.000  C
  H26      1.0000 0.62810  0.46730  0.21230  Biso   1.000  H
  H27      1.0000 0.57540  0.49090  0.19710  Biso   1.000  H
  H28      1.0000 0.59250  0.51120  0.22880  Biso   1.000  H
  C5       1.0000 0.60260  0.59290  0.19230  Biso   1.000  C
  H29      1.0000 0.62470  0.62090  0.18340  Biso   1.000  H
  H30      1.0000 0.58910  0.60550  0.21100  Biso   1.000  H
  H31      1.0000 0.57240  0.58450  0.17950  Biso   1.000  H
  C6       1.0000 0.87840  0.47880  0.21790  Biso   1.000  C
  C7       1.0000 0.85460  0.42440  0.20630  Biso   1.000  C
  H32      1.0000 0.84520  0.40130  0.22330  Biso   1.000  H
  C8       1.0000 0.89310  0.39260  0.18620  Biso   1.000  C
  C9       1.0000 0.90030  0.51070  0.19260  Biso   1.000  C
  H33      1.0000 0.87210  0.51580  0.17810  Biso   1.000  H
  H34      1.0000 0.93040  0.49120  0.18390  Biso   1.000  H
  H35      1.0000 0.91270  0.54570  0.19960  Biso   1.000  H
  C10      1.0000 0.92110  0.47050  0.24220  Biso   1.000  C
  H36      1.0000 0.90530  0.45010  0.25820  Biso   1.000  H
  H37      1.0000 0.93320  0.50550  0.24940  Biso   1.000  H
  H38      1.0000 0.95180  0.45070  0.23430  Biso   1.000  H
  C11      1.0000 0.82400  0.67760  0.18050  Biso   1.000  C
  C12      1.0000 0.80820  0.73160  0.16630  Biso   1.000  C
  H39      1.0000 0.76820  0.73550  0.16630  Biso   1.000  H
  C13      1.0000 0.83010  0.73570  0.13420  Biso   1.000  C
  C14      1.0000 0.88480  0.67010  0.17810  Biso   1.000  C
  H40      1.0000 0.90300  0.70090  0.18690  Biso   1.000  H
  H41      1.0000 0.89490  0.66760  0.15750  Biso   1.000  H
  H42      1.0000 0.89540  0.63720  0.18810  Biso   1.000  H
  C15      1.0000 0.79500  0.63230  0.16800  Biso   1.000  C
  H43      1.0000 0.75630  0.63860  0.16970  Biso   1.000  H
  H44      1.0000 0.80450  0.59940  0.17840  Biso   1.000  H
  H45      1.0000 0.80470  0.62860  0.14750  Biso   1.000  H
  C16      1.0000 0.82130  0.84410  0.28040  Biso   1.000  C
  C17      1.0000 0.86980  0.86310  0.26180  Biso   1.000  C
  H46      1.0000 0.90410  0.84750  0.26930  Biso   1.000  H
  C18      1.0000 0.87420  0.92840  0.25940  Biso   1.000  C
  C19      1.0000 0.77250  0.87340  0.27250  Biso   1.000  C
  H47      1.0000 0.74220  0.85970  0.28390  Biso   1.000  H
  H48      1.0000 0.76520  0.86860  0.25180  Biso   1.000  H
  H49      1.0000 0.77740  0.91170  0.27670  Biso   1.000  H
  C20      1.0000 0.83050  0.84950  0.31460  Biso   1.000  C
  H50      1.0000 0.86300  0.82990  0.32010  Biso   1.000  H
  H51      1.0000 0.79960  0.83460  0.32490  Biso   1.000  H
  H52      1.0000 0.83470  0.88750  0.31970  Biso   1.000  H
  C21      1.0000 0.97780  0.65930  0.26490  Biso   1.000  C
  C22      1.0000 0.02190  0.65980  0.28870  Biso   1.000  C
  H53      1.0000 0.00800  0.68460  0.30400  Biso   1.000  H
  C23      1.0000 0.07410  0.68330  0.27950  Biso   1.000  C
  C24      1.0000 0.99260  0.62130  0.24180  Biso   1.000  C
  H54      1.0000 0.99980  0.58600  0.25030  Biso   1.000  H
  H55      1.0000 0.02490  0.63420  0.23180  Biso   1.000  H
  H56      1.0000 0.96310  0.61840  0.22780  Biso   1.000  H
  C25      1.0000 0.96700  0.71290  0.25150  Biso   1.000  C
  H57      1.0000 0.95770  0.73870  0.26670  Biso   1.000  H
  H58      1.0000 0.93700  0.70980  0.23780  Biso   1.000  H
  H59      1.0000 0.99900  0.72530  0.24120  Biso   1.000  H
  C26      1.0000 0.89900  0.47590  0.34960  Biso   1.000  C
  C27      1.0000 0.95280  0.46120  0.33720  Biso   1.000  C
  H60      1.0000 0.94700  0.44840  0.31680  Biso   1.000  H
  C28      1.0000 0.98160  0.41550  0.35430  Biso   1.000  C
  C29      1.0000 0.90290  0.49640  0.38010  Biso   1.000  C
  H61      1.0000 0.93010  0.52470  0.38100  Biso   1.000  H
  H62      1.0000 0.91320  0.46690  0.39300  Biso   1.000  H
  H63      1.0000 0.86810  0.51090  0.38610  Biso   1.000  H
  C30      1.0000 0.85740  0.43140  0.34680  Biso   1.000  C
  H64      1.0000 0.85580  0.41930  0.32660  Biso   1.000  H
  H65      1.0000 0.82220  0.44510  0.35270  Biso   1.000  H
  H66      1.0000 0.86750  0.40130  0.35930  Biso   1.000  H
  C31      1.0000 0.69190  0.41440  0.29010  Biso   1.000  C
  C32      1.0000 0.69650  0.37640  0.31560  Biso   1.000  C
  H67      1.0000 0.73550  0.37480  0.32070  Biso   1.000  H
  C33      1.0000 0.67980  0.31850  0.30770  Biso   1.000  C
  C34      1.0000 0.63360  0.41850  0.28170  Biso   1.000  C
  H68      1.0000 0.62970  0.44360  0.26540  Biso   1.000  H
  H69      1.0000 0.61270  0.43140  0.29830  Biso   1.000  H
  H70      1.0000 0.62040  0.38300  0.27580  Biso   1.000  H
  C35      1.0000 0.72550  0.39910  0.26470  Biso   1.000  C
  H71      1.0000 0.76310  0.39610  0.27070  Biso   1.000  H
  H72      1.0000 0.72240  0.42660  0.24950  Biso   1.000  H
  H73      1.0000 0.71330  0.36450  0.25700  Biso   1.000  H
  C36      1.0000 0.71060  0.55390  0.40150  Biso   1.000  C
  C37      1.0000 0.65830  0.52530  0.40770  Biso   1.000  C
  H74      1.0000 0.62870  0.54890  0.40050  Biso   1.000  H
  C38      1.0000 0.64840  0.51600  0.44110  Biso   1.000  C
  C39      1.0000 0.76070  0.52300  0.41020  Biso   1.000  C
  H75      1.0000 0.76000  0.48740  0.40120  Biso   1.000  H
  H76      1.0000 0.76180  0.51920  0.43140  Biso   1.000  H
  H77      1.0000 0.79260  0.54250  0.40360  Biso   1.000  H
  C40      1.0000 0.71190  0.61060  0.41510  Biso   1.000  C
  H78      1.0000 0.68040  0.63090  0.40860  Biso   1.000  H
  H79      1.0000 0.74460  0.62920  0.40890  Biso   1.000  H
  H80      1.0000 0.71140  0.60760  0.43630  Biso   1.000  H
  C41      1.0000 0.54140  0.57760  0.30580  Biso   1.000  C
  C42      1.0000 0.49970  0.61950  0.31110  Biso   1.000  C
  H81      1.0000 0.51150  0.64020  0.32850  Biso   1.000  H
  C43      1.0000 0.44690  0.59700  0.31790  Biso   1.000  C
  C44      1.0000 0.52920  0.54460  0.27910  Biso   1.000  C
  H82      1.0000 0.55740  0.51760  0.27640  Biso   1.000  H
  H83      1.0000 0.52770  0.56810  0.26200  Biso   1.000  H
  H84      1.0000 0.49450  0.52660  0.28150  Biso   1.000  H
  C45      1.0000 0.55260  0.54300  0.33140  Biso   1.000  C
  H85      1.0000 0.58060  0.51700  0.32640  Biso   1.000  H
  H86      1.0000 0.51990  0.52400  0.33700  Biso   1.000  H
  H87      1.0000 0.56480  0.56540  0.34760  Biso   1.000  H
  C46      1.0000 0.63000  0.77430  0.23350  Biso   1.000  C
  C47      1.0000 0.57590  0.75580  0.22000  Biso   1.000  C
  H88      1.0000 0.58370  0.72440  0.20720  Biso   1.000  H
  C48      1.0000 0.55040  0.80030  0.20060  Biso   1.000  C
  C49      1.0000 0.62010  0.82350  0.25290  Biso   1.000  C
  H89      1.0000 0.59150  0.81540  0.26680  Biso   1.000  H
  H90      1.0000 0.60950  0.85400  0.24080  Biso   1.000  H
  H91      1.0000 0.65320  0.83230  0.26340  Biso   1.000  H
  C50      1.0000 0.67320  0.78370  0.21060  Biso   1.000  C
  H92      1.0000 0.67760  0.75130  0.19880  Biso   1.000  H
  H93      1.0000 0.70730  0.79230  0.22020  Biso   1.000  H
  H94      1.0000 0.66260  0.81370  0.19810  Biso   1.000  H
  C51      1.0000 0.65520  0.78760  0.35020  Biso   1.000  C
  C52      1.0000 0.65490  0.79540  0.38340  Biso   1.000  C
  H95      1.0000 0.63830  0.76320  0.39270  Biso   1.000  H
  C53      1.0000 0.62350  0.84630  0.39300  Biso   1.000  C
  C54      1.0000 0.67520  0.83670  0.33510  Biso   1.000  C
  H96      1.0000 0.65010  0.86630  0.33830  Biso   1.000  H
  H97      1.0000 0.67820  0.82950  0.31420  Biso   1.000  H
  H98      1.0000 0.71050  0.84640  0.34290  Biso   1.000  H
  C55      1.0000 0.60130  0.77270  0.33590  Biso   1.000  C
  H99      1.0000 0.57460  0.80030  0.34040  Biso   1.000  H
  H100     1.0000 0.58900  0.73800  0.34350  Biso   1.000  H
  H101     1.0000 0.60610  0.77020  0.31480  Biso   1.000  H
  C56      1.0000 0.87810  0.68930  0.38710  Biso   1.000  C
  C57      1.0000 0.88200  0.74570  0.39540  Biso   1.000  C
  H102     1.0000 0.89330  0.76640  0.37780  Biso   1.000  H
  C58      1.0000 0.92280  0.75590  0.41890  Biso   1.000  C
  C59      1.0000 0.86230  0.65210  0.41050  Biso   1.000  C
  H103     1.0000 0.86130  0.61540  0.40290  Biso   1.000  H
  H104     1.0000 0.82660  0.66190  0.41770  Biso   1.000  H
  H105     1.0000 0.88830  0.65420  0.42640  Biso   1.000  H
  C60      1.0000 0.93060  0.67000  0.37380  Biso   1.000  C
  H106     1.0000 0.92680  0.63240  0.36790  Biso   1.000  H
  H107     1.0000 0.95940  0.67310  0.38820  Biso   1.000  H
  H108     1.0000 0.93920  0.69190  0.35680  Biso   1.000  H
  La1      1.0000 0.92207  0.37786  0.11182  Biso   1.000  La
  La2      1.0000 0.89490  0.04780  0.27360  Biso   1.000  La
  La3      1.0000 0.84260  0.10170  0.30430  Biso   1.000  La
  O25      1.0000 0.91680  0.43020  0.06100  Biso   1.000  O
  O26      1.0000 0.84070  0.41030  0.08350  Biso   1.000  O
  C61      1.0000 0.87030  0.42990  0.05980  Biso   1.000  C
  C62      1.0000 0.83350  0.45400  0.03400  Biso   1.000  C
  H109     1.0000 0.79550  0.44900  0.03880  Biso   1.000  H
  H110     1.0000 0.84170  0.43540  0.01580  Biso   1.000  H
  H111     1.0000 0.84100  0.49240  0.03170  Biso   1.000  H
  O27      1.0000 0.84670  0.00280  0.32830  Biso   1.000  O
  O28      1.0000 0.79420  0.05290  0.25640  Biso   1.000  O
  O29      1.0000 0.84830  0.18770  0.27610  Biso   1.000  O
  Ag9      1.0000 0.28792  0.34396  0.72785  Biso   1.000  Ag
  Ag10     1.0000 0.15415  0.38985  0.74873  Biso   1.000  Ag
  Ag11     1.0000 0.18980  0.49962  0.78849  Biso   1.000  Ag
  Ag12     1.0000 0.32521  0.44226  0.77382  Biso   1.000  Ag
  Ag13     1.0000 0.27075  0.26785  0.79047  Biso   1.000  Ag
  Ag14     1.0000 0.12890  0.28602  0.80986  Biso   1.000  Ag
  Ag15     1.0000 0.19939  0.40861  0.84450  Biso   1.000  Ag
  Ag16     1.0000 0.34933  0.35991  0.84684  Biso   1.000  Ag
  Pd7      1.0000 0.24450  0.50290  0.70383  Biso   1.000  Pd
  Pd8      1.0000 0.16925  0.22890  0.72625  Biso   1.000  Pd
  Pd9      1.0000 0.04590  0.42959  0.81228  Biso   1.000  Pd
  Pd10     1.0000 0.31508  0.52324  0.84935  Biso   1.000  Pd
  Pd11     1.0000 0.42894  0.31778  0.77109  Biso   1.000  Pd
  Pd12     1.0000 0.23449  0.25419  0.87538  Biso   1.000  Pd
  S13      1.0000 0.30483  0.44090  0.71963  Biso   1.000  S
  S14      1.0000 0.17706  0.48494  0.73571  Biso   1.000  S
  S15      1.0000 0.19445  0.31468  0.71844  Biso   1.000  S
  S16      1.0000 0.18238  0.22949  0.77501  Biso   1.000  S
  S17      1.0000 0.08294  0.36412  0.78407  Biso   1.000  S
  S18      1.0000 0.12469  0.46811  0.82561  Biso   1.000  S
  S19      1.0000 0.28470  0.51912  0.80295  Biso   1.000  S
  S20      1.0000 0.29019  0.43838  0.86131  Biso   1.000  S
  S21      1.0000 0.39450  0.38471  0.79927  Biso   1.000  S
  S22      1.0000 0.34842  0.28537  0.75581  Biso   1.000  S
  S23      1.0000 0.30073  0.27117  0.84272  Biso   1.000  S
  S24      1.0000 0.17343  0.31342  0.85705  Biso   1.000  S
  O30      1.0000 0.39110  0.54860  0.64640  Biso   1.000  O
  O31      1.0000 0.41010  0.46560  0.63170  Biso   1.000  O
  O32      1.0000 0.11740  0.60870  0.66023  Biso   1.000  O
  O33      1.0000 0.06580  0.62710  0.69960  Biso   1.000  O
  O34      1.0000 0.12900  0.24350  0.62900  Biso   1.000  O
  O35      1.0000 0.20540  0.28630  0.61740  Biso   1.000  O
  O36      1.0000 0.14490  0.04510  0.74140  Biso   1.000  O
  O37      1.0000 0.09990  0.05940  0.78440  Biso   1.000  O
  O38      1.0000 0.88930  0.35030  0.77450  Biso   1.000  O
  O39      1.0000 0.92390  0.26750  0.77710  Biso   1.000  O
  O40      1.0000 0.97740  0.57020  0.86901  Biso   1.000  O
  O41      1.0000 0.03850  0.63010  0.85350  Biso   1.000  O
  O42      1.0000 0.36540  0.69720  0.81700  Biso   1.000  O
  O43      1.0000 0.28980  0.70860  0.79290  Biso   1.000  O
  O44      1.0000 0.33250  0.53130  0.95120  Biso   1.000  O
  O45      1.0000 0.37570  0.44380  0.95520  Biso   1.000  O
  O46      1.0000 0.58570  0.41320  0.79770  Biso   1.000  O
  O47      1.0000 0.56490  0.41450  0.84540  Biso   1.000  O
  O48      1.0000 0.49080  0.17820  0.70855  Biso   1.000  O
  O49      1.0000 0.42480  0.18990  0.67729  Biso   1.000  O
  O50      1.0000 0.35340  0.11390  0.89890  Biso   1.000  O
  O51      1.0000 0.42870  0.16070  0.89380  Biso   1.000  O
  O52      1.0000 0.09500  0.23470  0.94340  Biso   1.000  O
  O53      1.0000 0.03140  0.24240  0.91460  Biso   1.000  O
  N13      1.0000 0.30060  0.51830  0.67220  Biso   1.000  N
  H112     1.0000 0.28290  0.52520  0.65510  Biso   1.000  H
  H113     1.0000 0.31900  0.54890  0.67730  Biso   1.000  H
  N14      1.0000 0.19490  0.56490  0.68940  Biso   1.000  N
  H114     1.0000 0.21490  0.59590  0.68900  Biso   1.000  H
  H115     1.0000 0.18510  0.55740  0.67060  Biso   1.000  H
  N15      1.0000 0.16710  0.22200  0.68220  Biso   1.000  N
  H116     1.0000 0.18470  0.19110  0.67690  Biso   1.000  H
  H117     1.0000 0.13190  0.21870  0.67640  Biso   1.000  H
  N16      1.0000 0.13930  0.15280  0.73160  Biso   1.000  N
  H118     1.0000 0.10740  0.15030  0.72170  Biso   1.000  H
  H119     1.0000 0.16280  0.12880  0.72330  Biso   1.000  H
  N17      1.0000 0.97350  0.39460  0.80360  Biso   1.000  N
  H120     1.0000 0.95510  0.39040  0.82080  Biso   1.000  H
  H121     1.0000 0.95380  0.41730  0.79200  Biso   1.000  H
  N18      1.0000 0.01100  0.49170  0.83590  Biso   1.000  N
  H122     1.0000 0.97910  0.50140  0.82740  Biso   1.000  H
  H123     1.0000 0.00380  0.48010  0.85450  Biso   1.000  H
  N19      1.0000 0.33110  0.60300  0.84140  Biso   1.000  N
  H124     1.0000 0.32090  0.62290  0.85730  Biso   1.000  H
  H125     1.0000 0.36750  0.60730  0.83900  Biso   1.000  H
  N20      1.0000 0.34560  0.52820  0.89080  Biso   1.000  N
  H126     1.0000 0.38100  0.53850  0.88980  Biso   1.000  H
  H127     1.0000 0.32730  0.55430  0.90090  Biso   1.000  H
  N21      1.0000 0.50210  0.34190  0.78620  Biso   1.000  N
  H128     1.0000 0.52100  0.31210  0.79190  Biso   1.000  H
  H129     1.0000 0.52060  0.35760  0.77120  Biso   1.000  H
  N22      1.0000 0.46110  0.26350  0.74360  Biso   1.000  N
  H130     1.0000 0.49090  0.27840  0.73510  Biso   1.000  H
  H131     1.0000 0.47230  0.23430  0.75430  Biso   1.000  H
  N23      1.0000 0.28860  0.19960  0.89370  Biso   1.000  N
  H132     1.0000 0.28820  0.20390  0.91360  Biso   1.000  H
  H133     1.0000 0.27680  0.16540  0.88980  Biso   1.000  H
  N24      1.0000 0.17530  0.23420  0.90420  Biso   1.000  N
  H134     1.0000 0.17450  0.19750  0.90610  Biso   1.000  H
  H135     1.0000 0.18390  0.24840  0.92210  Biso   1.000  H
  C63      1.0000 0.36270  0.45860  0.69690  Biso   1.000  C
  C64      1.0000 0.33860  0.47660  0.66710  Biso   1.000  C
  H136     1.0000 0.32060  0.44550  0.65750  Biso   1.000  H
  C65      1.0000 0.38530  0.49990  0.64630  Biso   1.000  C
  C66      1.0000 0.39420  0.50070  0.70980  Biso   1.000  C
  H137     1.0000 0.37190  0.53270  0.71230  Biso   1.000  H
  H138     1.0000 0.42460  0.50910  0.69710  Biso   1.000  H
  H139     1.0000 0.40750  0.48880  0.72880  Biso   1.000  H
  C67      1.0000 0.39740  0.40710  0.69230  Biso   1.000  C
  H140     1.0000 0.37530  0.37910  0.68340  Biso   1.000  H
  H141     1.0000 0.41090  0.39450  0.71100  Biso   1.000  H
  H142     1.0000 0.42760  0.41550  0.67950  Biso   1.000  H
  C68      1.0000 0.12160  0.52120  0.71790  Biso   1.000  C
  C69      1.0000 0.14540  0.57560  0.70630  Biso   1.000  C
  H143     1.0000 0.15480  0.59870  0.72330  Biso   1.000  H
  C70      1.0000 0.10690  0.60740  0.68620  Biso   1.000  C
  C71      1.0000 0.09970  0.48930  0.69260  Biso   1.000  C
  H144     1.0000 0.12790  0.48420  0.67810  Biso   1.000  H
  H145     1.0000 0.06960  0.50880  0.68390  Biso   1.000  H
  H146     1.0000 0.08730  0.45430  0.69960  Biso   1.000  H
  C72      1.0000 0.07890  0.52950  0.74220  Biso   1.000  C
  H147     1.0000 0.09470  0.54990  0.75820  Biso   1.000  H
  H148     1.0000 0.06680  0.49450  0.74940  Biso   1.000  H
  H149     1.0000 0.04820  0.54930  0.73430  Biso   1.000  H
  C73      1.0000 0.17600  0.32240  0.68050  Biso   1.000  C
  C74      1.0000 0.19180  0.26840  0.66630  Biso   1.000  C
  H150     1.0000 0.23180  0.26450  0.66630  Biso   1.000  H
  C75      1.0000 0.16990  0.26430  0.63420  Biso   1.000  C
  C76      1.0000 0.11520  0.32990  0.67810  Biso   1.000  C
  H151     1.0000 0.09700  0.29910  0.68690  Biso   1.000  H
  H152     1.0000 0.10510  0.33240  0.65750  Biso   1.000  H
  H153     1.0000 0.10460  0.36280  0.68810  Biso   1.000  H
  C77      1.0000 0.20500  0.36770  0.66800  Biso   1.000  C
  H154     1.0000 0.24370  0.36140  0.66970  Biso   1.000  H
  H155     1.0000 0.19550  0.40060  0.67840  Biso   1.000  H
  H156     1.0000 0.19530  0.37140  0.64750  Biso   1.000  H
  C78      1.0000 0.17870  0.15590  0.78040  Biso   1.000  C
  C79      1.0000 0.13020  0.13690  0.76180  Biso   1.000  C
  H157     1.0000 0.09590  0.15250  0.76930  Biso   1.000  H
  C80      1.0000 0.12580  0.07160  0.75940  Biso   1.000  C
  C81      1.0000 0.22750  0.12660  0.77250  Biso   1.000  C
  H158     1.0000 0.25780  0.14030  0.78390  Biso   1.000  H
  H159     1.0000 0.23480  0.13140  0.75180  Biso   1.000  H
  H160     1.0000 0.22260  0.08830  0.77670  Biso   1.000  H
  C82      1.0000 0.16950  0.15050  0.81460  Biso   1.000  C
  H161     1.0000 0.13700  0.17010  0.82010  Biso   1.000  H
  H162     1.0000 0.20040  0.16540  0.82490  Biso   1.000  H
  H163     1.0000 0.16530  0.11250  0.81970  Biso   1.000  H
  C83      1.0000 0.02220  0.34070  0.76490  Biso   1.000  C
  C84      1.0000 0.97810  0.34020  0.78870  Biso   1.000  C
  H164     1.0000 0.99200  0.31540  0.80400  Biso   1.000  H
  C85      1.0000 0.92590  0.31670  0.77950  Biso   1.000  C
  C86      1.0000 0.00740  0.37870  0.74180  Biso   1.000  C
  H165     1.0000 0.00020  0.41400  0.75030  Biso   1.000  H
  H166     1.0000 0.97510  0.36580  0.73180  Biso   1.000  H
  H167     1.0000 0.03690  0.38160  0.72780  Biso   1.000  H
  C87      1.0000 0.03300  0.28710  0.75150  Biso   1.000  C
  H168     1.0000 0.04230  0.26130  0.76670  Biso   1.000  H
  H169     1.0000 0.06300  0.29020  0.73780  Biso   1.000  H
  H170     1.0000 0.00100  0.27470  0.74120  Biso   1.000  H
  C88      1.0000 0.10100  0.52410  0.84960  Biso   1.000  C
  C89      1.0000 0.04720  0.53880  0.83720  Biso   1.000  C
  H171     1.0000 0.05300  0.55160  0.81680  Biso   1.000  H
  C90      1.0000 0.01840  0.58450  0.85430  Biso   1.000  C
  C91      1.0000 0.09710  0.50360  0.88010  Biso   1.000  C
  H172     1.0000 0.06990  0.47530  0.88100  Biso   1.000  H
  H173     1.0000 0.08680  0.53310  0.89300  Biso   1.000  H
  H174     1.0000 0.13190  0.48910  0.88610  Biso   1.000  H
  C92      1.0000 0.14260  0.56860  0.84680  Biso   1.000  C
  H175     1.0000 0.14420  0.58070  0.82660  Biso   1.000  H
  H176     1.0000 0.17780  0.55490  0.85270  Biso   1.000  H
  H177     1.0000 0.13250  0.59870  0.85930  Biso   1.000  H
  C93      1.0000 0.30810  0.58560  0.79010  Biso   1.000  C
  C94      1.0000 0.30350  0.62360  0.81560  Biso   1.000  C
  H178     1.0000 0.26450  0.62520  0.82070  Biso   1.000  H
  C95      1.0000 0.32020  0.68150  0.80770  Biso   1.000  C
  C96      1.0000 0.36640  0.58150  0.78170  Biso   1.000  C
  H179     1.0000 0.37030  0.55640  0.76540  Biso   1.000  H
  H180     1.0000 0.38730  0.56860  0.79830  Biso   1.000  H
  H181     1.0000 0.37960  0.61700  0.77580  Biso   1.000  H
  C97      1.0000 0.27450  0.60090  0.76470  Biso   1.000  C
  H182     1.0000 0.23690  0.60390  0.77070  Biso   1.000  H
  H183     1.0000 0.27760  0.57340  0.74950  Biso   1.000  H
  H184     1.0000 0.28670  0.63550  0.75700  Biso   1.000  H
  C98      1.0000 0.28940  0.44610  0.90150  Biso   1.000  C
  C99      1.0000 0.34170  0.47470  0.90770  Biso   1.000  C
  H185     1.0000 0.37130  0.45110  0.90050  Biso   1.000  H
  C100     1.0000 0.35160  0.48400  0.94110  Biso   1.000  C
  C101     1.0000 0.23930  0.47700  0.91020  Biso   1.000  C
  H186     1.0000 0.24000  0.51260  0.90120  Biso   1.000  H
  H187     1.0000 0.23820  0.48080  0.93140  Biso   1.000  H
  H188     1.0000 0.20740  0.45750  0.90360  Biso   1.000  H
  C102     1.0000 0.28810  0.38940  0.91510  Biso   1.000  C
  H189     1.0000 0.31960  0.36910  0.90860  Biso   1.000  H
  H190     1.0000 0.25540  0.37080  0.90890  Biso   1.000  H
  H191     1.0000 0.28860  0.39240  0.93630  Biso   1.000  H
  C103     1.0000 0.45860  0.42240  0.80580  Biso   1.000  C
  C104     1.0000 0.50030  0.38050  0.81110  Biso   1.000  C
  H192     1.0000 0.48850  0.35980  0.82850  Biso   1.000  H
  C105     1.0000 0.55310  0.40300  0.81790  Biso   1.000  C
  C106     1.0000 0.47080  0.45540  0.77910  Biso   1.000  C
  H193     1.0000 0.44260  0.48240  0.77640  Biso   1.000  H
  H194     1.0000 0.47230  0.43190  0.76200  Biso   1.000  H
  H195     1.0000 0.50550  0.47340  0.78150  Biso   1.000  H
  C107     1.0000 0.44740  0.45700  0.83140  Biso   1.000  C
  H196     1.0000 0.41940  0.48300  0.82640  Biso   1.000  H
  H197     1.0000 0.48010  0.47600  0.83700  Biso   1.000  H
  H198     1.0000 0.43520  0.43460  0.84760  Biso   1.000  H
  C108     1.0000 0.37000  0.22570  0.73350  Biso   1.000  C
  C109     1.0000 0.42410  0.24420  0.72000  Biso   1.000  C
  H199     1.0000 0.41630  0.27560  0.70720  Biso   1.000  H
  C110     1.0000 0.44960  0.19970  0.70060  Biso   1.000  C
  C111     1.0000 0.37990  0.17650  0.75290  Biso   1.000  C
  H200     1.0000 0.40850  0.18460  0.76680  Biso   1.000  H
  H201     1.0000 0.39050  0.14600  0.74080  Biso   1.000  H
  H202     1.0000 0.34680  0.16770  0.76340  Biso   1.000  H
  C112     1.0000 0.32680  0.21630  0.71060  Biso   1.000  C
  H203     1.0000 0.32240  0.24870  0.69880  Biso   1.000  H
  H204     1.0000 0.29270  0.20770  0.72020  Biso   1.000  H
  H205     1.0000 0.33740  0.18630  0.69810  Biso   1.000  H
  C113     1.0000 0.34480  0.21240  0.85020  Biso   1.000  C
  C114     1.0000 0.34510  0.20460  0.88340  Biso   1.000  C
  H206     1.0000 0.36170  0.23680  0.89270  Biso   1.000  H
  C115     1.0000 0.37650  0.15370  0.89300  Biso   1.000  C
  C116     1.0000 0.32480  0.16330  0.83510  Biso   1.000  C
  H207     1.0000 0.34990  0.13370  0.83830  Biso   1.000  H
  H208     1.0000 0.32180  0.17050  0.81420  Biso   1.000  H
  H209     1.0000 0.28950  0.15360  0.84290  Biso   1.000  H
  C117     1.0000 0.39870  0.22730  0.83590  Biso   1.000  C
  H210     1.0000 0.42540  0.19970  0.84040  Biso   1.000  H
  H211     1.0000 0.41100  0.26200  0.84350  Biso   1.000  H
  H212     1.0000 0.39390  0.22980  0.81480  Biso   1.000  H
  C118     1.0000 0.12190  0.31070  0.88710  Biso   1.000  C
  C119     1.0000 0.11800  0.25430  0.89540  Biso   1.000  C
  H213     1.0000 0.10670  0.23360  0.87780  Biso   1.000  H
  C120     1.0000 0.07720  0.24410  0.91890  Biso   1.000  C
  C121     1.0000 0.13770  0.34790  0.91050  Biso   1.000  C
  H214     1.0000 0.13870  0.38460  0.90290  Biso   1.000  H
  H215     1.0000 0.17340  0.33810  0.91770  Biso   1.000  H
  H216     1.0000 0.11170  0.34580  0.92640  Biso   1.000  H
  C122     1.0000 0.06940  0.33000  0.87380  Biso   1.000  C
  H217     1.0000 0.07320  0.36760  0.86790  Biso   1.000  H
  H218     1.0000 0.04060  0.32690  0.88820  Biso   1.000  H
  H219     1.0000 0.06080  0.30810  0.85680  Biso   1.000  H
  La4      1.0000 0.07793  0.62214  0.61182  Biso   1.000  La
  La5      1.0000 0.10510  0.95220  0.77360  Biso   1.000  La
  La6      1.0000 0.15740  0.89830  0.80430  Biso   1.000  La
  O54      1.0000 0.08320  0.56980  0.56100  Biso   1.000  O
  O55      1.0000 0.15930  0.58970  0.58350  Biso   1.000  O
  C123     1.0000 0.12970  0.57010  0.55980  Biso   1.000  C
  C124     1.0000 0.16650  0.54600  0.53400  Biso   1.000  C
  H220     1.0000 0.20450  0.55100  0.53880  Biso   1.000  H
  H221     1.0000 0.15830  0.56460  0.51580  Biso   1.000  H
  H222     1.0000 0.15900  0.50760  0.53170  Biso   1.000  H
  O56      1.0000 0.15330  0.99720  0.82830  Biso   1.000  O
  O57      1.0000 0.20580  0.94710  0.75640  Biso   1.000  O
  O58      1.0000 0.15170  0.81230  0.77610  Biso   1.000  O
  Ag17     1.0000 0.84396  0.21208  0.47785  Biso   1.000  Ag
  Ag18     1.0000 0.88985  0.34585  0.49873  Biso   1.000  Ag
  Ag19     1.0000 0.99962  0.31020  0.53849  Biso   1.000  Ag
  Ag20     1.0000 0.94226  0.17479  0.52382  Biso   1.000  Ag
  Ag21     1.0000 0.76785  0.22925  0.54047  Biso   1.000  Ag
  Ag22     1.0000 0.78602  0.37110  0.55986  Biso   1.000  Ag
  Ag23     1.0000 0.90861  0.30061  0.59450  Biso   1.000  Ag
  Ag24     1.0000 0.85991  0.15067  0.59684  Biso   1.000  Ag
  Pd13     1.0000 0.00290  0.25550  0.45383  Biso   1.000  Pd
  Pd14     1.0000 0.72890  0.33075  0.47625  Biso   1.000  Pd
  Pd15     1.0000 0.92959  0.45410  0.56228  Biso   1.000  Pd
  Pd16     1.0000 0.02324  0.18492  0.59935  Biso   1.000  Pd
  Pd17     1.0000 0.81778  0.07106  0.52109  Biso   1.000  Pd
  Pd18     1.0000 0.75419  0.26551  0.62538  Biso   1.000  Pd
  S25      1.0000 0.94090  0.19517  0.46963  Biso   1.000  S
  S26      1.0000 0.98494  0.32294  0.48571  Biso   1.000  S
  S27      1.0000 0.81468  0.30555  0.46844  Biso   1.000  S
  S28      1.0000 0.72949  0.31762  0.52501  Biso   1.000  S
  S29      1.0000 0.86412  0.41706  0.53407  Biso   1.000  S
  S30      1.0000 0.96811  0.37531  0.57561  Biso   1.000  S
  S31      1.0000 0.01912  0.21530  0.55295  Biso   1.000  S
  S32      1.0000 0.93838  0.20981  0.61131  Biso   1.000  S
  S33      1.0000 0.88471  0.10550  0.54927  Biso   1.000  S
  S34      1.0000 0.78537  0.15158  0.50581  Biso   1.000  S
  S35      1.0000 0.77117  0.19927  0.59272  Biso   1.000  S
  S36      1.0000 0.81342  0.32657  0.60705  Biso   1.000  S
  O59      1.0000 0.04860  0.10890  0.39640  Biso   1.000  O
  O60      1.0000 0.96560  0.08990  0.38170  Biso   1.000  O
  O61      1.0000 0.10870  0.38260  0.41023  Biso   1.000  O
  O62      1.0000 0.12710  0.43420  0.44960  Biso   1.000  O
  O63      1.0000 0.74350  0.37100  0.37900  Biso   1.000  O
  O64      1.0000 0.78630  0.29460  0.36740  Biso   1.000  O
  O65      1.0000 0.54510  0.35510  0.49140  Biso   1.000  O
  O66      1.0000 0.55940  0.40010  0.53440  Biso   1.000  O
  O67      1.0000 0.85030  0.61070  0.52450  Biso   1.000  O
  O68      1.0000 0.76750  0.57610  0.52710  Biso   1.000  O
  O69      1.0000 0.07020  0.52260  0.61901  Biso   1.000  O
  O70      1.0000 0.13010  0.46150  0.60350  Biso   1.000  O
  O71      1.0000 0.19720  0.13460  0.56700  Biso   1.000  O
  O72      1.0000 0.20860  0.21020  0.54290  Biso   1.000  O
  O73      1.0000 0.03130  0.16750  0.70120  Biso   1.000  O
  O74      1.0000 0.94380  0.12430  0.70520  Biso   1.000  O
  O75      1.0000 0.91320  0.91430  0.54770  Biso   1.000  O
  O76      1.0000 0.91450  0.93510  0.59540  Biso   1.000  O
  O77      1.0000 0.67820  0.00920  0.45855  Biso   1.000  O
  O78      1.0000 0.68990  0.07520  0.42729  Biso   1.000  O
  O79      1.0000 0.61390  0.14660  0.64890  Biso   1.000  O
  O80      1.0000 0.66070  0.07130  0.64380  Biso   1.000  O
  O81      1.0000 0.73470  0.40500  0.69340  Biso   1.000  O
  O82      1.0000 0.74240  0.46860  0.66460  Biso   1.000  O
  N25      1.0000 0.01830  0.19940  0.42220  Biso   1.000  N
  H223     1.0000 0.02520  0.21710  0.40510  Biso   1.000  H
  H224     1.0000 0.04890  0.18100  0.42730  Biso   1.000  H
  N26      1.0000 0.06490  0.30510  0.43940  Biso   1.000  N
  H225     1.0000 0.09590  0.28510  0.43900  Biso   1.000  H
  H226     1.0000 0.05740  0.31490  0.42060  Biso   1.000  H
  N27      1.0000 0.72200  0.33290  0.43220  Biso   1.000  N
  H227     1.0000 0.69110  0.31530  0.42690  Biso   1.000  H
  H228     1.0000 0.71870  0.36810  0.42640  Biso   1.000  H
  N28      1.0000 0.65280  0.36070  0.48160  Biso   1.000  N
  H229     1.0000 0.65030  0.39260  0.47170  Biso   1.000  H
  H230     1.0000 0.62880  0.33720  0.47330  Biso   1.000  H
  N29      1.0000 0.89460  0.52650  0.55360  Biso   1.000  N
  H231     1.0000 0.89040  0.54490  0.57080  Biso   1.000  H
  H232     1.0000 0.91730  0.54620  0.54200  Biso   1.000  H
  N30      1.0000 0.99170  0.48900  0.58590  Biso   1.000  N
  H233     1.0000 0.00140  0.52090  0.57740  Biso   1.000  H
  H234     1.0000 0.98010  0.49620  0.60450  Biso   1.000  H
  N31      1.0000 0.10300  0.16890  0.59140  Biso   1.000  N
  H235     1.0000 0.12290  0.17910  0.60730  Biso   1.000  H
  H236     1.0000 0.10730  0.13250  0.58900  Biso   1.000  H
  N32      1.0000 0.02820  0.15440  0.64080  Biso   1.000  N
  H237     1.0000 0.03850  0.11900  0.63980  Biso   1.000  H
  H238     1.0000 0.05430  0.17270  0.65090  Biso   1.000  H
  N33      1.0000 0.84190  0.99790  0.53620  Biso   1.000  N
  H239     1.0000 0.81210  0.97900  0.54190  Biso   1.000  H
  H240     1.0000 0.85760  0.97940  0.52120  Biso   1.000  H
  N34      1.0000 0.76350  0.03890  0.49360  Biso   1.000  N
  H241     1.0000 0.77840  0.00910  0.48510  Biso   1.000  H
  H242     1.0000 0.73430  0.02770  0.50430  Biso   1.000  H
  N35      1.0000 0.69960  0.21140  0.64370  Biso   1.000  N
  H243     1.0000 0.70390  0.21180  0.66360  Biso   1.000  H
  H244     1.0000 0.66540  0.22320  0.63980  Biso   1.000  H
  N36      1.0000 0.73420  0.32470  0.65420  Biso   1.000  N
  H245     1.0000 0.69750  0.32550  0.65610  Biso   1.000  H
  H246     1.0000 0.74840  0.31610  0.67210  Biso   1.000  H
  C125     1.0000 0.95860  0.13730  0.44690  Biso   1.000  C
  C126     1.0000 0.97660  0.16140  0.41710  Biso   1.000  C
  H247     1.0000 0.94550  0.17940  0.40750  Biso   1.000  H
  C127     1.0000 0.99990  0.11470  0.39630  Biso   1.000  C
  C128     1.0000 0.00070  0.10580  0.45980  Biso   1.000  C
  H248     1.0000 0.03270  0.12810  0.46230  Biso   1.000  H
  H249     1.0000 0.00910  0.07540  0.44710  Biso   1.000  H
  H250     1.0000 0.98880  0.09250  0.47880  Biso   1.000  H
  C129     1.0000 0.90710  0.10260  0.44230  Biso   1.000  C
  H251     1.0000 0.87910  0.12470  0.43340  Biso   1.000  H
  H252     1.0000 0.89450  0.08910  0.46100  Biso   1.000  H
  H253     1.0000 0.91550  0.07240  0.42950  Biso   1.000  H
  C130     1.0000 0.02120  0.37840  0.46790  Biso   1.000  C
  C131     1.0000 0.07560  0.35460  0.45630  Biso   1.000  C
  H254     1.0000 0.09870  0.34520  0.47330  Biso   1.000  H
  C132     1.0000 0.10740  0.39310  0.43620  Biso   1.000  C
  C133     1.0000 0.98930  0.40030  0.44260  Biso   1.000  C
  H255     1.0000 0.98420  0.37210  0.42810  Biso   1.000  H
  H256     1.0000 0.00880  0.43040  0.43390  Biso   1.000  H
  H257     1.0000 0.95430  0.41270  0.44960  Biso   1.000  H
  C134     1.0000 0.02950  0.42110  0.49220  Biso   1.000  C
  H258     1.0000 0.04990  0.40530  0.50820  Biso   1.000  H
  H259     1.0000 0.99450  0.43320  0.49940  Biso   1.000  H
  H260     1.0000 0.04930  0.45180  0.48430  Biso   1.000  H
  C135     1.0000 0.82240  0.32400  0.43050  Biso   1.000  C
  C136     1.0000 0.76840  0.30820  0.41630  Biso   1.000  C
  H261     1.0000 0.76450  0.26820  0.41630  Biso   1.000  H
  C137     1.0000 0.76430  0.33010  0.38420  Biso   1.000  C
  C138     1.0000 0.82990  0.38480  0.42810  Biso   1.000  C
  H262     1.0000 0.79910  0.40300  0.43690  Biso   1.000  H
  H263     1.0000 0.83240  0.39490  0.40750  Biso   1.000  H
  H264     1.0000 0.86280  0.39540  0.43810  Biso   1.000  H
  C139     1.0000 0.86770  0.29500  0.41800  Biso   1.000  C
  H265     1.0000 0.86140  0.25630  0.41970  Biso   1.000  H
  H266     1.0000 0.90060  0.30450  0.42840  Biso   1.000  H
  H267     1.0000 0.87140  0.30470  0.39750  Biso   1.000  H
  C140     1.0000 0.65590  0.32130  0.53040  Biso   1.000  C
  C141     1.0000 0.63690  0.36980  0.51180  Biso   1.000  C
  H268     1.0000 0.65250  0.40410  0.51930  Biso   1.000  H
  C142     1.0000 0.57160  0.37420  0.50940  Biso   1.000  C
  C143     1.0000 0.62660  0.27250  0.52250  Biso   1.000  C
  H269     1.0000 0.64030  0.24220  0.53390  Biso   1.000  H
  H270     1.0000 0.63140  0.26520  0.50180  Biso   1.000  H
  H271     1.0000 0.58830  0.27740  0.52670  Biso   1.000  H
  C144     1.0000 0.65050  0.33050  0.56460  Biso   1.000  C
  H272     1.0000 0.67010  0.36300  0.57010  Biso   1.000  H
  H273     1.0000 0.66540  0.29960  0.57490  Biso   1.000  H
  H274     1.0000 0.61250  0.33470  0.56970  Biso   1.000  H
  C145     1.0000 0.84070  0.47780  0.51490  Biso   1.000  C
  C146     1.0000 0.84020  0.52190  0.53870  Biso   1.000  C
  H275     1.0000 0.81540  0.50800  0.55400  Biso   1.000  H
  C147     1.0000 0.81670  0.57410  0.52950  Biso   1.000  C
  C148     1.0000 0.87870  0.49260  0.49180  Biso   1.000  C
  H276     1.0000 0.91400  0.49980  0.50030  Biso   1.000  H
  H277     1.0000 0.86580  0.52490  0.48180  Biso   1.000  H
  H278     1.0000 0.88160  0.46310  0.47780  Biso   1.000  H
  C149     1.0000 0.78710  0.46700  0.50150  Biso   1.000  C
  H279     1.0000 0.76130  0.45770  0.51670  Biso   1.000  H
  H280     1.0000 0.79020  0.43700  0.48780  Biso   1.000  H
  H281     1.0000 0.77470  0.49900  0.49120  Biso   1.000  H
  C150     1.0000 0.02410  0.39900  0.59960  Biso   1.000  C
  C151     1.0000 0.03880  0.45280  0.58720  Biso   1.000  C
  H282     1.0000 0.05160  0.44700  0.56680  Biso   1.000  H
  C152     1.0000 0.08450  0.48160  0.60430  Biso   1.000  C
  C153     1.0000 0.00360  0.40290  0.63010  Biso   1.000  C
  H283     1.0000 0.97530  0.43010  0.63100  Biso   1.000  H
  H284     1.0000 0.03310  0.41320  0.64300  Biso   1.000  H
  H285     1.0000 0.98910  0.36810  0.63610  Biso   1.000  H
  C154     1.0000 0.06860  0.35740  0.59680  Biso   1.000  C
  H286     1.0000 0.08070  0.35580  0.57660  Biso   1.000  H
  H287     1.0000 0.05490  0.32220  0.60270  Biso   1.000  H
  H288     1.0000 0.09870  0.36750  0.60930  Biso   1.000  H
  C155     1.0000 0.08560  0.19190  0.54010  Biso   1.000  C
  C156     1.0000 0.12360  0.19650  0.56560  Biso   1.000  C
  H289     1.0000 0.12520  0.23550  0.57070  Biso   1.000  H
  C157     1.0000 0.18150  0.17980  0.55770  Biso   1.000  C
  C158     1.0000 0.08150  0.13360  0.53170  Biso   1.000  C
  H290     1.0000 0.05640  0.12970  0.51540  Biso   1.000  H
  H291     1.0000 0.06860  0.11270  0.54830  Biso   1.000  H
  H292     1.0000 0.11700  0.12040  0.52580  Biso   1.000  H
  C159     1.0000 0.10090  0.22550  0.51470  Biso   1.000  C
  H293     1.0000 0.10390  0.26310  0.52070  Biso   1.000  H
  H294     1.0000 0.07340  0.22240  0.49950  Biso   1.000  H
  H295     1.0000 0.13550  0.21330  0.50700  Biso   1.000  H
  C160     1.0000 0.94610  0.21060  0.65150  Biso   1.000  C
  C161     1.0000 0.97470  0.15830  0.65770  Biso   1.000  C
  H296     1.0000 0.95110  0.12870  0.65050  Biso   1.000  H
  C162     1.0000 0.98400  0.14840  0.69110  Biso   1.000  C
  C163     1.0000 0.97700  0.26070  0.66020  Biso   1.000  C
  H297     1.0000 0.01260  0.26000  0.65120  Biso   1.000  H
  H298     1.0000 0.98080  0.26180  0.68140  Biso   1.000  H
  H299     1.0000 0.95750  0.29260  0.65360  Biso   1.000  H
  C164     1.0000 0.88940  0.21190  0.66510  Biso   1.000  C
  H300     1.0000 0.86910  0.18040  0.65860  Biso   1.000  H
  H301     1.0000 0.87080  0.24460  0.65890  Biso   1.000  H
  H302     1.0000 0.89240  0.21140  0.68630  Biso   1.000  H
  C165     1.0000 0.92240  0.04140  0.55580  Biso   1.000  C
  C166     1.0000 0.88050  0.99970  0.56110  Biso   1.000  C
  H303     1.0000 0.85980  0.01150  0.57850  Biso   1.000  H
  C167     1.0000 0.90300  0.94690  0.56790  Biso   1.000  C
  C168     1.0000 0.95540  0.02920  0.52910  Biso   1.000  C
  H304     1.0000 0.98240  0.05740  0.52640  Biso   1.000  H
  H305     1.0000 0.93190  0.02770  0.51200  Biso   1.000  H
  H306     1.0000 0.97340  0.99450  0.53150  Biso   1.000  H
  C169     1.0000 0.95700  0.05260  0.58140  Biso   1.000  C
  H307     1.0000 0.98300  0.08060  0.57640  Biso   1.000  H
  H308     1.0000 0.97600  0.01990  0.58700  Biso   1.000  H
  H309     1.0000 0.93460  0.06480  0.59760  Biso   1.000  H
  C170     1.0000 0.72570  0.13000  0.48350  Biso   1.000  C
  C171     1.0000 0.74420  0.07590  0.47000  Biso   1.000  C
  H310     1.0000 0.77560  0.08370  0.45720  Biso   1.000  H
  C172     1.0000 0.69970  0.05040  0.45060  Biso   1.000  C
  C173     1.0000 0.67650  0.12010  0.50290  Biso   1.000  C
  H311     1.0000 0.68460  0.09150  0.51680  Biso   1.000  H
  H312     1.0000 0.64600  0.10950  0.49080  Biso   1.000  H
  H313     1.0000 0.66770  0.15320  0.51340  Biso   1.000  H
  C174     1.0000 0.71630  0.17320  0.46060  Biso   1.000  C
  H314     1.0000 0.74870  0.17760  0.44880  Biso   1.000  H
  H315     1.0000 0.70770  0.20730  0.47020  Biso   1.000  H
  H316     1.0000 0.68630  0.16260  0.44810  Biso   1.000  H
  C175     1.0000 0.71240  0.15520  0.60020  Biso   1.000  C
  C176     1.0000 0.70460  0.15490  0.63340  Biso   1.000  C
  H317     1.0000 0.73680  0.13830  0.64270  Biso   1.000  H
  C177     1.0000 0.65370  0.12350  0.64300  Biso   1.000  C
  C178     1.0000 0.66330  0.17520  0.58510  Biso   1.000  C
  H318     1.0000 0.63370  0.15010  0.58830  Biso   1.000  H
  H319     1.0000 0.67050  0.17820  0.56420  Biso   1.000  H
  H320     1.0000 0.65360  0.21050  0.59290  Biso   1.000  H
  C179     1.0000 0.72730  0.10130  0.58590  Biso   1.000  C
  H321     1.0000 0.69970  0.07460  0.59040  Biso   1.000  H
  H322     1.0000 0.76200  0.08900  0.59350  Biso   1.000  H
  H323     1.0000 0.72980  0.10610  0.56480  Biso   1.000  H
  C180     1.0000 0.81070  0.37810  0.63710  Biso   1.000  C
  C181     1.0000 0.75430  0.38200  0.64540  Biso   1.000  C
  H324     1.0000 0.73360  0.39330  0.62780  Biso   1.000  H
  C182     1.0000 0.74410  0.42280  0.66890  Biso   1.000  C
  C183     1.0000 0.84790  0.36230  0.66050  Biso   1.000  C
  H325     1.0000 0.88460  0.36130  0.65290  Biso   1.000  H
  H326     1.0000 0.83810  0.32660  0.66770  Biso   1.000  H
  H327     1.0000 0.84580  0.38830  0.67640  Biso   1.000  H
  C184     1.0000 0.83000  0.43060  0.62380  Biso   1.000  C
  H328     1.0000 0.86760  0.42680  0.61790  Biso   1.000  H
  H329     1.0000 0.82690  0.45940  0.63820  Biso   1.000  H
  H330     1.0000 0.80810  0.43920  0.60680  Biso   1.000  H
  La7      1.0000 0.12214  0.42207  0.36182  Biso   1.000  La
  La8      1.0000 0.45220  0.39490  0.52360  Biso   1.000  La
  La9      1.0000 0.39830  0.34260  0.55430  Biso   1.000  La
  O83      1.0000 0.06980  0.41680  0.31100  Biso   1.000  O
  O84      1.0000 0.08970  0.34070  0.33350  Biso   1.000  O
  C185     1.0000 0.07010  0.37030  0.30980  Biso   1.000  C
  C186     1.0000 0.04600  0.33350  0.28400  Biso   1.000  C
  H331     1.0000 0.05100  0.29550  0.28880  Biso   1.000  H
  H332     1.0000 0.06460  0.34170  0.26580  Biso   1.000  H
  H333     1.0000 0.00760  0.34100  0.28170  Biso   1.000  H
  O85      1.0000 0.49720  0.34670  0.57830  Biso   1.000  O
  O86      1.0000 0.44710  0.29420  0.50640  Biso   1.000  O
  O87      1.0000 0.31230  0.34830  0.52610  Biso   1.000  O
  Ag25     1.0000 0.15604  0.78792  0.97785  Biso   1.000  Ag
  Ag26     1.0000 0.11015  0.65415  0.99873  Biso   1.000  Ag
  Ag27     1.0000 0.00038  0.68980  0.03849  Biso   1.000  Ag
  Ag28     1.0000 0.05774  0.82521  0.02382  Biso   1.000  Ag
  Ag29     1.0000 0.23215  0.77075  0.04047  Biso   1.000  Ag
  Ag30     1.0000 0.21398  0.62890  0.05986  Biso   1.000  Ag
  Ag31     1.0000 0.09139  0.69939  0.09450  Biso   1.000  Ag
  Ag32     1.0000 0.14009  0.84933  0.09684  Biso   1.000  Ag
  Pd19     1.0000 0.99710  0.74450  0.95383  Biso   1.000  Pd
  Pd20     1.0000 0.27110  0.66925  0.97625  Biso   1.000  Pd
  Pd21     1.0000 0.07041  0.54590  0.06228  Biso   1.000  Pd
  Pd22     1.0000 0.97676  0.81508  0.09935  Biso   1.000  Pd
  Pd23     1.0000 0.18222  0.92894  0.02109  Biso   1.000  Pd
  Pd24     1.0000 0.24581  0.73449  0.12538  Biso   1.000  Pd
  S37      1.0000 0.05910  0.80483  0.96963  Biso   1.000  S
  S38      1.0000 0.01506  0.67706  0.98571  Biso   1.000  S
  S39      1.0000 0.18532  0.69445  0.96844  Biso   1.000  S
  S40      1.0000 0.27051  0.68238  0.02501  Biso   1.000  S
  S41      1.0000 0.13588  0.58294  0.03407  Biso   1.000  S
  S42      1.0000 0.03189  0.62469  0.07561  Biso   1.000  S
  S43      1.0000 0.98088  0.78470  0.05295  Biso   1.000  S
  S44      1.0000 0.06162  0.79019  0.11131  Biso   1.000  S
  S45      1.0000 0.11529  0.89450  0.04927  Biso   1.000  S
  S46      1.0000 0.21463  0.84842  0.00581  Biso   1.000  S
  S47      1.0000 0.22883  0.80073  0.09272  Biso   1.000  S
  S48      1.0000 0.18658  0.67343  0.10705  Biso   1.000  S
  O88      1.0000 0.95140  0.89110  0.89640  Biso   1.000  O
  O89      1.0000 0.03440  0.91010  0.88170  Biso   1.000  O
  O90      1.0000 0.89130  0.61740  0.91023  Biso   1.000  O
  O91      1.0000 0.87290  0.56580  0.94960  Biso   1.000  O
  O92      1.0000 0.25650  0.62900  0.87900  Biso   1.000  O
  O93      1.0000 0.21370  0.70540  0.86740  Biso   1.000  O
  O94      1.0000 0.45490  0.64490  0.99140  Biso   1.000  O
  O95      1.0000 0.44060  0.59990  0.03440  Biso   1.000  O
  O96      1.0000 0.14970  0.38930  0.02450  Biso   1.000  O
  O97      1.0000 0.23250  0.42390  0.02710  Biso   1.000  O
  O98      1.0000 0.92980  0.47740  0.11901  Biso   1.000  O
  O99      1.0000 0.86990  0.53850  0.10350  Biso   1.000  O
  O100     1.0000 0.80280  0.86540  0.06700  Biso   1.000  O
  O101     1.0000 0.79140  0.78980  0.04290  Biso   1.000  O
  O102     1.0000 0.96870  0.83250  0.20120  Biso   1.000  O
  O103     1.0000 0.05620  0.87570  0.20520  Biso   1.000  O
  O104     1.0000 0.08680  0.08570  0.04770  Biso   1.000  O
  O105     1.0000 0.08550  0.06490  0.09540  Biso   1.000  O
  O106     1.0000 0.32180  0.99080  0.95855  Biso   1.000  O
  O107     1.0000 0.31010  0.92480  0.92729  Biso   1.000  O
  O108     1.0000 0.38610  0.85340  0.14890  Biso   1.000  O
  O109     1.0000 0.33930  0.92870  0.14380  Biso   1.000  O
  O110     1.0000 0.26530  0.59500  0.19340  Biso   1.000  O
  O111     1.0000 0.25760  0.53140  0.16460  Biso   1.000  O
  N37      1.0000 0.98170  0.80060  0.92220  Biso   1.000  N
  H334     1.0000 0.97480  0.78290  0.90510  Biso   1.000  H
  H335     1.0000 0.95110  0.81900  0.92730  Biso   1.000  H
  N38      1.0000 0.93510  0.69490  0.93940  Biso   1.000  N
  H336     1.0000 0.90410  0.71490  0.93900  Biso   1.000  H
  H337     1.0000 0.94260  0.68510  0.92060  Biso   1.000  H
  N39      1.0000 0.27800  0.66710  0.93220  Biso   1.000  N
  H338     1.0000 0.30890  0.68470  0.92690  Biso   1.000  H
  H339     1.0000 0.28130  0.63190  0.92640  Biso   1.000  H
  N40      1.0000 0.34720  0.63930  0.98160  Biso   1.000  N
  H340     1.0000 0.34970  0.60740  0.97170  Biso   1.000  H
  H341     1.0000 0.37120  0.66280  0.97330  Biso   1.000  H
  N41      1.0000 0.10540  0.47350  0.05360  Biso   1.000  N
  H342     1.0000 0.10960  0.45510  0.07080  Biso   1.000  H
  H343     1.0000 0.08270  0.45380  0.04200  Biso   1.000  H
  N42      1.0000 0.00830  0.51100  0.08590  Biso   1.000  N
  H344     1.0000 0.99860  0.47910  0.07740  Biso   1.000  H
  H345     1.0000 0.01990  0.50380  0.10450  Biso   1.000  H
  N43      1.0000 0.89700  0.83110  0.09140  Biso   1.000  N
  H346     1.0000 0.87710  0.82090  0.10730  Biso   1.000  H
  H347     1.0000 0.89270  0.86750  0.08900  Biso   1.000  H
  N44      1.0000 0.97180  0.84560  0.14080  Biso   1.000  N
  H348     1.0000 0.96150  0.88100  0.13980  Biso   1.000  H
  H349     1.0000 0.94570  0.82730  0.15090  Biso   1.000  H
  N45      1.0000 0.15810  0.00210  0.03620  Biso   1.000  N
  H350     1.0000 0.18790  0.02100  0.04190  Biso   1.000  H
  H351     1.0000 0.14240  0.02060  0.02120  Biso   1.000  H
  N46      1.0000 0.23650  0.96110  0.99360  Biso   1.000  N
  H352     1.0000 0.22160  0.99090  0.98510  Biso   1.000  H
  H353     1.0000 0.26570  0.97230  0.00430  Biso   1.000  H
  N47      1.0000 0.30040  0.78860  0.14370  Biso   1.000  N
  H354     1.0000 0.29610  0.78820  0.16360  Biso   1.000  H
  H355     1.0000 0.33460  0.77680  0.13980  Biso   1.000  H
  N48      1.0000 0.26580  0.67530  0.15420  Biso   1.000  N
  H356     1.0000 0.30250  0.67450  0.15610  Biso   1.000  H
  H357     1.0000 0.25160  0.68390  0.17210  Biso   1.000  H
  C187     1.0000 0.04140  0.86270  0.94690  Biso   1.000  C
  C188     1.0000 0.02340  0.83860  0.91710  Biso   1.000  C
  H358     1.0000 0.05450  0.82060  0.90750  Biso   1.000  H
  C189     1.0000 0.00010  0.88530  0.89630  Biso   1.000  C
  C190     1.0000 0.99930  0.89420  0.95980  Biso   1.000  C
  H359     1.0000 0.96730  0.87190  0.96230  Biso   1.000  H
  H360     1.0000 0.99090  0.92460  0.94710  Biso   1.000  H
  H361     1.0000 0.01120  0.90750  0.97880  Biso   1.000  H
  C191     1.0000 0.09290  0.89740  0.94230  Biso   1.000  C
  H362     1.0000 0.12090  0.87530  0.93340  Biso   1.000  H
  H363     1.0000 0.10550  0.91090  0.96100  Biso   1.000  H
  H364     1.0000 0.08450  0.92760  0.92950  Biso   1.000  H
  C192     1.0000 0.97880  0.62160  0.96790  Biso   1.000  C
  C193     1.0000 0.92440  0.64540  0.95630  Biso   1.000  C
  H365     1.0000 0.90130  0.65480  0.97330  Biso   1.000  H
  C194     1.0000 0.89260  0.60690  0.93620  Biso   1.000  C
  C195     1.0000 0.01070  0.59970  0.94260  Biso   1.000  C
  H366     1.0000 0.01580  0.62790  0.92810  Biso   1.000  H
  H367     1.0000 0.99120  0.56960  0.93390  Biso   1.000  H
  H368     1.0000 0.04570  0.58730  0.94960  Biso   1.000  H
  C196     1.0000 0.97050  0.57890  0.99220  Biso   1.000  C
  H369     1.0000 0.95010  0.59470  0.00820  Biso   1.000  H
  H370     1.0000 0.00550  0.56680  0.99940  Biso   1.000  H
  H371     1.0000 0.95070  0.54820  0.98430  Biso   1.000  H
  C197     1.0000 0.17760  0.67600  0.93050  Biso   1.000  C
  C198     1.0000 0.23160  0.69180  0.91630  Biso   1.000  C
  H372     1.0000 0.23550  0.73180  0.91630  Biso   1.000  H
  C199     1.0000 0.23570  0.66990  0.88420  Biso   1.000  C
  C200     1.0000 0.17010  0.61520  0.92810  Biso   1.000  C
  H373     1.0000 0.20090  0.59700  0.93690  Biso   1.000  H
  H374     1.0000 0.16760  0.60510  0.90750  Biso   1.000  H
  H375     1.0000 0.13720  0.60460  0.93810  Biso   1.000  H
  C201     1.0000 0.13230  0.70500  0.91800  Biso   1.000  C
  H376     1.0000 0.13860  0.74370  0.91970  Biso   1.000  H
  H377     1.0000 0.09940  0.69550  0.92840  Biso   1.000  H
  H378     1.0000 0.12860  0.69530  0.89750  Biso   1.000  H
  C202     1.0000 0.34410  0.67870  0.03040  Biso   1.000  C
  C203     1.0000 0.36310  0.63020  0.01180  Biso   1.000  C
  H379     1.0000 0.34750  0.59590  0.01930  Biso   1.000  H
  C204     1.0000 0.42840  0.62580  0.00940  Biso   1.000  C
  C205     1.0000 0.37340  0.72750  0.02250  Biso   1.000  C
  H380     1.0000 0.35970  0.75780  0.03390  Biso   1.000  H
  H381     1.0000 0.36860  0.73480  0.00180  Biso   1.000  H
  H382     1.0000 0.41170  0.72260  0.02670  Biso   1.000  H
  C206     1.0000 0.34950  0.66950  0.06460  Biso   1.000  C
  H383     1.0000 0.32990  0.63700  0.07010  Biso   1.000  H
  H384     1.0000 0.33460  0.70040  0.07490  Biso   1.000  H
  H385     1.0000 0.38750  0.66530  0.06970  Biso   1.000  H
  C207     1.0000 0.15930  0.52220  0.01490  Biso   1.000  C
  C208     1.0000 0.15980  0.47810  0.03870  Biso   1.000  C
  H386     1.0000 0.18460  0.49200  0.05400  Biso   1.000  H
  C209     1.0000 0.18330  0.42590  0.02950  Biso   1.000  C
  C210     1.0000 0.12130  0.50740  0.99180  Biso   1.000  C
  H387     1.0000 0.08600  0.50020  0.00030  Biso   1.000  H
  H388     1.0000 0.13420  0.47510  0.98180  Biso   1.000  H
  H389     1.0000 0.11840  0.53690  0.97780  Biso   1.000  H
  C211     1.0000 0.21290  0.53300  0.00150  Biso   1.000  C
  H390     1.0000 0.23870  0.54230  0.01670  Biso   1.000  H
  H391     1.0000 0.20980  0.56300  0.98780  Biso   1.000  H
  H392     1.0000 0.22530  0.50100  0.99120  Biso   1.000  H
  C212     1.0000 0.97590  0.60100  0.09960  Biso   1.000  C
  C213     1.0000 0.96120  0.54720  0.08720  Biso   1.000  C
  H393     1.0000 0.94840  0.55300  0.06680  Biso   1.000  H
  C214     1.0000 0.91550  0.51840  0.10430  Biso   1.000  C
  C215     1.0000 0.99640  0.59710  0.13010  Biso   1.000  C
  H394     1.0000 0.02470  0.56990  0.13100  Biso   1.000  H
  H395     1.0000 0.96690  0.58680  0.14300  Biso   1.000  H
  H396     1.0000 0.01090  0.63190  0.13610  Biso   1.000  H
  C216     1.0000 0.93140  0.64260  0.09680  Biso   1.000  C
  H397     1.0000 0.91930  0.64420  0.07660  Biso   1.000  H
  H398     1.0000 0.94510  0.67780  0.10270  Biso   1.000  H
  H399     1.0000 0.90130  0.63250  0.10930  Biso   1.000  H
  C217     1.0000 0.91440  0.80810  0.04010  Biso   1.000  C
  C218     1.0000 0.87640  0.80350  0.06560  Biso   1.000  C
  H400     1.0000 0.87480  0.76450  0.07070  Biso   1.000  H
  C219     1.0000 0.81850  0.82020  0.05770  Biso   1.000  C
  C220     1.0000 0.91850  0.86640  0.03170  Biso   1.000  C
  H401     1.0000 0.94360  0.87030  0.01540  Biso   1.000  H
  H402     1.0000 0.93140  0.88730  0.04830  Biso   1.000  H
  H403     1.0000 0.88300  0.87960  0.02580  Biso   1.000  H
  C221     1.0000 0.89910  0.77450  0.01470  Biso   1.000  C
  H404     1.0000 0.89610  0.73690  0.02070  Biso   1.000  H
  H405     1.0000 0.92660  0.77760  0.99950  Biso   1.000  H
  H406     1.0000 0.86450  0.78670  0.00700  Biso   1.000  H
  C222     1.0000 0.05390  0.78940  0.15150  Biso   1.000  C
  C223     1.0000 0.02530  0.84170  0.15770  Biso   1.000  C
  H407     1.0000 0.04890  0.87130  0.15050  Biso   1.000  H
  C224     1.0000 0.01600  0.85160  0.19110  Biso   1.000  C
  C225     1.0000 0.02300  0.73930  0.16020  Biso   1.000  C
  H408     1.0000 0.98740  0.74000  0.15120  Biso   1.000  H
  H409     1.0000 0.01920  0.73820  0.18140  Biso   1.000  H
  H410     1.0000 0.04250  0.70740  0.15360  Biso   1.000  H
  C226     1.0000 0.11060  0.78810  0.16510  Biso   1.000  C
  H411     1.0000 0.13090  0.81960  0.15860  Biso   1.000  H
  H412     1.0000 0.12920  0.75540  0.15890  Biso   1.000  H
  H413     1.0000 0.10760  0.78860  0.18630  Biso   1.000  H
  C227     1.0000 0.07760  0.95860  0.05580  Biso   1.000  C
  C228     1.0000 0.11950  0.00030  0.06110  Biso   1.000  C
  H414     1.0000 0.14020  0.98850  0.07850  Biso   1.000  H
  C229     1.0000 0.09700  0.05310  0.06790  Biso   1.000  C
  C230     1.0000 0.04460  0.97080  0.02910  Biso   1.000  C
  H415     1.0000 0.01760  0.94260  0.02640  Biso   1.000  H
  H416     1.0000 0.06810  0.97230  0.01200  Biso   1.000  H
  H417     1.0000 0.02660  0.00550  0.03150  Biso   1.000  H
  C231     1.0000 0.04300  0.94740  0.08140  Biso   1.000  C
  H418     1.0000 0.01700  0.91940  0.07640  Biso   1.000  H
  H419     1.0000 0.02400  0.98010  0.08700  Biso   1.000  H
  H420     1.0000 0.06540  0.93520  0.09760  Biso   1.000  H
  C232     1.0000 0.27430  0.87000  0.98350  Biso   1.000  C
  C233     1.0000 0.25580  0.92410  0.97000  Biso   1.000  C
  H421     1.0000 0.22440  0.91630  0.95720  Biso   1.000  H
  C234     1.0000 0.30030  0.94960  0.95060  Biso   1.000  C
  C235     1.0000 0.32350  0.87990  0.00290  Biso   1.000  C
  H422     1.0000 0.31540  0.90850  0.01680  Biso   1.000  H
  H423     1.0000 0.35400  0.89050  0.99080  Biso   1.000  H
  H424     1.0000 0.33230  0.84680  0.01340  Biso   1.000  H
  C236     1.0000 0.28370  0.82680  0.96060  Biso   1.000  C
  H425     1.0000 0.25130  0.82240  0.94880  Biso   1.000  H
  H426     1.0000 0.29230  0.79270  0.97020  Biso   1.000  H
  H427     1.0000 0.31370  0.83740  0.94810  Biso   1.000  H
  C237     1.0000 0.28760  0.84480  0.10020  Biso   1.000  C
  C238     1.0000 0.29540  0.84510  0.13340  Biso   1.000  C
  H428     1.0000 0.26320  0.86170  0.14270  Biso   1.000  H
  C239     1.0000 0.34630  0.87650  0.14300  Biso   1.000  C
  C240     1.0000 0.33670  0.82480  0.08510  Biso   1.000  C
  H429     1.0000 0.36630  0.84990  0.08830  Biso   1.000  H
  H430     1.0000 0.32950  0.82180  0.06420  Biso   1.000  H
  H431     1.0000 0.34640  0.78950  0.09290  Biso   1.000  H
  C241     1.0000 0.27270  0.89870  0.08590  Biso   1.000  C
  H432     1.0000 0.30030  0.92540  0.09040  Biso   1.000  H
  H433     1.0000 0.23800  0.91100  0.09350  Biso   1.000  H
  H434     1.0000 0.27020  0.89390  0.06480  Biso   1.000  H
  C242     1.0000 0.18930  0.62190  0.13710  Biso   1.000  C
  C243     1.0000 0.24570  0.61800  0.14540  Biso   1.000  C
  H435     1.0000 0.26640  0.60670  0.12780  Biso   1.000  H
  C244     1.0000 0.25590  0.57720  0.16890  Biso   1.000  C
  C245     1.0000 0.15210  0.63770  0.16050  Biso   1.000  C
  H436     1.0000 0.11540  0.63870  0.15290  Biso   1.000  H
  H437     1.0000 0.16190  0.67340  0.16770  Biso   1.000  H
  H438     1.0000 0.15420  0.61170  0.17640  Biso   1.000  H
  C246     1.0000 0.17000  0.56940  0.12380  Biso   1.000  C
  H439     1.0000 0.13240  0.57320  0.11790  Biso   1.000  H
  H440     1.0000 0.17310  0.54060  0.13820  Biso   1.000  H
  H441     1.0000 0.19190  0.56080  0.10680  Biso   1.000  H
  La10     1.0000 0.87786  0.57793  0.86182  Biso   1.000  La
  La11     1.0000 0.54780  0.60510  0.02360  Biso   1.000  La
  La12     1.0000 0.60170  0.65740  0.05430  Biso   1.000  La
  O112     1.0000 0.93020  0.58320  0.81100  Biso   1.000  O
  O113     1.0000 0.91030  0.65930  0.83350  Biso   1.000  O
  C247     1.0000 0.92990  0.62970  0.80980  Biso   1.000  C
  C248     1.0000 0.95400  0.66650  0.78400  Biso   1.000  C
  H442     1.0000 0.94900  0.70450  0.78880  Biso   1.000  H
  H443     1.0000 0.93540  0.65830  0.76580  Biso   1.000  H
  H444     1.0000 0.99240  0.65900  0.78170  Biso   1.000  H
  O114     1.0000 0.50280  0.65330  0.07830  Biso   1.000  O
  O115     1.0000 0.55290  0.70580  0.00640  Biso   1.000  O
  O116     1.0000 0.68770  0.65170  0.02610  Biso   1.000  O
  Ag33     1.0000 0.78792  0.15604  0.02215  Biso   1.000  Ag
  Ag34     1.0000 0.65415  0.11015  0.00127  Biso   1.000  Ag
  Ag35     1.0000 0.68980  0.00038  0.96151  Biso   1.000  Ag
  Ag36     1.0000 0.82521  0.05774  0.97618  Biso   1.000  Ag
  Ag37     1.0000 0.77075  0.23215  0.95953  Biso   1.000  Ag
  Ag38     1.0000 0.62890  0.21398  0.94014  Biso   1.000  Ag
  Ag39     1.0000 0.69939  0.09139  0.90550  Biso   1.000  Ag
  Ag40     1.0000 0.84933  0.14009  0.90316  Biso   1.000  Ag
  Pd25     1.0000 0.74450  0.99710  0.04617  Biso   1.000  Pd
  Pd26     1.0000 0.66925  0.27110  0.02375  Biso   1.000  Pd
  Pd27     1.0000 0.54590  0.07041  0.93772  Biso   1.000  Pd
  Pd28     1.0000 0.81508  0.97676  0.90065  Biso   1.000  Pd
  Pd29     1.0000 0.92894  0.18222  0.97891  Biso   1.000  Pd
  Pd30     1.0000 0.73449  0.24581  0.87462  Biso   1.000  Pd
  S49      1.0000 0.80483  0.05910  0.03037  Biso   1.000  S
  S50      1.0000 0.67706  0.01506  0.01429  Biso   1.000  S
  S51      1.0000 0.69445  0.18532  0.03156  Biso   1.000  S
  S52      1.0000 0.68238  0.27051  0.97499  Biso   1.000  S
  S53      1.0000 0.58294  0.13588  0.96593  Biso   1.000  S
  S54      1.0000 0.62469  0.03189  0.92439  Biso   1.000  S
  S55      1.0000 0.78470  0.98088  0.94705  Biso   1.000  S
  S56      1.0000 0.79019  0.06162  0.88869  Biso   1.000  S
  S57      1.0000 0.89450  0.11529  0.95073  Biso   1.000  S
  S58      1.0000 0.84842  0.21463  0.99419  Biso   1.000  S
  S59      1.0000 0.80073  0.22883  0.90728  Biso   1.000  S
  S60      1.0000 0.67343  0.18658  0.89295  Biso   1.000  S
  O117     1.0000 0.89110  0.95140  0.10360  Biso   1.000  O
  O118     1.0000 0.91010  0.03440  0.11830  Biso   1.000  O
  O119     1.0000 0.61740  0.89130  0.08977  Biso   1.000  O
  O120     1.0000 0.56580  0.87290  0.05040  Biso   1.000  O
  O121     1.0000 0.62900  0.25650  0.12100  Biso   1.000  O
  O122     1.0000 0.70540  0.21370  0.13260  Biso   1.000  O
  O123     1.0000 0.64490  0.45490  0.00860  Biso   1.000  O
  O124     1.0000 0.59990  0.44060  0.96560  Biso   1.000  O
  O125     1.0000 0.38930  0.14970  0.97550  Biso   1.000  O
  O126     1.0000 0.42390  0.23250  0.97290  Biso   1.000  O
  O127     1.0000 0.47740  0.92980  0.88099  Biso   1.000  O
  O128     1.0000 0.53850  0.86990  0.89650  Biso   1.000  O
  O129     1.0000 0.86540  0.80280  0.93300  Biso   1.000  O
  O130     1.0000 0.78980  0.79140  0.95710  Biso   1.000  O
  O131     1.0000 0.83250  0.96870  0.79880  Biso   1.000  O
  O132     1.0000 0.87570  0.05620  0.79480  Biso   1.000  O
  O133     1.0000 0.08570  0.08680  0.95230  Biso   1.000  O
  O134     1.0000 0.06490  0.08550  0.90460  Biso   1.000  O
  O135     1.0000 0.99080  0.32180  0.04145  Biso   1.000  O
  O136     1.0000 0.92480  0.31010  0.07271  Biso   1.000  O
  O137     1.0000 0.85340  0.38610  0.85110  Biso   1.000  O
  O138     1.0000 0.92870  0.33930  0.85620  Biso   1.000  O
  O139     1.0000 0.59500  0.26530  0.80660  Biso   1.000  O
  O140     1.0000 0.53140  0.25760  0.83540  Biso   1.000  O
  N49      1.0000 0.80060  0.98170  0.07780  Biso   1.000  N
  H445     1.0000 0.78290  0.97480  0.09490  Biso   1.000  H
  H446     1.0000 0.81900  0.95110  0.07270  Biso   1.000  H
  N50      1.0000 0.69490  0.93510  0.06060  Biso   1.000  N
  H447     1.0000 0.71490  0.90410  0.06100  Biso   1.000  H
  H448     1.0000 0.68510  0.94260  0.07940  Biso   1.000  H
  N51      1.0000 0.66710  0.27800  0.06780  Biso   1.000  N
  H449     1.0000 0.68470  0.30890  0.07310  Biso   1.000  H
  H450     1.0000 0.63190  0.28130  0.07360  Biso   1.000  H
  N52      1.0000 0.63930  0.34720  0.01840  Biso   1.000  N
  H451     1.0000 0.60740  0.34970  0.02830  Biso   1.000  H
  H452     1.0000 0.66280  0.37120  0.02670  Biso   1.000  H
  N53      1.0000 0.47350  0.10540  0.94640  Biso   1.000  N
  H453     1.0000 0.45510  0.10960  0.92920  Biso   1.000  H
  H454     1.0000 0.45380  0.08270  0.95800  Biso   1.000  H
  N54      1.0000 0.51100  0.00830  0.91410  Biso   1.000  N
  H455     1.0000 0.47910  0.99860  0.92260  Biso   1.000  H
  H456     1.0000 0.50380  0.01990  0.89550  Biso   1.000  H
  N55      1.0000 0.83110  0.89700  0.90860  Biso   1.000  N
  H457     1.0000 0.82090  0.87710  0.89270  Biso   1.000  H
  H458     1.0000 0.86750  0.89270  0.91100  Biso   1.000  H
  N56      1.0000 0.84560  0.97180  0.85920  Biso   1.000  N
  H459     1.0000 0.88100  0.96150  0.86020  Biso   1.000  H
  H460     1.0000 0.82730  0.94570  0.84910  Biso   1.000  H
  N57      1.0000 0.00210  0.15810  0.96380  Biso   1.000  N
  H461     1.0000 0.02100  0.18790  0.95810  Biso   1.000  H
  H462     1.0000 0.02060  0.14240  0.97880  Biso   1.000  H
  N58      1.0000 0.96110  0.23650  0.00640  Biso   1.000  N
  H463     1.0000 0.99090  0.22160  0.01490  Biso   1.000  H
  H464     1.0000 0.97230  0.26570  0.99570  Biso   1.000  H
  N59      1.0000 0.78860  0.30040  0.85630  Biso   1.000  N
  H465     1.0000 0.78820  0.29610  0.83640  Biso   1.000  H
  H466     1.0000 0.77680  0.33460  0.86020  Biso   1.000  H
  N60      1.0000 0.67530  0.26580  0.84580  Biso   1.000  N
  H467     1.0000 0.67450  0.30250  0.84390  Biso   1.000  H
  H468     1.0000 0.68390  0.25160  0.82790  Biso   1.000  H
  C249     1.0000 0.86270  0.04140  0.05310  Biso   1.000  C
  C250     1.0000 0.83860  0.02340  0.08290  Biso   1.000  C
  H469     1.0000 0.82060  0.05450  0.09250  Biso   1.000  H
  C251     1.0000 0.88530  0.00010  0.10370  Biso   1.000  C
  C252     1.0000 0.89420  0.99930  0.04020  Biso   1.000  C
  H470     1.0000 0.87190  0.96730  0.03770  Biso   1.000  H
  H471     1.0000 0.92460  0.99090  0.05290  Biso   1.000  H
  H472     1.0000 0.90750  0.01120  0.02120  Biso   1.000  H
  C253     1.0000 0.89740  0.09290  0.05770  Biso   1.000  C
  H473     1.0000 0.87530  0.12090  0.06660  Biso   1.000  H
  H474     1.0000 0.91090  0.10550  0.03900  Biso   1.000  H
  H475     1.0000 0.92760  0.08450  0.07050  Biso   1.000  H
  C254     1.0000 0.62160  0.97880  0.03210  Biso   1.000  C
  C255     1.0000 0.64540  0.92440  0.04370  Biso   1.000  C
  H476     1.0000 0.65480  0.90130  0.02670  Biso   1.000  H
  C256     1.0000 0.60690  0.89260  0.06380  Biso   1.000  C
  C257     1.0000 0.59970  0.01070  0.05740  Biso   1.000  C
  H477     1.0000 0.62790  0.01580  0.07190  Biso   1.000  H
  H478     1.0000 0.56960  0.99120  0.06610  Biso   1.000  H
  H479     1.0000 0.58730  0.04570  0.05040  Biso   1.000  H
  C258     1.0000 0.57890  0.97050  0.00780  Biso   1.000  C
  H480     1.0000 0.59470  0.95010  0.99180  Biso   1.000  H
  H481     1.0000 0.56680  0.00550  0.00060  Biso   1.000  H
  H482     1.0000 0.54820  0.95070  0.01570  Biso   1.000  H
  C259     1.0000 0.67600  0.17760  0.06950  Biso   1.000  C
  C260     1.0000 0.69180  0.23160  0.08370  Biso   1.000  C
  H483     1.0000 0.73180  0.23550  0.08370  Biso   1.000  H
  C261     1.0000 0.66990  0.23570  0.11580  Biso   1.000  C
  C262     1.0000 0.61520  0.17010  0.07190  Biso   1.000  C
  H484     1.0000 0.59700  0.20090  0.06310  Biso   1.000  H
  H485     1.0000 0.60510  0.16760  0.09250  Biso   1.000  H
  H486     1.0000 0.60460  0.13720  0.06190  Biso   1.000  H
  C263     1.0000 0.70500  0.13230  0.08200  Biso   1.000  C
  H487     1.0000 0.74370  0.13860  0.08030  Biso   1.000  H
  H488     1.0000 0.69550  0.09940  0.07160  Biso   1.000  H
  H489     1.0000 0.69530  0.12860  0.10250  Biso   1.000  H
  C264     1.0000 0.67870  0.34410  0.96960  Biso   1.000  C
  C265     1.0000 0.63020  0.36310  0.98820  Biso   1.000  C
  H490     1.0000 0.59590  0.34750  0.98070  Biso   1.000  H
  C266     1.0000 0.62580  0.42840  0.99060  Biso   1.000  C
  C267     1.0000 0.72750  0.37340  0.97750  Biso   1.000  C
  H491     1.0000 0.75780  0.35970  0.96610  Biso   1.000  H
  H492     1.0000 0.73480  0.36860  0.99820  Biso   1.000  H
  H493     1.0000 0.72260  0.41170  0.97330  Biso   1.000  H
  C268     1.0000 0.66950  0.34950  0.93540  Biso   1.000  C
  H494     1.0000 0.63700  0.32990  0.92990  Biso   1.000  H
  H495     1.0000 0.70040  0.33460  0.92510  Biso   1.000  H
  H496     1.0000 0.66530  0.38750  0.93030  Biso   1.000  H
  C269     1.0000 0.52220  0.15930  0.98510  Biso   1.000  C
  C270     1.0000 0.47810  0.15980  0.96130  Biso   1.000  C
  H497     1.0000 0.49200  0.18460  0.94600  Biso   1.000  H
  C271     1.0000 0.42590  0.18330  0.97050  Biso   1.000  C
  C272     1.0000 0.50740  0.12130  0.00820  Biso   1.000  C
  H498     1.0000 0.50020  0.08600  0.99970  Biso   1.000  H
  H499     1.0000 0.47510  0.13420  0.01820  Biso   1.000  H
  H500     1.0000 0.53690  0.11840  0.02220  Biso   1.000  H
  C273     1.0000 0.53300  0.21290  0.99850  Biso   1.000  C
  H501     1.0000 0.54230  0.23870  0.98330  Biso   1.000  H
  H502     1.0000 0.56300  0.20980  0.01220  Biso   1.000  H
  H503     1.0000 0.50100  0.22530  0.00880  Biso   1.000  H
  C274     1.0000 0.60100  0.97590  0.90040  Biso   1.000  C
  C275     1.0000 0.54720  0.96120  0.91280  Biso   1.000  C
  H504     1.0000 0.55300  0.94840  0.93320  Biso   1.000  H
  C276     1.0000 0.51840  0.91550  0.89570  Biso   1.000  C
  C277     1.0000 0.59710  0.99640  0.86990  Biso   1.000  C
  H505     1.0000 0.56990  0.02470  0.86900  Biso   1.000  H
  H506     1.0000 0.58680  0.96690  0.85700  Biso   1.000  H
  H507     1.0000 0.63190  0.01090  0.86390  Biso   1.000  H
  C278     1.0000 0.64260  0.93140  0.90320  Biso   1.000  C
  H508     1.0000 0.64420  0.91930  0.92340  Biso   1.000  H
  H509     1.0000 0.67780  0.94510  0.89730  Biso   1.000  H
  H510     1.0000 0.63250  0.90130  0.89070  Biso   1.000  H
  C279     1.0000 0.80810  0.91440  0.95990  Biso   1.000  C
  C280     1.0000 0.80350  0.87640  0.93440  Biso   1.000  C
  H511     1.0000 0.76450  0.87480  0.92930  Biso   1.000  H
  C281     1.0000 0.82020  0.81850  0.94230  Biso   1.000  C
  C282     1.0000 0.86640  0.91850  0.96830  Biso   1.000  C
  H512     1.0000 0.87030  0.94360  0.98460  Biso   1.000  H
  H513     1.0000 0.88730  0.93140  0.95170  Biso   1.000  H
  H514     1.0000 0.87960  0.88300  0.97420  Biso   1.000  H
  C283     1.0000 0.77450  0.89910  0.98530  Biso   1.000  C
  H515     1.0000 0.73690  0.89610  0.97930  Biso   1.000  H
  H516     1.0000 0.77760  0.92660  0.00050  Biso   1.000  H
  H517     1.0000 0.78670  0.86450  0.99300  Biso   1.000  H
  C284     1.0000 0.78940  0.05390  0.84850  Biso   1.000  C
  C285     1.0000 0.84170  0.02530  0.84230  Biso   1.000  C
  H518     1.0000 0.87130  0.04890  0.84950  Biso   1.000  H
  C286     1.0000 0.85160  0.01600  0.80890  Biso   1.000  C
  C287     1.0000 0.73930  0.02300  0.83980  Biso   1.000  C
  H519     1.0000 0.74000  0.98740  0.84880  Biso   1.000  H
  H520     1.0000 0.73820  0.01920  0.81860  Biso   1.000  H
  H521     1.0000 0.70740  0.04250  0.84640  Biso   1.000  H
  C288     1.0000 0.78810  0.11060  0.83490  Biso   1.000  C
  H522     1.0000 0.81960  0.13090  0.84140  Biso   1.000  H
  H523     1.0000 0.75540  0.12920  0.84110  Biso   1.000  H
  H524     1.0000 0.78860  0.10760  0.81370  Biso   1.000  H
  C289     1.0000 0.95860  0.07760  0.94420  Biso   1.000  C
  C290     1.0000 0.00030  0.11950  0.93890  Biso   1.000  C
  H525     1.0000 0.98850  0.14020  0.92150  Biso   1.000  H
  C291     1.0000 0.05310  0.09700  0.93210  Biso   1.000  C
  C292     1.0000 0.97080  0.04460  0.97090  Biso   1.000  C
  H526     1.0000 0.94260  0.01760  0.97360  Biso   1.000  H
  H527     1.0000 0.97230  0.06810  0.98800  Biso   1.000  H
  H528     1.0000 0.00550  0.02660  0.96850  Biso   1.000  H
  C293     1.0000 0.94740  0.04300  0.91860  Biso   1.000  C
  H529     1.0000 0.91940  0.01700  0.92360  Biso   1.000  H
  H530     1.0000 0.98010  0.02400  0.91300  Biso   1.000  H
  H531     1.0000 0.93520  0.06540  0.90240  Biso   1.000  H
  C294     1.0000 0.87000  0.27430  0.01650  Biso   1.000  C
  C295     1.0000 0.92410  0.25580  0.03000  Biso   1.000  C
  H532     1.0000 0.91630  0.22440  0.04280  Biso   1.000  H
  C296     1.0000 0.94960  0.30030  0.04940  Biso   1.000  C
  C297     1.0000 0.87990  0.32350  0.99710  Biso   1.000  C
  H533     1.0000 0.90850  0.31540  0.98320  Biso   1.000  H
  H534     1.0000 0.89050  0.35400  0.00920  Biso   1.000  H
  H535     1.0000 0.84680  0.33230  0.98660  Biso   1.000  H
  C298     1.0000 0.82680  0.28370  0.03940  Biso   1.000  C
  H536     1.0000 0.82240  0.25130  0.05120  Biso   1.000  H
  H537     1.0000 0.79270  0.29230  0.02980  Biso   1.000  H
  H538     1.0000 0.83740  0.31370  0.05190  Biso   1.000  H
  C299     1.0000 0.84480  0.28760  0.89980  Biso   1.000  C
  C300     1.0000 0.84510  0.29540  0.86660  Biso   1.000  C
  H539     1.0000 0.86170  0.26320  0.85730  Biso   1.000  H
  C301     1.0000 0.87650  0.34630  0.85700  Biso   1.000  C
  C302     1.0000 0.82480  0.33670  0.91490  Biso   1.000  C
  H540     1.0000 0.84990  0.36630  0.91170  Biso   1.000  H
  H541     1.0000 0.82180  0.32950  0.93580  Biso   1.000  H
  H542     1.0000 0.78950  0.34640  0.90710  Biso   1.000  H
  C303     1.0000 0.89870  0.27270  0.91410  Biso   1.000  C
  H543     1.0000 0.92540  0.30030  0.90960  Biso   1.000  H
  H544     1.0000 0.91100  0.23800  0.90650  Biso   1.000  H
  H545     1.0000 0.89390  0.27020  0.93520  Biso   1.000  H
  C304     1.0000 0.62190  0.18930  0.86290  Biso   1.000  C
  C305     1.0000 0.61800  0.24570  0.85460  Biso   1.000  C
  H546     1.0000 0.60670  0.26640  0.87220  Biso   1.000  H
  C306     1.0000 0.57720  0.25590  0.83110  Biso   1.000  C
  C307     1.0000 0.63770  0.15210  0.83950  Biso   1.000  C
  H547     1.0000 0.63870  0.11540  0.84710  Biso   1.000  H
  H548     1.0000 0.67340  0.16190  0.83230  Biso   1.000  H
  H549     1.0000 0.61170  0.15420  0.82360  Biso   1.000  H
  C308     1.0000 0.56940  0.17000  0.87620  Biso   1.000  C
  H550     1.0000 0.57320  0.13240  0.88210  Biso   1.000  H
  H551     1.0000 0.54060  0.17310  0.86180  Biso   1.000  H
  H552     1.0000 0.56080  0.19190  0.89320  Biso   1.000  H
  La13     1.0000 0.57793  0.87786  0.13818  Biso   1.000  La
  La14     1.0000 0.60510  0.54780  0.97640  Biso   1.000  La
  La15     1.0000 0.65740  0.60170  0.94570  Biso   1.000  La
  O141     1.0000 0.58320  0.93020  0.18900  Biso   1.000  O
  O142     1.0000 0.65930  0.91030  0.16650  Biso   1.000  O
  C309     1.0000 0.62970  0.92990  0.19020  Biso   1.000  C
  C310     1.0000 0.66650  0.95400  0.21600  Biso   1.000  C
  H553     1.0000 0.70450  0.94900  0.21120  Biso   1.000  H
  H554     1.0000 0.65830  0.93540  0.23420  Biso   1.000  H
  H555     1.0000 0.65900  0.99240  0.21830  Biso   1.000  H
  O143     1.0000 0.65330  0.50280  0.92170  Biso   1.000  O
  O144     1.0000 0.70580  0.55290  0.99360  Biso   1.000  O
  O145     1.0000 0.65170  0.68770  0.97390  Biso   1.000  O
  Ag41     1.0000 0.21208  0.84396  0.52215  Biso   1.000  Ag
  Ag42     1.0000 0.34585  0.88985  0.50127  Biso   1.000  Ag
  Ag43     1.0000 0.31020  0.99962  0.46151  Biso   1.000  Ag
  Ag44     1.0000 0.17479  0.94226  0.47618  Biso   1.000  Ag
  Ag45     1.0000 0.22925  0.76785  0.45953  Biso   1.000  Ag
  Ag46     1.0000 0.37110  0.78602  0.44014  Biso   1.000  Ag
  Ag47     1.0000 0.30061  0.90861  0.40550  Biso   1.000  Ag
  Ag48     1.0000 0.15067  0.85991  0.40316  Biso   1.000  Ag
  Pd31     1.0000 0.25550  0.00290  0.54617  Biso   1.000  Pd
  Pd32     1.0000 0.33075  0.72890  0.52375  Biso   1.000  Pd
  Pd33     1.0000 0.45410  0.92959  0.43772  Biso   1.000  Pd
  Pd34     1.0000 0.18492  0.02324  0.40065  Biso   1.000  Pd
  Pd35     1.0000 0.07106  0.81778  0.47891  Biso   1.000  Pd
  Pd36     1.0000 0.26551  0.75419  0.37462  Biso   1.000  Pd
  S61      1.0000 0.19517  0.94090  0.53037  Biso   1.000  S
  S62      1.0000 0.32294  0.98494  0.51429  Biso   1.000  S
  S63      1.0000 0.30555  0.81468  0.53156  Biso   1.000  S
  S64      1.0000 0.31762  0.72949  0.47499  Biso   1.000  S
  S65      1.0000 0.41706  0.86412  0.46593  Biso   1.000  S
  S66      1.0000 0.37531  0.96811  0.42439  Biso   1.000  S
  S67      1.0000 0.21530  0.01912  0.44705  Biso   1.000  S
  S68      1.0000 0.20981  0.93838  0.38869  Biso   1.000  S
  S69      1.0000 0.10550  0.88471  0.45073  Biso   1.000  S
  S70      1.0000 0.15158  0.78537  0.49419  Biso   1.000  S
  S71      1.0000 0.19927  0.77117  0.40728  Biso   1.000  S
  S72      1.0000 0.32657  0.81342  0.39295  Biso   1.000  S
  O146     1.0000 0.10890  0.04860  0.60360  Biso   1.000  O
  O147     1.0000 0.08990  0.96560  0.61830  Biso   1.000  O
  O148     1.0000 0.38260  0.10870  0.58977  Biso   1.000  O
  O149     1.0000 0.43420  0.12710  0.55040  Biso   1.000  O
  O150     1.0000 0.37100  0.74350  0.62100  Biso   1.000  O
  O151     1.0000 0.29460  0.78630  0.63260  Biso   1.000  O
  O152     1.0000 0.35510  0.54510  0.50860  Biso   1.000  O
  O153     1.0000 0.40010  0.55940  0.46560  Biso   1.000  O
  O154     1.0000 0.61070  0.85030  0.47550  Biso   1.000  O
  O155     1.0000 0.57610  0.76750  0.47290  Biso   1.000  O
  O156     1.0000 0.52260  0.07020  0.38099  Biso   1.000  O
  O157     1.0000 0.46150  0.13010  0.39650  Biso   1.000  O
  O158     1.0000 0.13460  0.19720  0.43300  Biso   1.000  O
  O159     1.0000 0.21020  0.20860  0.45710  Biso   1.000  O
  O160     1.0000 0.16750  0.03130  0.29880  Biso   1.000  O
  O161     1.0000 0.12430  0.94380  0.29480  Biso   1.000  O
  O162     1.0000 0.91430  0.91320  0.45230  Biso   1.000  O
  O163     1.0000 0.93510  0.91450  0.40460  Biso   1.000  O
  O164     1.0000 0.00920  0.67820  0.54145  Biso   1.000  O
  O165     1.0000 0.07520  0.68990  0.57271  Biso   1.000  O
  O166     1.0000 0.14660  0.61390  0.35110  Biso   1.000  O
  O167     1.0000 0.07130  0.66070  0.35620  Biso   1.000  O
  O168     1.0000 0.40500  0.73470  0.30660  Biso   1.000  O
  O169     1.0000 0.46860  0.74240  0.33540  Biso   1.000  O
  N61      1.0000 0.19940  0.01830  0.57780  Biso   1.000  N
  H556     1.0000 0.21710  0.02520  0.59490  Biso   1.000  H
  H557     1.0000 0.18100  0.04890  0.57270  Biso   1.000  H
  N62      1.0000 0.30510  0.06490  0.56060  Biso   1.000  N
  H558     1.0000 0.28510  0.09590  0.56100  Biso   1.000  H
  H559     1.0000 0.31490  0.05740  0.57940  Biso   1.000  H
  N63      1.0000 0.33290  0.72200  0.56780  Biso   1.000  N
  H560     1.0000 0.31530  0.69110  0.57310  Biso   1.000  H
  H561     1.0000 0.36810  0.71870  0.57360  Biso   1.000  H
  N64      1.0000 0.36070  0.65280  0.51840  Biso   1.000  N
  H562     1.0000 0.39260  0.65030  0.52830  Biso   1.000  H
  H563     1.0000 0.33720  0.62880  0.52670  Biso   1.000  H
  N65      1.0000 0.52650  0.89460  0.44640  Biso   1.000  N
  H564     1.0000 0.54490  0.89040  0.42920  Biso   1.000  H
  H565     1.0000 0.54620  0.91730  0.45800  Biso   1.000  H
  N66      1.0000 0.48900  0.99170  0.41410  Biso   1.000  N
  H566     1.0000 0.52090  0.00140  0.42260  Biso   1.000  H
  H567     1.0000 0.49620  0.98010  0.39550  Biso   1.000  H
  N67      1.0000 0.16890  0.10300  0.40860  Biso   1.000  N
  H568     1.0000 0.17910  0.12290  0.39270  Biso   1.000  H
  H569     1.0000 0.13250  0.10730  0.41100  Biso   1.000  H
  N68      1.0000 0.15440  0.02820  0.35920  Biso   1.000  N
  H570     1.0000 0.11900  0.03850  0.36020  Biso   1.000  H
  H571     1.0000 0.17270  0.05430  0.34910  Biso   1.000  H
  N69      1.0000 0.99790  0.84190  0.46380  Biso   1.000  N
  H572     1.0000 0.97900  0.81210  0.45810  Biso   1.000  H
  H573     1.0000 0.97940  0.85760  0.47880  Biso   1.000  H
  N70      1.0000 0.03890  0.76350  0.50640  Biso   1.000  N
  H574     1.0000 0.00910  0.77840  0.51490  Biso   1.000  H
  H575     1.0000 0.02770  0.73430  0.49570  Biso   1.000  H
  N71      1.0000 0.21140  0.69960  0.35630  Biso   1.000  N
  H576     1.0000 0.21180  0.70390  0.33640  Biso   1.000  H
  H577     1.0000 0.22320  0.66540  0.36020  Biso   1.000  H
  N72      1.0000 0.32470  0.73420  0.34580  Biso   1.000  N
  H578     1.0000 0.32550  0.69750  0.34390  Biso   1.000  H
  H579     1.0000 0.31610  0.74840  0.32790  Biso   1.000  H
  C311     1.0000 0.13730  0.95860  0.55310  Biso   1.000  C
  C312     1.0000 0.16140  0.97660  0.58290  Biso   1.000  C
  H580     1.0000 0.17940  0.94550  0.59250  Biso   1.000  H
  C313     1.0000 0.11470  0.99990  0.60370  Biso   1.000  C
  C314     1.0000 0.10580  0.00070  0.54020  Biso   1.000  C
  H581     1.0000 0.12810  0.03270  0.53770  Biso   1.000  H
  H582     1.0000 0.07540  0.00910  0.55290  Biso   1.000  H
  H583     1.0000 0.09250  0.98880  0.52120  Biso   1.000  H
  C315     1.0000 0.10260  0.90710  0.55770  Biso   1.000  C
  H584     1.0000 0.12470  0.87910  0.56660  Biso   1.000  H
  H585     1.0000 0.08910  0.89450  0.53900  Biso   1.000  H
  H586     1.0000 0.07240  0.91550  0.57050  Biso   1.000  H
  C316     1.0000 0.37840  0.02120  0.53210  Biso   1.000  C
  C317     1.0000 0.35460  0.07560  0.54370  Biso   1.000  C
  H587     1.0000 0.34520  0.09870  0.52670  Biso   1.000  H
  C318     1.0000 0.39310  0.10740  0.56380  Biso   1.000  C
  C319     1.0000 0.40030  0.98930  0.55740  Biso   1.000  C
  H588     1.0000 0.37210  0.98420  0.57190  Biso   1.000  H
  H589     1.0000 0.43040  0.00880  0.56610  Biso   1.000  H
  H590     1.0000 0.41270  0.95430  0.55040  Biso   1.000  H
  C320     1.0000 0.42110  0.02950  0.50780  Biso   1.000  C
  H591     1.0000 0.40530  0.04990  0.49180  Biso   1.000  H
  H592     1.0000 0.43320  0.99450  0.50060  Biso   1.000  H
  H593     1.0000 0.45180  0.04930  0.51570  Biso   1.000  H
  C321     1.0000 0.32400  0.82240  0.56950  Biso   1.000  C
  C322     1.0000 0.30820  0.76840  0.58370  Biso   1.000  C
  H594     1.0000 0.26820  0.76450  0.58370  Biso   1.000  H
  C323     1.0000 0.33010  0.76430  0.61580  Biso   1.000  C
  C324     1.0000 0.38480  0.82990  0.57190  Biso   1.000  C
  H595     1.0000 0.40300  0.79910  0.56310  Biso   1.000  H
  H596     1.0000 0.39490  0.83240  0.59250  Biso   1.000  H
  H597     1.0000 0.39540  0.86280  0.56190  Biso   1.000  H
  C325     1.0000 0.29500  0.86770  0.58200  Biso   1.000  C
  H598     1.0000 0.25630  0.86140  0.58030  Biso   1.000  H
  H599     1.0000 0.30450  0.90060  0.57160  Biso   1.000  H
  H600     1.0000 0.30470  0.87140  0.60250  Biso   1.000  H
  C326     1.0000 0.32130  0.65590  0.46960  Biso   1.000  C
  C327     1.0000 0.36980  0.63690  0.48820  Biso   1.000  C
  H601     1.0000 0.40410  0.65250  0.48070  Biso   1.000  H
  C328     1.0000 0.37420  0.57160  0.49060  Biso   1.000  C
  C329     1.0000 0.27250  0.62660  0.47750  Biso   1.000  C
  H602     1.0000 0.24220  0.64030  0.46610  Biso   1.000  H
  H603     1.0000 0.26520  0.63140  0.49820  Biso   1.000  H
  H604     1.0000 0.27740  0.58830  0.47330  Biso   1.000  H
  C330     1.0000 0.33050  0.65050  0.43540  Biso   1.000  C
  H605     1.0000 0.36300  0.67010  0.42990  Biso   1.000  H
  H606     1.0000 0.29960  0.66540  0.42510  Biso   1.000  H
  H607     1.0000 0.33470  0.61250  0.43030  Biso   1.000  H
  C331     1.0000 0.47780  0.84070  0.48510  Biso   1.000  C
  C332     1.0000 0.52190  0.84020  0.46130  Biso   1.000  C
  H608     1.0000 0.50800  0.81540  0.44600  Biso   1.000  H
  C333     1.0000 0.57410  0.81670  0.47050  Biso   1.000  C
  C334     1.0000 0.49260  0.87870  0.50820  Biso   1.000  C
  H609     1.0000 0.49980  0.91400  0.49970  Biso   1.000  H
  H610     1.0000 0.52490  0.86580  0.51820  Biso   1.000  H
  H611     1.0000 0.46310  0.88160  0.52220  Biso   1.000  H
  C335     1.0000 0.46700  0.78710  0.49850  Biso   1.000  C
  H612     1.0000 0.45770  0.76130  0.48330  Biso   1.000  H
  H613     1.0000 0.43700  0.79020  0.51220  Biso   1.000  H
  H614     1.0000 0.49900  0.77470  0.50880  Biso   1.000  H
  C336     1.0000 0.39900  0.02410  0.40040  Biso   1.000  C
  C337     1.0000 0.45280  0.03880  0.41280  Biso   1.000  C
  H615     1.0000 0.44700  0.05160  0.43320  Biso   1.000  H
  C338     1.0000 0.48160  0.08450  0.39570  Biso   1.000  C
  C339     1.0000 0.40290  0.00360  0.36990  Biso   1.000  C
  H616     1.0000 0.43010  0.97530  0.36900  Biso   1.000  H
  H617     1.0000 0.41320  0.03310  0.35700  Biso   1.000  H
  H618     1.0000 0.36810  0.98910  0.36390  Biso   1.000  H
  C340     1.0000 0.35740  0.06860  0.40320  Biso   1.000  C
  H619     1.0000 0.35580  0.08070  0.42340  Biso   1.000  H
  H620     1.0000 0.32220  0.05490  0.39730  Biso   1.000  H
  H621     1.0000 0.36750  0.09870  0.39070  Biso   1.000  H
  C341     1.0000 0.19190  0.08560  0.45990  Biso   1.000  C
  C342     1.0000 0.19650  0.12360  0.43440  Biso   1.000  C
  H622     1.0000 0.23550  0.12520  0.42930  Biso   1.000  H
  C343     1.0000 0.17980  0.18150  0.44230  Biso   1.000  C
  C344     1.0000 0.13360  0.08150  0.46830  Biso   1.000  C
  H623     1.0000 0.12970  0.05640  0.48460  Biso   1.000  H
  H624     1.0000 0.11270  0.06860  0.45170  Biso   1.000  H
  H625     1.0000 0.12040  0.11700  0.47420  Biso   1.000  H
  C345     1.0000 0.22550  0.10090  0.48530  Biso   1.000  C
  H626     1.0000 0.26310  0.10390  0.47930  Biso   1.000  H
  H627     1.0000 0.22240  0.07340  0.50050  Biso   1.000  H
  H628     1.0000 0.21330  0.13550  0.49300  Biso   1.000  H
  C346     1.0000 0.21060  0.94610  0.34850  Biso   1.000  C
  C347     1.0000 0.15830  0.97470  0.34230  Biso   1.000  C
  H629     1.0000 0.12870  0.95110  0.34950  Biso   1.000  H
  C348     1.0000 0.14840  0.98400  0.30890  Biso   1.000  C
  C349     1.0000 0.26070  0.97700  0.33980  Biso   1.000  C
  H630     1.0000 0.26000  0.01260  0.34880  Biso   1.000  H
  H631     1.0000 0.26180  0.98080  0.31860  Biso   1.000  H
  H632     1.0000 0.29260  0.95750  0.34640  Biso   1.000  H
  C350     1.0000 0.21190  0.88940  0.33490  Biso   1.000  C
  H633     1.0000 0.18040  0.86910  0.34140  Biso   1.000  H
  H634     1.0000 0.24460  0.87080  0.34110  Biso   1.000  H
  H635     1.0000 0.21140  0.89240  0.31370  Biso   1.000  H
  C351     1.0000 0.04140  0.92240  0.44420  Biso   1.000  C
  C352     1.0000 0.99970  0.88050  0.43890  Biso   1.000  C
  H636     1.0000 0.01150  0.85980  0.42150  Biso   1.000  H
  C353     1.0000 0.94690  0.90300  0.43210  Biso   1.000  C
  C354     1.0000 0.02920  0.95540  0.47090  Biso   1.000  C
  H637     1.0000 0.05740  0.98240  0.47360  Biso   1.000  H
  H638     1.0000 0.02770  0.93190  0.48800  Biso   1.000  H
  H639     1.0000 0.99450  0.97340  0.46850  Biso   1.000  H
  C355     1.0000 0.05260  0.95700  0.41860  Biso   1.000  C
  H640     1.0000 0.08060  0.98300  0.42360  Biso   1.000  H
  H641     1.0000 0.01990  0.97600  0.41300  Biso   1.000  H
  H642     1.0000 0.06480  0.93460  0.40240  Biso   1.000  H
  C356     1.0000 0.13000  0.72570  0.51650  Biso   1.000  C
  C357     1.0000 0.07590  0.74420  0.53000  Biso   1.000  C
  H643     1.0000 0.08370  0.77560  0.54280  Biso   1.000  H
  C358     1.0000 0.05040  0.69970  0.54940  Biso   1.000  C
  C359     1.0000 0.12010  0.67650  0.49710  Biso   1.000  C
  H644     1.0000 0.09150  0.68460  0.48320  Biso   1.000  H
  H645     1.0000 0.10950  0.64600  0.50920  Biso   1.000  H
  H646     1.0000 0.15320  0.66770  0.48660  Biso   1.000  H
  C360     1.0000 0.17320  0.71630  0.53940  Biso   1.000  C
  H647     1.0000 0.17760  0.74870  0.55120  Biso   1.000  H
  H648     1.0000 0.20730  0.70770  0.52980  Biso   1.000  H
  H649     1.0000 0.16260  0.68630  0.55190  Biso   1.000  H
  C361     1.0000 0.15520  0.71240  0.39980  Biso   1.000  C
  C362     1.0000 0.15490  0.70460  0.36660  Biso   1.000  C
  H650     1.0000 0.13830  0.73680  0.35730  Biso   1.000  H
  C363     1.0000 0.12350  0.65370  0.35700  Biso   1.000  C
  C364     1.0000 0.17520  0.66330  0.41490  Biso   1.000  C
  H651     1.0000 0.15010  0.63370  0.41170  Biso   1.000  H
  H652     1.0000 0.17820  0.67050  0.43580  Biso   1.000  H
  H653     1.0000 0.21050  0.65360  0.40710  Biso   1.000  H
  C365     1.0000 0.10130  0.72730  0.41410  Biso   1.000  C
  H654     1.0000 0.07460  0.69970  0.40960  Biso   1.000  H
  H655     1.0000 0.08900  0.76200  0.40650  Biso   1.000  H
  H656     1.0000 0.10610  0.72980  0.43520  Biso   1.000  H
  C366     1.0000 0.37810  0.81070  0.36290  Biso   1.000  C
  C367     1.0000 0.38200  0.75430  0.35460  Biso   1.000  C
  H657     1.0000 0.39330  0.73360  0.37220  Biso   1.000  H
  C368     1.0000 0.42280  0.74410  0.33110  Biso   1.000  C
  C369     1.0000 0.36230  0.84790  0.33950  Biso   1.000  C
  H658     1.0000 0.36130  0.88460  0.34710  Biso   1.000  H
  H659     1.0000 0.32660  0.83810  0.33230  Biso   1.000  H
  H660     1.0000 0.38830  0.84580  0.32360  Biso   1.000  H
  C370     1.0000 0.43060  0.83000  0.37620  Biso   1.000  C
  H661     1.0000 0.42680  0.86760  0.38210  Biso   1.000  H
  H662     1.0000 0.45940  0.82690  0.36180  Biso   1.000  H
  H663     1.0000 0.43920  0.80810  0.39320  Biso   1.000  H
  La16     1.0000 0.42207  0.12214  0.63818  Biso   1.000  La
  La17     1.0000 0.39490  0.45220  0.47640  Biso   1.000  La
  La18     1.0000 0.34260  0.39830  0.44570  Biso   1.000  La
  O170     1.0000 0.41680  0.06980  0.68900  Biso   1.000  O
  O171     1.0000 0.34070  0.08970  0.66650  Biso   1.000  O
  C371     1.0000 0.37030  0.07010  0.69020  Biso   1.000  C
  C372     1.0000 0.33350  0.04600  0.71600  Biso   1.000  C
  H664     1.0000 0.29550  0.05100  0.71120  Biso   1.000  H
  H665     1.0000 0.34170  0.06460  0.73420  Biso   1.000  H
  H666     1.0000 0.34100  0.00760  0.71830  Biso   1.000  H
  O172     1.0000 0.34670  0.49720  0.42170  Biso   1.000  O
  O173     1.0000 0.29420  0.44710  0.49360  Biso   1.000  O
  O174     1.0000 0.34830  0.31230  0.47390  Biso   1.000  O
  Ag49     1.0000 0.65604  0.71208  0.77215  Biso   1.000  Ag
  Ag50     1.0000 0.61015  0.84585  0.75127  Biso   1.000  Ag
  Ag51     1.0000 0.50038  0.81020  0.71151  Biso   1.000  Ag
  Ag52     1.0000 0.55774  0.67479  0.72618  Biso   1.000  Ag
  Ag53     1.0000 0.73215  0.72925  0.70953  Biso   1.000  Ag
  Ag54     1.0000 0.71398  0.87110  0.69014  Biso   1.000  Ag
  Ag55     1.0000 0.59139  0.80061  0.65550  Biso   1.000  Ag
  Ag56     1.0000 0.64009  0.65067  0.65316  Biso   1.000  Ag
  Pd37     1.0000 0.49710  0.75550  0.79617  Biso   1.000  Pd
  Pd38     1.0000 0.77110  0.83075  0.77375  Biso   1.000  Pd
  Pd39     1.0000 0.57041  0.95410  0.68772  Biso   1.000  Pd
  Pd40     1.0000 0.47676  0.68492  0.65065  Biso   1.000  Pd
  Pd41     1.0000 0.68222  0.57106  0.72891  Biso   1.000  Pd
  Pd42     1.0000 0.74581  0.76551  0.62462  Biso   1.000  Pd
  S73      1.0000 0.55910  0.69517  0.78037  Biso   1.000  S
  S74      1.0000 0.51506  0.82294  0.76429  Biso   1.000  S
  S75      1.0000 0.68532  0.80555  0.78156  Biso   1.000  S
  S76      1.0000 0.77051  0.81762  0.72499  Biso   1.000  S
  S77      1.0000 0.63588  0.91706  0.71593  Biso   1.000  S
  S78      1.0000 0.53189  0.87531  0.67439  Biso   1.000  S
  S79      1.0000 0.48088  0.71530  0.69705  Biso   1.000  S
  S80      1.0000 0.56162  0.70981  0.63869  Biso   1.000  S
  S81      1.0000 0.61529  0.60550  0.70073  Biso   1.000  S
  S82      1.0000 0.71463  0.65158  0.74419  Biso   1.000  S
  S83      1.0000 0.72883  0.69927  0.65728  Biso   1.000  S
  S84      1.0000 0.68658  0.82657  0.64295  Biso   1.000  S
  O175     1.0000 0.45140  0.60890  0.85360  Biso   1.000  O
  O176     1.0000 0.53440  0.58990  0.86830  Biso   1.000  O
  O177     1.0000 0.39130  0.88260  0.83977  Biso   1.000  O
  O178     1.0000 0.37290  0.93420  0.80040  Biso   1.000  O
  O179     1.0000 0.75650  0.87100  0.87100  Biso   1.000  O
  O180     1.0000 0.71370  0.79460  0.88260  Biso   1.000  O
  O181     1.0000 0.95490  0.85510  0.75860  Biso   1.000  O
  O182     1.0000 0.94060  0.90010  0.71560  Biso   1.000  O
  O183     1.0000 0.64970  0.11070  0.72550  Biso   1.000  O
  O184     1.0000 0.73250  0.07610  0.72290  Biso   1.000  O
  O185     1.0000 0.42980  0.02260  0.63099  Biso   1.000  O
  O186     1.0000 0.36990  0.96150  0.64650  Biso   1.000  O
  O187     1.0000 0.30280  0.63460  0.68300  Biso   1.000  O
  O188     1.0000 0.29140  0.71020  0.70710  Biso   1.000  O
  O189     1.0000 0.46870  0.66750  0.54880  Biso   1.000  O
  O190     1.0000 0.55620  0.62430  0.54480  Biso   1.000  O
  O191     1.0000 0.58680  0.41430  0.70230  Biso   1.000  O
  O192     1.0000 0.58550  0.43510  0.65460  Biso   1.000  O
  O193     1.0000 0.82180  0.50920  0.79145  Biso   1.000  O
  O194     1.0000 0.81010  0.57520  0.82271  Biso   1.000  O
  O195     1.0000 0.88610  0.64660  0.60110  Biso   1.000  O
  O196     1.0000 0.83930  0.57130  0.60620  Biso   1.000  O
  O197     1.0000 0.76530  0.90500  0.55660  Biso   1.000  O
  O198     1.0000 0.75760  0.96860  0.58540  Biso   1.000  O
  N73      1.0000 0.48170  0.69940  0.82780  Biso   1.000  N
  H667     1.0000 0.47480  0.71710  0.84490  Biso   1.000  H
  H668     1.0000 0.45110  0.68100  0.82270  Biso   1.000  H
  N74      1.0000 0.43510  0.80510  0.81060  Biso   1.000  N
  H669     1.0000 0.40410  0.78510  0.81100  Biso   1.000  H
  H670     1.0000 0.44260  0.81490  0.82940  Biso   1.000  H
  N75      1.0000 0.77800  0.83290  0.81780  Biso   1.000  N
  H671     1.0000 0.80890  0.81530  0.82310  Biso   1.000  H
  H672     1.0000 0.78130  0.86810  0.82360  Biso   1.000  H
  N76      1.0000 0.84720  0.86070  0.76840  Biso   1.000  N
  H673     1.0000 0.84970  0.89260  0.77830  Biso   1.000  H
  H674     1.0000 0.87120  0.83720  0.77670  Biso   1.000  H
  N77      1.0000 0.60540  0.02650  0.69640  Biso   1.000  N
  H675     1.0000 0.60960  0.04490  0.67920  Biso   1.000  H
  H676     1.0000 0.58270  0.04620  0.70800  Biso   1.000  H
  N78      1.0000 0.50830  0.98900  0.66410  Biso   1.000  N
  H677     1.0000 0.49860  0.02090  0.67260  Biso   1.000  H
  H678     1.0000 0.51990  0.99620  0.64550  Biso   1.000  H
  N79      1.0000 0.39700  0.66890  0.65860  Biso   1.000  N
  H679     1.0000 0.37710  0.67910  0.64270  Biso   1.000  H
  H680     1.0000 0.39270  0.63250  0.66100  Biso   1.000  H
  N80      1.0000 0.47180  0.65440  0.60920  Biso   1.000  N
  H681     1.0000 0.46150  0.61900  0.61020  Biso   1.000  H
  H682     1.0000 0.44570  0.67270  0.59910  Biso   1.000  H
  N81      1.0000 0.65810  0.49790  0.71380  Biso   1.000  N
  H683     1.0000 0.68790  0.47900  0.70810  Biso   1.000  H
  H684     1.0000 0.64240  0.47940  0.72880  Biso   1.000  H
  N82      1.0000 0.73650  0.53890  0.75640  Biso   1.000  N
  H685     1.0000 0.72160  0.50910  0.76490  Biso   1.000  H
  H686     1.0000 0.76570  0.52770  0.74570  Biso   1.000  H
  N83      1.0000 0.80040  0.71140  0.60630  Biso   1.000  N
  H687     1.0000 0.79610  0.71180  0.58640  Biso   1.000  H
  H688     1.0000 0.83460  0.72320  0.61020  Biso   1.000  H
  N84      1.0000 0.76580  0.82470  0.59580  Biso   1.000  N
  H689     1.0000 0.80250  0.82550  0.59390  Biso   1.000  H
  H690     1.0000 0.75160  0.81610  0.57790  Biso   1.000  H
  C373     1.0000 0.54140  0.63730  0.80310  Biso   1.000  C
  C374     1.0000 0.52340  0.66140  0.83290  Biso   1.000  C
  H691     1.0000 0.55450  0.67940  0.84250  Biso   1.000  H
  C375     1.0000 0.50010  0.61470  0.85370  Biso   1.000  C
  C376     1.0000 0.49930  0.60580  0.79020  Biso   1.000  C
  H692     1.0000 0.46730  0.62810  0.78770  Biso   1.000  H
  H693     1.0000 0.49090  0.57540  0.80290  Biso   1.000  H
  H694     1.0000 0.51120  0.59250  0.77120  Biso   1.000  H
  C377     1.0000 0.59290  0.60260  0.80770  Biso   1.000  C
  H695     1.0000 0.62090  0.62470  0.81660  Biso   1.000  H
  H696     1.0000 0.60550  0.58910  0.78900  Biso   1.000  H
  H697     1.0000 0.58450  0.57240  0.82050  Biso   1.000  H
  C378     1.0000 0.47880  0.87840  0.78210  Biso   1.000  C
  C379     1.0000 0.42440  0.85460  0.79370  Biso   1.000  C
  H698     1.0000 0.40130  0.84520  0.77670  Biso   1.000  H
  C380     1.0000 0.39260  0.89310  0.81380  Biso   1.000  C
  C381     1.0000 0.51070  0.90030  0.80740  Biso   1.000  C
  H699     1.0000 0.51580  0.87210  0.82190  Biso   1.000  H
  H700     1.0000 0.49120  0.93040  0.81610  Biso   1.000  H
  H701     1.0000 0.54570  0.91270  0.80040  Biso   1.000  H
  C382     1.0000 0.47050  0.92110  0.75780  Biso   1.000  C
  H702     1.0000 0.45010  0.90530  0.74180  Biso   1.000  H
  H703     1.0000 0.50550  0.93320  0.75060  Biso   1.000  H
  H704     1.0000 0.45070  0.95180  0.76570  Biso   1.000  H
  C383     1.0000 0.67760  0.82400  0.81950  Biso   1.000  C
  C384     1.0000 0.73160  0.80820  0.83370  Biso   1.000  C
  H705     1.0000 0.73550  0.76820  0.83370  Biso   1.000  H
  C385     1.0000 0.73570  0.83010  0.86580  Biso   1.000  C
  C386     1.0000 0.67010  0.88480  0.82190  Biso   1.000  C
  H706     1.0000 0.70090  0.90300  0.81310  Biso   1.000  H
  H707     1.0000 0.66760  0.89490  0.84250  Biso   1.000  H
  H708     1.0000 0.63720  0.89540  0.81190  Biso   1.000  H
  C387     1.0000 0.63230  0.79500  0.83200  Biso   1.000  C
  H709     1.0000 0.63860  0.75630  0.83030  Biso   1.000  H
  H710     1.0000 0.59940  0.80450  0.82160  Biso   1.000  H
  H711     1.0000 0.62860  0.80470  0.85250  Biso   1.000  H
  C388     1.0000 0.84410  0.82130  0.71960  Biso   1.000  C
  C389     1.0000 0.86310  0.86980  0.73820  Biso   1.000  C
  H712     1.0000 0.84750  0.90410  0.73070  Biso   1.000  H
  C390     1.0000 0.92840  0.87420  0.74060  Biso   1.000  C
  C391     1.0000 0.87340  0.77250  0.72750  Biso   1.000  C
  H713     1.0000 0.85970  0.74220  0.71610  Biso   1.000  H
  H714     1.0000 0.86860  0.76520  0.74820  Biso   1.000  H
  H715     1.0000 0.91170  0.77740  0.72330  Biso   1.000  H
  C392     1.0000 0.84950  0.83050  0.68540  Biso   1.000  C
  H716     1.0000 0.82990  0.86300  0.67990  Biso   1.000  H
  H717     1.0000 0.83460  0.79960  0.67510  Biso   1.000  H
  H718     1.0000 0.88750  0.83470  0.68030  Biso   1.000  H
  C393     1.0000 0.65930  0.97780  0.73510  Biso   1.000  C
  C394     1.0000 0.65980  0.02190  0.71130  Biso   1.000  C
  H719     1.0000 0.68460  0.00800  0.69600  Biso   1.000  H
  C395     1.0000 0.68330  0.07410  0.72050  Biso   1.000  C
  C396     1.0000 0.62130  0.99260  0.75820  Biso   1.000  C
  H720     1.0000 0.58600  0.99980  0.74970  Biso   1.000  H
  H721     1.0000 0.63420  0.02490  0.76820  Biso   1.000  H
  H722     1.0000 0.61840  0.96310  0.77220  Biso   1.000  H
  C397     1.0000 0.71290  0.96700  0.74850  Biso   1.000  C
  H723     1.0000 0.73870  0.95770  0.73330  Biso   1.000  H
  H724     1.0000 0.70980  0.93700  0.76220  Biso   1.000  H
  H725     1.0000 0.72530  0.99900  0.75880  Biso   1.000  H
  C398     1.0000 0.47590  0.89900  0.65040  Biso   1.000  C
  C399     1.0000 0.46120  0.95280  0.66280  Biso   1.000  C
  H726     1.0000 0.44840  0.94700  0.68320  Biso   1.000  H
  C400     1.0000 0.41550  0.98160  0.64570  Biso   1.000  C
  C401     1.0000 0.49640  0.90290  0.61990  Biso   1.000  C
  H727     1.0000 0.52470  0.93010  0.61900  Biso   1.000  H
  H728     1.0000 0.46690  0.91320  0.60700  Biso   1.000  H
  H729     1.0000 0.51090  0.86810  0.61390  Biso   1.000  H
  C402     1.0000 0.43140  0.85740  0.65320  Biso   1.000  C
  H730     1.0000 0.41930  0.85580  0.67340  Biso   1.000  H
  H731     1.0000 0.44510  0.82220  0.64730  Biso   1.000  H
  H732     1.0000 0.40130  0.86750  0.64070  Biso   1.000  H
  C403     1.0000 0.41440  0.69190  0.70990  Biso   1.000  C
  C404     1.0000 0.37640  0.69650  0.68440  Biso   1.000  C
  H733     1.0000 0.37480  0.73550  0.67930  Biso   1.000  H
  C405     1.0000 0.31850  0.67980  0.69230  Biso   1.000  C
  C406     1.0000 0.41850  0.63360  0.71830  Biso   1.000  C
  H734     1.0000 0.44360  0.62970  0.73460  Biso   1.000  H
  H735     1.0000 0.43140  0.61270  0.70170  Biso   1.000  H
  H736     1.0000 0.38300  0.62040  0.72420  Biso   1.000  H
  C407     1.0000 0.39910  0.72550  0.73530  Biso   1.000  C
  H737     1.0000 0.39610  0.76310  0.72930  Biso   1.000  H
  H738     1.0000 0.42660  0.72240  0.75050  Biso   1.000  H
  H739     1.0000 0.36450  0.71330  0.74300  Biso   1.000  H
  C408     1.0000 0.55390  0.71060  0.59850  Biso   1.000  C
  C409     1.0000 0.52530  0.65830  0.59230  Biso   1.000  C
  H740     1.0000 0.54890  0.62870  0.59950  Biso   1.000  H
  C410     1.0000 0.51600  0.64840  0.55890  Biso   1.000  C
  C411     1.0000 0.52300  0.76070  0.58980  Biso   1.000  C
  H741     1.0000 0.48740  0.76000  0.59880  Biso   1.000  H
  H742     1.0000 0.51920  0.76180  0.56860  Biso   1.000  H
  H743     1.0000 0.54250  0.79260  0.59640  Biso   1.000  H
  C412     1.0000 0.61060  0.71190  0.58490  Biso   1.000  C
  H744     1.0000 0.63090  0.68040  0.59140  Biso   1.000  H
  H745     1.0000 0.62920  0.74460  0.59110  Biso   1.000  H
  H746     1.0000 0.60760  0.71140  0.56370  Biso   1.000  H
  C413     1.0000 0.57760  0.54140  0.69420  Biso   1.000  C
  C414     1.0000 0.61950  0.49970  0.68890  Biso   1.000  C
  H747     1.0000 0.64020  0.51150  0.67150  Biso   1.000  H
  C415     1.0000 0.59700  0.44690  0.68210  Biso   1.000  C
  C416     1.0000 0.54460  0.52920  0.72090  Biso   1.000  C
  H748     1.0000 0.51760  0.55740  0.72360  Biso   1.000  H
  H749     1.0000 0.56810  0.52770  0.73800  Biso   1.000  H
  H750     1.0000 0.52660  0.49450  0.71850  Biso   1.000  H
  C417     1.0000 0.54300  0.55260  0.66860  Biso   1.000  C
  H751     1.0000 0.51700  0.58060  0.67360  Biso   1.000  H
  H752     1.0000 0.52400  0.51990  0.66300  Biso   1.000  H
  H753     1.0000 0.56540  0.56480  0.65240  Biso   1.000  H
  C418     1.0000 0.77430  0.63000  0.76650  Biso   1.000  C
  C419     1.0000 0.75580  0.57590  0.78000  Biso   1.000  C
  H754     1.0000 0.72440  0.58370  0.79280  Biso   1.000  H
  C420     1.0000 0.80030  0.55040  0.79940  Biso   1.000  C
  C421     1.0000 0.82350  0.62010  0.74710  Biso   1.000  C
  H755     1.0000 0.81540  0.59150  0.73320  Biso   1.000  H
  H756     1.0000 0.85400  0.60950  0.75920  Biso   1.000  H
  H757     1.0000 0.83230  0.65320  0.73660  Biso   1.000  H
  C422     1.0000 0.78370  0.67320  0.78940  Biso   1.000  C
  H758     1.0000 0.75130  0.67760  0.80120  Biso   1.000  H
  H759     1.0000 0.79230  0.70730  0.77980  Biso   1.000  H
  H760     1.0000 0.81370  0.66260  0.80190  Biso   1.000  H
  C423     1.0000 0.78760  0.65520  0.64980  Biso   1.000  C
  C424     1.0000 0.79540  0.65490  0.61660  Biso   1.000  C
  H761     1.0000 0.76320  0.63830  0.60730  Biso   1.000  H
  C425     1.0000 0.84630  0.62350  0.60700  Biso   1.000  C
  C426     1.0000 0.83670  0.67520  0.66490  Biso   1.000  C
  H762     1.0000 0.86630  0.65010  0.66170  Biso   1.000  H
  H763     1.0000 0.82950  0.67820  0.68580  Biso   1.000  H
  H764     1.0000 0.84640  0.71050  0.65710  Biso   1.000  H
  C427     1.0000 0.77270  0.60130  0.66410  Biso   1.000  C
  H765     1.0000 0.80030  0.57460  0.65960  Biso   1.000  H
  H766     1.0000 0.73800  0.58900  0.65650  Biso   1.000  H
  H767     1.0000 0.77020  0.60610  0.68520  Biso   1.000  H
  C428     1.0000 0.68930  0.87810  0.61290  Biso   1.000  C
  C429     1.0000 0.74570  0.88200  0.60460  Biso   1.000  C
  H768     1.0000 0.76640  0.89330  0.62220  Biso   1.000  H
  C430     1.0000 0.75590  0.92280  0.58110  Biso   1.000  C
  C431     1.0000 0.65210  0.86230  0.58950  Biso   1.000  C
  H769     1.0000 0.61540  0.86130  0.59710  Biso   1.000  H
  H770     1.0000 0.66190  0.82660  0.58230  Biso   1.000  H
  H771     1.0000 0.65420  0.88830  0.57360  Biso   1.000  H
  C432     1.0000 0.67000  0.93060  0.62620  Biso   1.000  C
  H772     1.0000 0.63240  0.92680  0.63210  Biso   1.000  H
  H773     1.0000 0.67310  0.95940  0.61180  Biso   1.000  H
  H774     1.0000 0.69190  0.93920  0.64320  Biso   1.000  H
  La19     1.0000 0.37786  0.92207  0.88818  Biso   1.000  La
  La20     1.0000 0.04780  0.89490  0.72640  Biso   1.000  La
  La21     1.0000 0.10170  0.84260  0.69570  Biso   1.000  La
  O199     1.0000 0.43020  0.91680  0.93900  Biso   1.000  O
  O200     1.0000 0.41030  0.84070  0.91650  Biso   1.000  O
  C433     1.0000 0.42990  0.87030  0.94020  Biso   1.000  C
  C434     1.0000 0.45400  0.83350  0.96600  Biso   1.000  C
  H775     1.0000 0.44900  0.79550  0.96120  Biso   1.000  H
  H776     1.0000 0.43540  0.84170  0.98420  Biso   1.000  H
  H777     1.0000 0.49240  0.84100  0.96830  Biso   1.000  H
  O201     1.0000 0.00280  0.84670  0.67170  Biso   1.000  O
  O202     1.0000 0.05290  0.79420  0.74360  Biso   1.000  O
  O203     1.0000 0.18770  0.84830  0.72390  Biso   1.000  O
  Ag57     1.0000 0.34396  0.28792  0.27215  Biso   1.000  Ag
  Ag58     1.0000 0.38985  0.15415  0.25127  Biso   1.000  Ag
  Ag59     1.0000 0.49962  0.18980  0.21151  Biso   1.000  Ag
  Ag60     1.0000 0.44226  0.32521  0.22618  Biso   1.000  Ag
  Ag61     1.0000 0.26785  0.27075  0.20953  Biso   1.000  Ag
  Ag62     1.0000 0.28602  0.12890  0.19014  Biso   1.000  Ag
  Ag63     1.0000 0.40861  0.19939  0.15550  Biso   1.000  Ag
  Ag64     1.0000 0.35991  0.34933  0.15316  Biso   1.000  Ag
  Pd43     1.0000 0.50290  0.24450  0.29617  Biso   1.000  Pd
  Pd44     1.0000 0.22890  0.16925  0.27375  Biso   1.000  Pd
  Pd45     1.0000 0.42959  0.04590  0.18772  Biso   1.000  Pd
  Pd46     1.0000 0.52324  0.31508  0.15065  Biso   1.000  Pd
  Pd47     1.0000 0.31778  0.42894  0.22891  Biso   1.000  Pd
  Pd48     1.0000 0.25419  0.23449  0.12462  Biso   1.000  Pd
  S85      1.0000 0.44090  0.30483  0.28037  Biso   1.000  S
  S86      1.0000 0.48494  0.17706  0.26429  Biso   1.000  S
  S87      1.0000 0.31468  0.19445  0.28156  Biso   1.000  S
  S88      1.0000 0.22949  0.18238  0.22499  Biso   1.000  S
  S89      1.0000 0.36412  0.08294  0.21593  Biso   1.000  S
  S90      1.0000 0.46811  0.12469  0.17439  Biso   1.000  S
  S91      1.0000 0.51912  0.28470  0.19705  Biso   1.000  S
  S92      1.0000 0.43838  0.29019  0.13869  Biso   1.000  S
  S93      1.0000 0.38471  0.39450  0.20073  Biso   1.000  S
  S94      1.0000 0.28537  0.34842  0.24419  Biso   1.000  S
  S95      1.0000 0.27117  0.30073  0.15728  Biso   1.000  S
  S96      1.0000 0.31342  0.17343  0.14295  Biso   1.000  S
  O204     1.0000 0.54860  0.39110  0.35360  Biso   1.000  O
  O205     1.0000 0.46560  0.41010  0.36830  Biso   1.000  O
  O206     1.0000 0.60870  0.11740  0.33977  Biso   1.000  O
  O207     1.0000 0.62710  0.06580  0.30040  Biso   1.000  O
  O208     1.0000 0.24350  0.12900  0.37100  Biso   1.000  O
  O209     1.0000 0.28630  0.20540  0.38260  Biso   1.000  O
  O210     1.0000 0.04510  0.14490  0.25860  Biso   1.000  O
  O211     1.0000 0.05940  0.09990  0.21560  Biso   1.000  O
  O212     1.0000 0.35030  0.88930  0.22550  Biso   1.000  O
  O213     1.0000 0.26750  0.92390  0.22290  Biso   1.000  O
  O214     1.0000 0.57020  0.97740  0.13099  Biso   1.000  O
  O215     1.0000 0.63010  0.03850  0.14650  Biso   1.000  O
  O216     1.0000 0.69720  0.36540  0.18300  Biso   1.000  O
  O217     1.0000 0.70860  0.28980  0.20710  Biso   1.000  O
  O218     1.0000 0.53130  0.33250  0.04880  Biso   1.000  O
  O219     1.0000 0.44380  0.37570  0.04480  Biso   1.000  O
  O220     1.0000 0.41320  0.58570  0.20230  Biso   1.000  O
  O221     1.0000 0.41450  0.56490  0.15460  Biso   1.000  O
  O222     1.0000 0.17820  0.49080  0.29145  Biso   1.000  O
  O223     1.0000 0.18990  0.42480  0.32271  Biso   1.000  O
  O224     1.0000 0.11390  0.35340  0.10110  Biso   1.000  O
  O225     1.0000 0.16070  0.42870  0.10620  Biso   1.000  O
  O226     1.0000 0.23470  0.09500  0.05660  Biso   1.000  O
  O227     1.0000 0.24240  0.03140  0.08540  Biso   1.000  O
  N85      1.0000 0.51830  0.30060  0.32780  Biso   1.000  N
  H778     1.0000 0.52520  0.28290  0.34490  Biso   1.000  H
  H779     1.0000 0.54890  0.31900  0.32270  Biso   1.000  H
  N86      1.0000 0.56490  0.19490  0.31060  Biso   1.000  N
  H780     1.0000 0.59590  0.21490  0.31100  Biso   1.000  H
  H781     1.0000 0.55740  0.18510  0.32940  Biso   1.000  H
  N87      1.0000 0.22200  0.16710  0.31780  Biso   1.000  N
  H782     1.0000 0.19110  0.18470  0.32310  Biso   1.000  H
  H783     1.0000 0.21870  0.13190  0.32360  Biso   1.000  H
  N88      1.0000 0.15280  0.13930  0.26840  Biso   1.000  N
  H784     1.0000 0.15030  0.10740  0.27830  Biso   1.000  H
  H785     1.0000 0.12880  0.16280  0.27670  Biso   1.000  H
  N89      1.0000 0.39460  0.97350  0.19640  Biso   1.000  N
  H786     1.0000 0.39040  0.95510  0.17920  Biso   1.000  H
  H787     1.0000 0.41730  0.95380  0.20800  Biso   1.000  H
  N90      1.0000 0.49170  0.01100  0.16410  Biso   1.000  N
  H788     1.0000 0.50140  0.97910  0.17260  Biso   1.000  H
  H789     1.0000 0.48010  0.00380  0.14550  Biso   1.000  H
  N91      1.0000 0.60300  0.33110  0.15860  Biso   1.000  N
  H790     1.0000 0.62290  0.32090  0.14270  Biso   1.000  H
  H791     1.0000 0.60730  0.36750  0.16100  Biso   1.000  H
  N92      1.0000 0.52820  0.34560  0.10920  Biso   1.000  N
  H792     1.0000 0.53850  0.38100  0.11020  Biso   1.000  H
  H793     1.0000 0.55430  0.32730  0.09910  Biso   1.000  H
  N93      1.0000 0.34190  0.50210  0.21380  Biso   1.000  N
  H794     1.0000 0.31210  0.52100  0.20810  Biso   1.000  H
  H795     1.0000 0.35760  0.52060  0.22880  Biso   1.000  H
  N94      1.0000 0.26350  0.46110  0.25640  Biso   1.000  N
  H796     1.0000 0.27840  0.49090  0.26490  Biso   1.000  H
  H797     1.0000 0.23430  0.47230  0.24570  Biso   1.000  H
  N95      1.0000 0.19960  0.28860  0.10630  Biso   1.000  N
  H798     1.0000 0.20390  0.28820  0.08640  Biso   1.000  H
  H799     1.0000 0.16540  0.27680  0.11020  Biso   1.000  H
  N96      1.0000 0.23420  0.17530  0.09580  Biso   1.000  N
  H800     1.0000 0.19750  0.17450  0.09390  Biso   1.000  H
  H801     1.0000 0.24840  0.18390  0.07790  Biso   1.000  H
  C435     1.0000 0.45860  0.36270  0.30310  Biso   1.000  C
  C436     1.0000 0.47660  0.33860  0.33290  Biso   1.000  C
  H802     1.0000 0.44550  0.32060  0.34250  Biso   1.000  H
  C437     1.0000 0.49990  0.38530  0.35370  Biso   1.000  C
  C438     1.0000 0.50070  0.39420  0.29020  Biso   1.000  C
  H803     1.0000 0.53270  0.37190  0.28770  Biso   1.000  H
  H804     1.0000 0.50910  0.42460  0.30290  Biso   1.000  H
  H805     1.0000 0.48880  0.40750  0.27120  Biso   1.000  H
  C439     1.0000 0.40710  0.39740  0.30770  Biso   1.000  C
  H806     1.0000 0.37910  0.37530  0.31660  Biso   1.000  H
  H807     1.0000 0.39450  0.41090  0.28900  Biso   1.000  H
  H808     1.0000 0.41550  0.42760  0.32050  Biso   1.000  H
  C440     1.0000 0.52120  0.12160  0.28210  Biso   1.000  C
  C441     1.0000 0.57560  0.14540  0.29370  Biso   1.000  C
  H809     1.0000 0.59870  0.15480  0.27670  Biso   1.000  H
  C442     1.0000 0.60740  0.10690  0.31380  Biso   1.000  C
  C443     1.0000 0.48930  0.09970  0.30740  Biso   1.000  C
  H810     1.0000 0.48420  0.12790  0.32190  Biso   1.000  H
  H811     1.0000 0.50880  0.06960  0.31610  Biso   1.000  H
  H812     1.0000 0.45430  0.08730  0.30040  Biso   1.000  H
  C444     1.0000 0.52950  0.07890  0.25780  Biso   1.000  C
  H813     1.0000 0.54990  0.09470  0.24180  Biso   1.000  H
  H814     1.0000 0.49450  0.06680  0.25060  Biso   1.000  H
  H815     1.0000 0.54930  0.04820  0.26570  Biso   1.000  H
  C445     1.0000 0.32240  0.17600  0.31950  Biso   1.000  C
  C446     1.0000 0.26840  0.19180  0.33370  Biso   1.000  C
  H816     1.0000 0.26450  0.23180  0.33370  Biso   1.000  H
  C447     1.0000 0.26430  0.16990  0.36580  Biso   1.000  C
  C448     1.0000 0.32990  0.11520  0.32190  Biso   1.000  C
  H817     1.0000 0.29910  0.09700  0.31310  Biso   1.000  H
  H818     1.0000 0.33240  0.10510  0.34250  Biso   1.000  H
  H819     1.0000 0.36280  0.10460  0.31190  Biso   1.000  H
  C449     1.0000 0.36770  0.20500  0.33200  Biso   1.000  C
  H820     1.0000 0.36140  0.24370  0.33030  Biso   1.000  H
  H821     1.0000 0.40060  0.19550  0.32160  Biso   1.000  H
  H822     1.0000 0.37140  0.19530  0.35250  Biso   1.000  H
  C450     1.0000 0.15590  0.17870  0.21960  Biso   1.000  C
  C451     1.0000 0.13690  0.13020  0.23820  Biso   1.000  C
  H823     1.0000 0.15250  0.09590  0.23070  Biso   1.000  H
  C452     1.0000 0.07160  0.12580  0.24060  Biso   1.000  C
  C453     1.0000 0.12660  0.22750  0.22750  Biso   1.000  C
  H824     1.0000 0.14030  0.25780  0.21610  Biso   1.000  H
  H825     1.0000 0.13140  0.23480  0.24820  Biso   1.000  H
  H826     1.0000 0.08830  0.22260  0.22330  Biso   1.000  H
  C454     1.0000 0.15050  0.16950  0.18540  Biso   1.000  C
  H827     1.0000 0.17010  0.13700  0.17990  Biso   1.000  H
  H828     1.0000 0.16540  0.20040  0.17510  Biso   1.000  H
  H829     1.0000 0.11250  0.16530  0.18030  Biso   1.000  H
  C455     1.0000 0.34070  0.02220  0.23510  Biso   1.000  C
  C456     1.0000 0.34020  0.97810  0.21130  Biso   1.000  C
  H830     1.0000 0.31540  0.99200  0.19600  Biso   1.000  H
  C457     1.0000 0.31670  0.92590  0.22050  Biso   1.000  C
  C458     1.0000 0.37870  0.00740  0.25820  Biso   1.000  C
  H831     1.0000 0.41400  0.00020  0.24970  Biso   1.000  H
  H832     1.0000 0.36580  0.97510  0.26820  Biso   1.000  H
  H833     1.0000 0.38160  0.03690  0.27220  Biso   1.000  H
  C459     1.0000 0.28710  0.03300  0.24850  Biso   1.000  C
  H834     1.0000 0.26130  0.04230  0.23330  Biso   1.000  H
  H835     1.0000 0.29020  0.06300  0.26220  Biso   1.000  H
  H836     1.0000 0.27470  0.00100  0.25880  Biso   1.000  H
  C460     1.0000 0.52410  0.10100  0.15040  Biso   1.000  C
  C461     1.0000 0.53880  0.04720  0.16280  Biso   1.000  C
  H837     1.0000 0.55160  0.05300  0.18320  Biso   1.000  H
  C462     1.0000 0.58450  0.01840  0.14570  Biso   1.000  C
  C463     1.0000 0.50360  0.09710  0.11990  Biso   1.000  C
  H838     1.0000 0.47530  0.06990  0.11900  Biso   1.000  H
  H839     1.0000 0.53310  0.08680  0.10700  Biso   1.000  H
  H840     1.0000 0.48910  0.13190  0.11390  Biso   1.000  H
  C464     1.0000 0.56860  0.14260  0.15320  Biso   1.000  C
  H841     1.0000 0.58070  0.14420  0.17340  Biso   1.000  H
  H842     1.0000 0.55490  0.17780  0.14730  Biso   1.000  H
  H843     1.0000 0.59870  0.13250  0.14070  Biso   1.000  H
  C465     1.0000 0.58560  0.30810  0.20990  Biso   1.000  C
  C466     1.0000 0.62360  0.30350  0.18440  Biso   1.000  C
  H844     1.0000 0.62520  0.26450  0.17930  Biso   1.000  H
  C467     1.0000 0.68150  0.32020  0.19230  Biso   1.000  C
  C468     1.0000 0.58150  0.36640  0.21830  Biso   1.000  C
  H845     1.0000 0.55640  0.37030  0.23460  Biso   1.000  H
  H846     1.0000 0.56860  0.38730  0.20170  Biso   1.000  H
  H847     1.0000 0.61700  0.37960  0.22420  Biso   1.000  H
  C469     1.0000 0.60090  0.27450  0.23530  Biso   1.000  C
  H848     1.0000 0.60390  0.23690  0.22930  Biso   1.000  H
  H849     1.0000 0.57340  0.27760  0.25050  Biso   1.000  H
  H850     1.0000 0.63550  0.28670  0.24300  Biso   1.000  H
  C470     1.0000 0.44610  0.28940  0.09850  Biso   1.000  C
  C471     1.0000 0.47470  0.34170  0.09230  Biso   1.000  C
  H851     1.0000 0.45110  0.37130  0.09950  Biso   1.000  H
  C472     1.0000 0.48400  0.35160  0.05890  Biso   1.000  C
  C473     1.0000 0.47700  0.23930  0.08980  Biso   1.000  C
  H852     1.0000 0.51260  0.24000  0.09880  Biso   1.000  H
  H853     1.0000 0.48080  0.23820  0.06860  Biso   1.000  H
  H854     1.0000 0.45750  0.20740  0.09640  Biso   1.000  H
  C474     1.0000 0.38940  0.28810  0.08490  Biso   1.000  C
  H855     1.0000 0.36910  0.31960  0.09140  Biso   1.000  H
  H856     1.0000 0.37080  0.25540  0.09110  Biso   1.000  H
  H857     1.0000 0.39240  0.28860  0.06370  Biso   1.000  H
  C475     1.0000 0.42240  0.45860  0.19420  Biso   1.000  C
  C476     1.0000 0.38050  0.50030  0.18890  Biso   1.000  C
  H858     1.0000 0.35980  0.48850  0.17150  Biso   1.000  H
  C477     1.0000 0.40300  0.55310  0.18210  Biso   1.000  C
  C478     1.0000 0.45540  0.47080  0.22090  Biso   1.000  C
  H859     1.0000 0.48240  0.44260  0.22360  Biso   1.000  H
  H860     1.0000 0.43190  0.47230  0.23800  Biso   1.000  H
  H861     1.0000 0.47340  0.50550  0.21850  Biso   1.000  H
  C479     1.0000 0.45700  0.44740  0.16860  Biso   1.000  C
  H862     1.0000 0.48300  0.41940  0.17360  Biso   1.000  H
  H863     1.0000 0.47600  0.48010  0.16300  Biso   1.000  H
  H864     1.0000 0.43460  0.43520  0.15240  Biso   1.000  H
  C480     1.0000 0.22570  0.37000  0.26650  Biso   1.000  C
  C481     1.0000 0.24420  0.42410  0.28000  Biso   1.000  C
  H865     1.0000 0.27560  0.41630  0.29280  Biso   1.000  H
  C482     1.0000 0.19970  0.44960  0.29940  Biso   1.000  C
  C483     1.0000 0.17650  0.37990  0.24710  Biso   1.000  C
  H866     1.0000 0.18460  0.40850  0.23320  Biso   1.000  H
  H867     1.0000 0.14600  0.39050  0.25920  Biso   1.000  H
  H868     1.0000 0.16770  0.34680  0.23660  Biso   1.000  H
  C484     1.0000 0.21630  0.32680  0.28940  Biso   1.000  C
  H869     1.0000 0.24870  0.32240  0.30120  Biso   1.000  H
  H870     1.0000 0.20770  0.29270  0.27980  Biso   1.000  H
  H871     1.0000 0.18630  0.33740  0.30190  Biso   1.000  H
  C485     1.0000 0.21240  0.34480  0.14980  Biso   1.000  C
  C486     1.0000 0.20460  0.34510  0.11660  Biso   1.000  C
  H872     1.0000 0.23680  0.36170  0.10730  Biso   1.000  H
  C487     1.0000 0.15370  0.37650  0.10700  Biso   1.000  C
  C488     1.0000 0.16330  0.32480  0.16490  Biso   1.000  C
  H873     1.0000 0.13370  0.34990  0.16170  Biso   1.000  H
  H874     1.0000 0.17050  0.32180  0.18580  Biso   1.000  H
  H875     1.0000 0.15360  0.28950  0.15710  Biso   1.000  H
  C489     1.0000 0.22730  0.39870  0.16410  Biso   1.000  C
  H876     1.0000 0.19970  0.42540  0.15960  Biso   1.000  H
  H877     1.0000 0.26200  0.41100  0.15650  Biso   1.000  H
  H878     1.0000 0.22980  0.39390  0.18520  Biso   1.000  H
  C490     1.0000 0.31070  0.12190  0.11290  Biso   1.000  C
  C491     1.0000 0.25430  0.11800  0.10460  Biso   1.000  C
  H879     1.0000 0.23360  0.10670  0.12220  Biso   1.000  H
  C492     1.0000 0.24410  0.07720  0.08110  Biso   1.000  C
  C493     1.0000 0.34790  0.13770  0.08950  Biso   1.000  C
  H880     1.0000 0.38460  0.13870  0.09710  Biso   1.000  H
  H881     1.0000 0.33810  0.17340  0.08230  Biso   1.000  H
  H882     1.0000 0.34580  0.11170  0.07360  Biso   1.000  H
  C494     1.0000 0.33000  0.06940  0.12620  Biso   1.000  C
  H883     1.0000 0.36760  0.07320  0.13210  Biso   1.000  H
  H884     1.0000 0.32690  0.04060  0.11180  Biso   1.000  H
  H885     1.0000 0.30810  0.06080  0.14320  Biso   1.000  H
  La22     1.0000 0.62214  0.07793  0.38818  Biso   1.000  La
  La23     1.0000 0.95220  0.10510  0.22640  Biso   1.000  La
  La24     1.0000 0.89830  0.15740  0.19570  Biso   1.000  La
  O228     1.0000 0.56980  0.08320  0.43900  Biso   1.000  O
  O229     1.0000 0.58970  0.15930  0.41650  Biso   1.000  O
  C495     1.0000 0.57010  0.12970  0.44020  Biso   1.000  C
  C496     1.0000 0.54600  0.16650  0.46600  Biso   1.000  C
  H886     1.0000 0.55100  0.20450  0.46120  Biso   1.000  H
  H887     1.0000 0.56460  0.15830  0.48420  Biso   1.000  H
  H888     1.0000 0.50760  0.15900  0.46830  Biso   1.000  H
  O230     1.0000 0.99720  0.15330  0.17170  Biso   1.000  O
  O231     1.0000 0.94710  0.20580  0.24360  Biso   1.000  O
  O232     1.0000 0.81230  0.15170  0.22390  Biso   1.000  O
  La25     1.0000 0.61403  0.61403  0.50000  Biso   1.000  La
  La26     1.0000 0.38597  0.38597  0.00000  Biso   1.000  La
  La27     1.0000 0.88597  0.11403  0.75000  Biso   1.000  La
  La28     1.0000 0.11403  0.88597  0.25000  Biso   1.000  La
  La29     1.0000 0.86655  0.13345  0.25000  Biso   1.000  La
  La30     1.0000 0.13345  0.86655  0.75000  Biso   1.000  La
  La31     1.0000 0.36655  0.36655  0.50000  Biso   1.000  La
  La32     1.0000 0.63345  0.63345  0.00000  Biso   1.000  La
