data_image0
_cell_length_a       38.068
_cell_length_b       38.068
_cell_length_c       38.068
_cell_angle_alpha    90
_cell_angle_beta     90
_cell_angle_gamma    90

_symmetry_space_group_name_H-M    "P 1"
_symmetry_int_tables_number       1

loop_
  _symmetry_equiv_pos_as_xyz
  'x, y, z'

loop_
  _atom_site_label
  _atom_site_occupancy
  _atom_site_fract_x
  _atom_site_fract_y
  _atom_site_fract_z
  _atom_site_thermal_displace_type
  _atom_site_B_iso_or_equiv
  _atom_site_type_symbol
  N1       1.0000 0.68749  0.53921  0.29407  Biso   1.000  N
  N2       1.0000 0.71409  0.53955  0.31716  Biso   1.000  N
  N3       1.0000 0.66644  0.56652  0.29908  Biso   1.000  N
  C1       1.0000 0.67982  0.58513  0.32625  Biso   1.000  C
  C2       1.0000 0.70990  0.56781  0.33752  Biso   1.000  C
  H1       1.0000 0.72480  0.57480  0.35630  Biso   1.000  H
  C3       1.0000 0.67670  0.63350  0.36940  Biso   1.000  C
  H2       1.0000 0.69720  0.62450  0.38040  Biso   1.000  H
  C4       1.0000 0.66322  0.61688  0.33974  Biso   1.000  C
  N4       1.0000 0.68749  0.03921  0.79407  Biso   1.000  N
  N5       1.0000 0.71409  0.03955  0.81716  Biso   1.000  N
  N6       1.0000 0.66644  0.06652  0.79908  Biso   1.000  N
  C5       1.0000 0.67982  0.08513  0.82625  Biso   1.000  C
  C6       1.0000 0.70990  0.06781  0.83752  Biso   1.000  C
  H3       1.0000 0.72480  0.07480  0.85630  Biso   1.000  H
  C7       1.0000 0.67670  0.13350  0.86940  Biso   1.000  C
  H4       1.0000 0.69720  0.12450  0.88040  Biso   1.000  H
  C8       1.0000 0.66322  0.11688  0.83974  Biso   1.000  C
  N7       1.0000 0.18749  0.53921  0.79407  Biso   1.000  N
  N8       1.0000 0.21409  0.53955  0.81716  Biso   1.000  N
  N9       1.0000 0.16644  0.56652  0.79908  Biso   1.000  N
  C9       1.0000 0.17982  0.58513  0.82625  Biso   1.000  C
  C10      1.0000 0.20990  0.56781  0.83752  Biso   1.000  C
  H5       1.0000 0.22480  0.57480  0.85630  Biso   1.000  H
  C11      1.0000 0.17670  0.63350  0.86940  Biso   1.000  C
  H6       1.0000 0.19720  0.62450  0.88040  Biso   1.000  H
  C12      1.0000 0.16322  0.61688  0.83974  Biso   1.000  C
  N10      1.0000 0.18749  0.03921  0.29407  Biso   1.000  N
  N11      1.0000 0.21409  0.03955  0.31716  Biso   1.000  N
  N12      1.0000 0.16644  0.06652  0.29908  Biso   1.000  N
  C13      1.0000 0.17982  0.08513  0.32625  Biso   1.000  C
  C14      1.0000 0.20990  0.06781  0.33752  Biso   1.000  C
  H7       1.0000 0.22480  0.07480  0.35630  Biso   1.000  H
  C15      1.0000 0.17670  0.13350  0.36940  Biso   1.000  C
  H8       1.0000 0.19720  0.12450  0.38040  Biso   1.000  H
  C16      1.0000 0.16322  0.11688  0.33974  Biso   1.000  C
  N13      1.0000 0.31251  0.46079  0.29407  Biso   1.000  N
  N14      1.0000 0.28591  0.46045  0.31716  Biso   1.000  N
  N15      1.0000 0.33356  0.43348  0.29908  Biso   1.000  N
  C17      1.0000 0.32018  0.41487  0.32625  Biso   1.000  C
  C18      1.0000 0.29010  0.43219  0.33752  Biso   1.000  C
  H9       1.0000 0.27520  0.42520  0.35630  Biso   1.000  H
  C19      1.0000 0.32330  0.36650  0.36940  Biso   1.000  C
  H10      1.0000 0.30280  0.37550  0.38040  Biso   1.000  H
  C20      1.0000 0.33678  0.38312  0.33974  Biso   1.000  C
  N16      1.0000 0.31251  0.96079  0.79407  Biso   1.000  N
  N17      1.0000 0.28591  0.96045  0.81716  Biso   1.000  N
  N18      1.0000 0.33356  0.93348  0.79908  Biso   1.000  N
  C21      1.0000 0.32018  0.91487  0.82625  Biso   1.000  C
  C22      1.0000 0.29010  0.93219  0.83752  Biso   1.000  C
  H11      1.0000 0.27520  0.92520  0.85630  Biso   1.000  H
  C23      1.0000 0.32330  0.86650  0.86940  Biso   1.000  C
  H12      1.0000 0.30280  0.87550  0.88040  Biso   1.000  H
  C24      1.0000 0.33678  0.88312  0.83974  Biso   1.000  C
  N19      1.0000 0.81251  0.46079  0.79407  Biso   1.000  N
  N20      1.0000 0.78591  0.46045  0.81716  Biso   1.000  N
  N21      1.0000 0.83356  0.43348  0.79908  Biso   1.000  N
  C25      1.0000 0.82018  0.41487  0.82625  Biso   1.000  C
  C26      1.0000 0.79010  0.43219  0.83752  Biso   1.000  C
  H13      1.0000 0.77520  0.42520  0.85630  Biso   1.000  H
  C27      1.0000 0.82330  0.36650  0.86940  Biso   1.000  C
  H14      1.0000 0.80280  0.37550  0.88040  Biso   1.000  H
  C28      1.0000 0.83678  0.38312  0.83974  Biso   1.000  C
  N22      1.0000 0.81251  0.96079  0.29407  Biso   1.000  N
  N23      1.0000 0.78591  0.96045  0.31716  Biso   1.000  N
  N24      1.0000 0.83356  0.93348  0.29908  Biso   1.000  N
  C29      1.0000 0.82018  0.91487  0.32625  Biso   1.000  C
  C30      1.0000 0.79010  0.93219  0.33752  Biso   1.000  C
  H15      1.0000 0.77520  0.92520  0.35630  Biso   1.000  H
  C31      1.0000 0.82330  0.86650  0.36940  Biso   1.000  C
  H16      1.0000 0.80280  0.87550  0.38040  Biso   1.000  H
  C32      1.0000 0.83678  0.88312  0.33974  Biso   1.000  C
  N25      1.0000 0.31251  0.53921  0.70593  Biso   1.000  N
  N26      1.0000 0.28591  0.53955  0.68284  Biso   1.000  N
  N27      1.0000 0.33356  0.56652  0.70092  Biso   1.000  N
  C33      1.0000 0.32018  0.58513  0.67375  Biso   1.000  C
  C34      1.0000 0.29010  0.56781  0.66248  Biso   1.000  C
  H17      1.0000 0.27520  0.57480  0.64370  Biso   1.000  H
  C35      1.0000 0.32330  0.63350  0.63060  Biso   1.000  C
  H18      1.0000 0.30280  0.62450  0.61960  Biso   1.000  H
  C36      1.0000 0.33678  0.61688  0.66026  Biso   1.000  C
  N28      1.0000 0.31251  0.03921  0.20593  Biso   1.000  N
  N29      1.0000 0.28591  0.03955  0.18284  Biso   1.000  N
  N30      1.0000 0.33356  0.06652  0.20092  Biso   1.000  N
  C37      1.0000 0.32018  0.08513  0.17375  Biso   1.000  C
  C38      1.0000 0.29010  0.06781  0.16248  Biso   1.000  C
  H19      1.0000 0.27520  0.07480  0.14370  Biso   1.000  H
  C39      1.0000 0.32330  0.13350  0.13060  Biso   1.000  C
  H20      1.0000 0.30280  0.12450  0.11960  Biso   1.000  H
  C40      1.0000 0.33678  0.11688  0.16026  Biso   1.000  C
  N31      1.0000 0.81251  0.53921  0.20593  Biso   1.000  N
  N32      1.0000 0.78591  0.53955  0.18284  Biso   1.000  N
  N33      1.0000 0.83356  0.56652  0.20092  Biso   1.000  N
  C41      1.0000 0.82018  0.58513  0.17375  Biso   1.000  C
  C42      1.0000 0.79010  0.56781  0.16248  Biso   1.000  C
  H21      1.0000 0.77520  0.57480  0.14370  Biso   1.000  H
  C43      1.0000 0.82330  0.63350  0.13060  Biso   1.000  C
  H22      1.0000 0.80280  0.62450  0.11960  Biso   1.000  H
  C44      1.0000 0.83678  0.61688  0.16026  Biso   1.000  C
  N34      1.0000 0.81251  0.03921  0.70593  Biso   1.000  N
  N35      1.0000 0.78591  0.03955  0.68284  Biso   1.000  N
  N36      1.0000 0.83356  0.06652  0.70092  Biso   1.000  N
  C45      1.0000 0.82018  0.08513  0.67375  Biso   1.000  C
  C46      1.0000 0.79010  0.06781  0.66248  Biso   1.000  C
  H23      1.0000 0.77520  0.07480  0.64370  Biso   1.000  H
  C47      1.0000 0.82330  0.13350  0.63060  Biso   1.000  C
  H24      1.0000 0.80280  0.12450  0.61960  Biso   1.000  H
  C48      1.0000 0.83678  0.11688  0.66026  Biso   1.000  C
  N37      1.0000 0.68749  0.46079  0.70593  Biso   1.000  N
  N38      1.0000 0.71409  0.46045  0.68284  Biso   1.000  N
  N39      1.0000 0.66644  0.43348  0.70092  Biso   1.000  N
  C49      1.0000 0.67982  0.41487  0.67375  Biso   1.000  C
  C50      1.0000 0.70990  0.43219  0.66248  Biso   1.000  C
  H25      1.0000 0.72480  0.42520  0.64370  Biso   1.000  H
  C51      1.0000 0.67670  0.36650  0.63060  Biso   1.000  C
  H26      1.0000 0.69720  0.37550  0.61960  Biso   1.000  H
  C52      1.0000 0.66322  0.38312  0.66026  Biso   1.000  C
  N40      1.0000 0.68749  0.96079  0.20593  Biso   1.000  N
  N41      1.0000 0.71409  0.96045  0.18284  Biso   1.000  N
  N42      1.0000 0.66644  0.93348  0.20092  Biso   1.000  N
  C53      1.0000 0.67982  0.91487  0.17375  Biso   1.000  C
  C54      1.0000 0.70990  0.93219  0.16248  Biso   1.000  C
  H27      1.0000 0.72480  0.92520  0.14370  Biso   1.000  H
  C55      1.0000 0.67670  0.86650  0.13060  Biso   1.000  C
  H28      1.0000 0.69720  0.87550  0.11960  Biso   1.000  H
  C56      1.0000 0.66322  0.88312  0.16026  Biso   1.000  C
  N43      1.0000 0.18749  0.46079  0.20593  Biso   1.000  N
  N44      1.0000 0.21409  0.46045  0.18284  Biso   1.000  N
  N45      1.0000 0.16644  0.43348  0.20092  Biso   1.000  N
  C57      1.0000 0.17982  0.41487  0.17375  Biso   1.000  C
  C58      1.0000 0.20990  0.43219  0.16248  Biso   1.000  C
  H29      1.0000 0.22480  0.42520  0.14370  Biso   1.000  H
  C59      1.0000 0.17670  0.36650  0.13060  Biso   1.000  C
  H30      1.0000 0.19720  0.37550  0.11960  Biso   1.000  H
  C60      1.0000 0.16322  0.38312  0.16026  Biso   1.000  C
  N46      1.0000 0.18749  0.96079  0.70593  Biso   1.000  N
  N47      1.0000 0.21409  0.96045  0.68284  Biso   1.000  N
  N48      1.0000 0.16644  0.93348  0.70092  Biso   1.000  N
  C61      1.0000 0.17982  0.91487  0.67375  Biso   1.000  C
  C62      1.0000 0.20990  0.93219  0.66248  Biso   1.000  C
  H31      1.0000 0.22480  0.92520  0.64370  Biso   1.000  H
  C63      1.0000 0.17670  0.86650  0.63060  Biso   1.000  C
  H32      1.0000 0.19720  0.87550  0.61960  Biso   1.000  H
  C64      1.0000 0.16322  0.88312  0.66026  Biso   1.000  C
  N49      1.0000 0.29407  0.68749  0.53921  Biso   1.000  N
  N50      1.0000 0.31716  0.71409  0.53955  Biso   1.000  N
  N51      1.0000 0.29908  0.66644  0.56652  Biso   1.000  N
  C65      1.0000 0.32625  0.67982  0.58513  Biso   1.000  C
  C66      1.0000 0.33752  0.70990  0.56781  Biso   1.000  C
  H33      1.0000 0.35630  0.72480  0.57480  Biso   1.000  H
  C67      1.0000 0.36940  0.67670  0.63350  Biso   1.000  C
  H34      1.0000 0.38040  0.69720  0.62450  Biso   1.000  H
  C68      1.0000 0.33974  0.66322  0.61688  Biso   1.000  C
  N52      1.0000 0.29407  0.18749  0.03921  Biso   1.000  N
  N53      1.0000 0.31716  0.21409  0.03955  Biso   1.000  N
  N54      1.0000 0.29908  0.16644  0.06652  Biso   1.000  N
  C69      1.0000 0.32625  0.17982  0.08513  Biso   1.000  C
  C70      1.0000 0.33752  0.20990  0.06781  Biso   1.000  C
  H35      1.0000 0.35630  0.22480  0.07480  Biso   1.000  H
  C71      1.0000 0.36940  0.17670  0.13350  Biso   1.000  C
  H36      1.0000 0.38040  0.19720  0.12450  Biso   1.000  H
  C72      1.0000 0.33974  0.16322  0.11688  Biso   1.000  C
  N55      1.0000 0.79407  0.68749  0.03921  Biso   1.000  N
  N56      1.0000 0.81716  0.71409  0.03955  Biso   1.000  N
  N57      1.0000 0.79908  0.66644  0.06652  Biso   1.000  N
  C73      1.0000 0.82625  0.67982  0.08513  Biso   1.000  C
  C74      1.0000 0.83752  0.70990  0.06781  Biso   1.000  C
  H37      1.0000 0.85630  0.72480  0.07480  Biso   1.000  H
  C75      1.0000 0.86940  0.67670  0.13350  Biso   1.000  C
  H38      1.0000 0.88040  0.69720  0.12450  Biso   1.000  H
  C76      1.0000 0.83974  0.66322  0.11688  Biso   1.000  C
  N58      1.0000 0.79407  0.18749  0.53921  Biso   1.000  N
  N59      1.0000 0.81716  0.21409  0.53955  Biso   1.000  N
  N60      1.0000 0.79908  0.16644  0.56652  Biso   1.000  N
  C77      1.0000 0.82625  0.17982  0.58513  Biso   1.000  C
  C78      1.0000 0.83752  0.20990  0.56781  Biso   1.000  C
  H39      1.0000 0.85630  0.22480  0.57480  Biso   1.000  H
  C79      1.0000 0.86940  0.17670  0.63350  Biso   1.000  C
  H40      1.0000 0.88040  0.19720  0.62450  Biso   1.000  H
  C80      1.0000 0.83974  0.16322  0.61688  Biso   1.000  C
  N61      1.0000 0.29407  0.31251  0.46079  Biso   1.000  N
  N62      1.0000 0.31716  0.28591  0.46045  Biso   1.000  N
  N63      1.0000 0.29908  0.33356  0.43348  Biso   1.000  N
  C81      1.0000 0.32625  0.32018  0.41487  Biso   1.000  C
  C82      1.0000 0.33752  0.29010  0.43219  Biso   1.000  C
  H41      1.0000 0.35630  0.27520  0.42520  Biso   1.000  H
  C83      1.0000 0.36940  0.32330  0.36650  Biso   1.000  C
  H42      1.0000 0.38040  0.30280  0.37550  Biso   1.000  H
  C84      1.0000 0.33974  0.33678  0.38312  Biso   1.000  C
  N64      1.0000 0.29407  0.81251  0.96079  Biso   1.000  N
  N65      1.0000 0.31716  0.78591  0.96045  Biso   1.000  N
  N66      1.0000 0.29908  0.83356  0.93348  Biso   1.000  N
  C85      1.0000 0.32625  0.82018  0.91487  Biso   1.000  C
  C86      1.0000 0.33752  0.79010  0.93219  Biso   1.000  C
  H43      1.0000 0.35630  0.77520  0.92520  Biso   1.000  H
  C87      1.0000 0.36940  0.82330  0.86650  Biso   1.000  C
  H44      1.0000 0.38040  0.80280  0.87550  Biso   1.000  H
  C88      1.0000 0.33974  0.83678  0.88312  Biso   1.000  C
  N67      1.0000 0.79407  0.31251  0.96079  Biso   1.000  N
  N68      1.0000 0.81716  0.28591  0.96045  Biso   1.000  N
  N69      1.0000 0.79908  0.33356  0.93348  Biso   1.000  N
  C89      1.0000 0.82625  0.32018  0.91487  Biso   1.000  C
  C90      1.0000 0.83752  0.29010  0.93219  Biso   1.000  C
  H45      1.0000 0.85630  0.27520  0.92520  Biso   1.000  H
  C91      1.0000 0.86940  0.32330  0.86650  Biso   1.000  C
  H46      1.0000 0.88040  0.30280  0.87550  Biso   1.000  H
  C92      1.0000 0.83974  0.33678  0.88312  Biso   1.000  C
  N70      1.0000 0.79407  0.81251  0.46079  Biso   1.000  N
  N71      1.0000 0.81716  0.78591  0.46045  Biso   1.000  N
  N72      1.0000 0.79908  0.83356  0.43348  Biso   1.000  N
  C93      1.0000 0.82625  0.82018  0.41487  Biso   1.000  C
  C94      1.0000 0.83752  0.79010  0.43219  Biso   1.000  C
  H47      1.0000 0.85630  0.77520  0.42520  Biso   1.000  H
  C95      1.0000 0.86940  0.82330  0.36650  Biso   1.000  C
  H48      1.0000 0.88040  0.80280  0.37550  Biso   1.000  H
  C96      1.0000 0.83974  0.83678  0.38312  Biso   1.000  C
  N73      1.0000 0.70593  0.31251  0.53921  Biso   1.000  N
  N74      1.0000 0.68284  0.28591  0.53955  Biso   1.000  N
  N75      1.0000 0.70092  0.33356  0.56652  Biso   1.000  N
  C97      1.0000 0.67375  0.32018  0.58513  Biso   1.000  C
  C98      1.0000 0.66248  0.29010  0.56781  Biso   1.000  C
  H49      1.0000 0.64370  0.27520  0.57480  Biso   1.000  H
  C99      1.0000 0.63060  0.32330  0.63350  Biso   1.000  C
  H50      1.0000 0.61960  0.30280  0.62450  Biso   1.000  H
  C100     1.0000 0.66026  0.33678  0.61688  Biso   1.000  C
  N76      1.0000 0.70593  0.81251  0.03921  Biso   1.000  N
  N77      1.0000 0.68284  0.78591  0.03955  Biso   1.000  N
  N78      1.0000 0.70092  0.83356  0.06652  Biso   1.000  N
  C101     1.0000 0.67375  0.82018  0.08513  Biso   1.000  C
  C102     1.0000 0.66248  0.79010  0.06781  Biso   1.000  C
  H51      1.0000 0.64370  0.77520  0.07480  Biso   1.000  H
  C103     1.0000 0.63060  0.82330  0.13350  Biso   1.000  C
  H52      1.0000 0.61960  0.80280  0.12450  Biso   1.000  H
  C104     1.0000 0.66026  0.83678  0.11688  Biso   1.000  C
  N79      1.0000 0.20593  0.31251  0.03921  Biso   1.000  N
  N80      1.0000 0.18284  0.28591  0.03955  Biso   1.000  N
  N81      1.0000 0.20092  0.33356  0.06652  Biso   1.000  N
  C105     1.0000 0.17375  0.32018  0.08513  Biso   1.000  C
  C106     1.0000 0.16248  0.29010  0.06781  Biso   1.000  C
  H53      1.0000 0.14370  0.27520  0.07480  Biso   1.000  H
  C107     1.0000 0.13060  0.32330  0.13350  Biso   1.000  C
  H54      1.0000 0.11960  0.30280  0.12450  Biso   1.000  H
  C108     1.0000 0.16026  0.33678  0.11688  Biso   1.000  C
  N82      1.0000 0.20593  0.81251  0.53921  Biso   1.000  N
  N83      1.0000 0.18284  0.78591  0.53955  Biso   1.000  N
  N84      1.0000 0.20092  0.83356  0.56652  Biso   1.000  N
  C109     1.0000 0.17375  0.82018  0.58513  Biso   1.000  C
  C110     1.0000 0.16248  0.79010  0.56781  Biso   1.000  C
  H55      1.0000 0.14370  0.77520  0.57480  Biso   1.000  H
  C111     1.0000 0.13060  0.82330  0.63350  Biso   1.000  C
  H56      1.0000 0.11960  0.80280  0.62450  Biso   1.000  H
  C112     1.0000 0.16026  0.83678  0.61688  Biso   1.000  C
  N85      1.0000 0.70593  0.68749  0.46079  Biso   1.000  N
  N86      1.0000 0.68284  0.71409  0.46045  Biso   1.000  N
  N87      1.0000 0.70092  0.66644  0.43348  Biso   1.000  N
  C113     1.0000 0.67375  0.67982  0.41487  Biso   1.000  C
  C114     1.0000 0.66248  0.70990  0.43219  Biso   1.000  C
  H57      1.0000 0.64370  0.72480  0.42520  Biso   1.000  H
  C115     1.0000 0.63060  0.67670  0.36650  Biso   1.000  C
  H58      1.0000 0.61960  0.69720  0.37550  Biso   1.000  H
  C116     1.0000 0.66026  0.66322  0.38312  Biso   1.000  C
  N88      1.0000 0.70593  0.18749  0.96079  Biso   1.000  N
  N89      1.0000 0.68284  0.21409  0.96045  Biso   1.000  N
  N90      1.0000 0.70092  0.16644  0.93348  Biso   1.000  N
  C117     1.0000 0.67375  0.17982  0.91487  Biso   1.000  C
  C118     1.0000 0.66248  0.20990  0.93219  Biso   1.000  C
  H59      1.0000 0.64370  0.22480  0.92520  Biso   1.000  H
  C119     1.0000 0.63060  0.17670  0.86650  Biso   1.000  C
  H60      1.0000 0.61960  0.19720  0.87550  Biso   1.000  H
  C120     1.0000 0.66026  0.16322  0.88312  Biso   1.000  C
  N91      1.0000 0.20593  0.68749  0.96079  Biso   1.000  N
  N92      1.0000 0.18284  0.71409  0.96045  Biso   1.000  N
  N93      1.0000 0.20092  0.66644  0.93348  Biso   1.000  N
  C121     1.0000 0.17375  0.67982  0.91487  Biso   1.000  C
  C122     1.0000 0.16248  0.70990  0.93219  Biso   1.000  C
  H61      1.0000 0.14370  0.72480  0.92520  Biso   1.000  H
  C123     1.0000 0.13060  0.67670  0.86650  Biso   1.000  C
  H62      1.0000 0.11960  0.69720  0.87550  Biso   1.000  H
  C124     1.0000 0.16026  0.66322  0.88312  Biso   1.000  C
  N94      1.0000 0.20593  0.18749  0.46079  Biso   1.000  N
  N95      1.0000 0.18284  0.21409  0.46045  Biso   1.000  N
  N96      1.0000 0.20092  0.16644  0.43348  Biso   1.000  N
  C125     1.0000 0.17375  0.17982  0.41487  Biso   1.000  C
  C126     1.0000 0.16248  0.20990  0.43219  Biso   1.000  C
  H63      1.0000 0.14370  0.22480  0.42520  Biso   1.000  H
  C127     1.0000 0.13060  0.17670  0.36650  Biso   1.000  C
  H64      1.0000 0.11960  0.19720  0.37550  Biso   1.000  H
  C128     1.0000 0.16026  0.16322  0.38312  Biso   1.000  C
  N97      1.0000 0.53921  0.29407  0.68749  Biso   1.000  N
  N98      1.0000 0.53955  0.31716  0.71409  Biso   1.000  N
  N99      1.0000 0.56652  0.29908  0.66644  Biso   1.000  N
  C129     1.0000 0.58513  0.32625  0.67982  Biso   1.000  C
  C130     1.0000 0.56781  0.33752  0.70990  Biso   1.000  C
  H65      1.0000 0.57480  0.35630  0.72480  Biso   1.000  H
  C131     1.0000 0.63350  0.36940  0.67670  Biso   1.000  C
  H66      1.0000 0.62450  0.38040  0.69720  Biso   1.000  H
  C132     1.0000 0.61688  0.33974  0.66322  Biso   1.000  C
  N100     1.0000 0.53921  0.79407  0.18749  Biso   1.000  N
  N101     1.0000 0.53955  0.81716  0.21409  Biso   1.000  N
  N102     1.0000 0.56652  0.79908  0.16644  Biso   1.000  N
  C133     1.0000 0.58513  0.82625  0.17982  Biso   1.000  C
  C134     1.0000 0.56781  0.83752  0.20990  Biso   1.000  C
  H67      1.0000 0.57480  0.85630  0.22480  Biso   1.000  H
  C135     1.0000 0.63350  0.86940  0.17670  Biso   1.000  C
  H68      1.0000 0.62450  0.88040  0.19720  Biso   1.000  H
  C136     1.0000 0.61688  0.83974  0.16322  Biso   1.000  C
  N103     1.0000 0.03921  0.29407  0.18749  Biso   1.000  N
  N104     1.0000 0.03955  0.31716  0.21409  Biso   1.000  N
  N105     1.0000 0.06652  0.29908  0.16644  Biso   1.000  N
  C137     1.0000 0.08513  0.32625  0.17982  Biso   1.000  C
  C138     1.0000 0.06781  0.33752  0.20990  Biso   1.000  C
  H69      1.0000 0.07480  0.35630  0.22480  Biso   1.000  H
  C139     1.0000 0.13350  0.36940  0.17670  Biso   1.000  C
  H70      1.0000 0.12450  0.38040  0.19720  Biso   1.000  H
  C140     1.0000 0.11688  0.33974  0.16322  Biso   1.000  C
  N106     1.0000 0.03921  0.79407  0.68749  Biso   1.000  N
  N107     1.0000 0.03955  0.81716  0.71409  Biso   1.000  N
  N108     1.0000 0.06652  0.79908  0.66644  Biso   1.000  N
  C141     1.0000 0.08513  0.82625  0.67982  Biso   1.000  C
  C142     1.0000 0.06781  0.83752  0.70990  Biso   1.000  C
  H71      1.0000 0.07480  0.85630  0.72480  Biso   1.000  H
  C143     1.0000 0.13350  0.86940  0.67670  Biso   1.000  C
  H72      1.0000 0.12450  0.88040  0.69720  Biso   1.000  H
  C144     1.0000 0.11688  0.83974  0.66322  Biso   1.000  C
  N109     1.0000 0.46079  0.29407  0.31251  Biso   1.000  N
  N110     1.0000 0.46045  0.31716  0.28591  Biso   1.000  N
  N111     1.0000 0.43348  0.29908  0.33356  Biso   1.000  N
  C145     1.0000 0.41487  0.32625  0.32018  Biso   1.000  C
  C146     1.0000 0.43219  0.33752  0.29010  Biso   1.000  C
  H73      1.0000 0.42520  0.35630  0.27520  Biso   1.000  H
  C147     1.0000 0.36650  0.36940  0.32330  Biso   1.000  C
  H74      1.0000 0.37550  0.38040  0.30280  Biso   1.000  H
  C148     1.0000 0.38312  0.33974  0.33678  Biso   1.000  C
  N112     1.0000 0.46079  0.79407  0.81251  Biso   1.000  N
  N113     1.0000 0.46045  0.81716  0.78591  Biso   1.000  N
  N114     1.0000 0.43348  0.79908  0.83356  Biso   1.000  N
  C149     1.0000 0.41487  0.82625  0.82018  Biso   1.000  C
  C150     1.0000 0.43219  0.83752  0.79010  Biso   1.000  C
  H75      1.0000 0.42520  0.85630  0.77520  Biso   1.000  H
  C151     1.0000 0.36650  0.86940  0.82330  Biso   1.000  C
  H76      1.0000 0.37550  0.88040  0.80280  Biso   1.000  H
  C152     1.0000 0.38312  0.83974  0.83678  Biso   1.000  C
  N115     1.0000 0.96079  0.29407  0.81251  Biso   1.000  N
  N116     1.0000 0.96045  0.31716  0.78591  Biso   1.000  N
  N117     1.0000 0.93348  0.29908  0.83356  Biso   1.000  N
  C153     1.0000 0.91487  0.32625  0.82018  Biso   1.000  C
  C154     1.0000 0.93219  0.33752  0.79010  Biso   1.000  C
  H77      1.0000 0.92520  0.35630  0.77520  Biso   1.000  H
  C155     1.0000 0.86650  0.36940  0.82330  Biso   1.000  C
  H78      1.0000 0.87550  0.38040  0.80280  Biso   1.000  H
  C156     1.0000 0.88312  0.33974  0.83678  Biso   1.000  C
  N118     1.0000 0.96079  0.79407  0.31251  Biso   1.000  N
  N119     1.0000 0.96045  0.81716  0.28591  Biso   1.000  N
  N120     1.0000 0.93348  0.79908  0.33356  Biso   1.000  N
  C157     1.0000 0.91487  0.82625  0.32018  Biso   1.000  C
  C158     1.0000 0.93219  0.83752  0.29010  Biso   1.000  C
  H79      1.0000 0.92520  0.85630  0.27520  Biso   1.000  H
  C159     1.0000 0.86650  0.86940  0.32330  Biso   1.000  C
  H80      1.0000 0.87550  0.88040  0.30280  Biso   1.000  H
  C160     1.0000 0.88312  0.83974  0.33678  Biso   1.000  C
  N121     1.0000 0.53921  0.70593  0.31251  Biso   1.000  N
  N122     1.0000 0.53955  0.68284  0.28591  Biso   1.000  N
  N123     1.0000 0.56652  0.70092  0.33356  Biso   1.000  N
  C161     1.0000 0.58513  0.67375  0.32018  Biso   1.000  C
  C162     1.0000 0.56781  0.66248  0.29010  Biso   1.000  C
  H81      1.0000 0.57480  0.64370  0.27520  Biso   1.000  H
  C163     1.0000 0.63350  0.63060  0.32330  Biso   1.000  C
  H82      1.0000 0.62450  0.61960  0.30280  Biso   1.000  H
  C164     1.0000 0.61688  0.66026  0.33678  Biso   1.000  C
  N124     1.0000 0.53921  0.20593  0.81251  Biso   1.000  N
  N125     1.0000 0.53955  0.18284  0.78591  Biso   1.000  N
  N126     1.0000 0.56652  0.20092  0.83356  Biso   1.000  N
  C165     1.0000 0.58513  0.17375  0.82018  Biso   1.000  C
  C166     1.0000 0.56781  0.16248  0.79010  Biso   1.000  C
  H83      1.0000 0.57480  0.14370  0.77520  Biso   1.000  H
  C167     1.0000 0.63350  0.13060  0.82330  Biso   1.000  C
  H84      1.0000 0.62450  0.11960  0.80280  Biso   1.000  H
  C168     1.0000 0.61688  0.16026  0.83678  Biso   1.000  C
  N127     1.0000 0.03921  0.70593  0.81251  Biso   1.000  N
  N128     1.0000 0.03955  0.68284  0.78591  Biso   1.000  N
  N129     1.0000 0.06652  0.70092  0.83356  Biso   1.000  N
  C169     1.0000 0.08513  0.67375  0.82018  Biso   1.000  C
  C170     1.0000 0.06781  0.66248  0.79010  Biso   1.000  C
  H85      1.0000 0.07480  0.64370  0.77520  Biso   1.000  H
  C171     1.0000 0.13350  0.63060  0.82330  Biso   1.000  C
  H86      1.0000 0.12450  0.61960  0.80280  Biso   1.000  H
  C172     1.0000 0.11688  0.66026  0.83678  Biso   1.000  C
  N130     1.0000 0.03921  0.20593  0.31251  Biso   1.000  N
  N131     1.0000 0.03955  0.18284  0.28591  Biso   1.000  N
  N132     1.0000 0.06652  0.20092  0.33356  Biso   1.000  N
  C173     1.0000 0.08513  0.17375  0.32018  Biso   1.000  C
  C174     1.0000 0.06781  0.16248  0.29010  Biso   1.000  C
  H87      1.0000 0.07480  0.14370  0.27520  Biso   1.000  H
  C175     1.0000 0.13350  0.13060  0.32330  Biso   1.000  C
  H88      1.0000 0.12450  0.11960  0.30280  Biso   1.000  H
  C176     1.0000 0.11688  0.16026  0.33678  Biso   1.000  C
  N133     1.0000 0.46079  0.70593  0.68749  Biso   1.000  N
  N134     1.0000 0.46045  0.68284  0.71409  Biso   1.000  N
  N135     1.0000 0.43348  0.70092  0.66644  Biso   1.000  N
  C177     1.0000 0.41487  0.67375  0.67982  Biso   1.000  C
  C178     1.0000 0.43219  0.66248  0.70990  Biso   1.000  C
  H89      1.0000 0.42520  0.64370  0.72480  Biso   1.000  H
  C179     1.0000 0.36650  0.63060  0.67670  Biso   1.000  C
  H90      1.0000 0.37550  0.61960  0.69720  Biso   1.000  H
  C180     1.0000 0.38312  0.66026  0.66322  Biso   1.000  C
  N136     1.0000 0.46079  0.20593  0.18749  Biso   1.000  N
  N137     1.0000 0.46045  0.18284  0.21409  Biso   1.000  N
  N138     1.0000 0.43348  0.20092  0.16644  Biso   1.000  N
  C181     1.0000 0.41487  0.17375  0.17982  Biso   1.000  C
  C182     1.0000 0.43219  0.16248  0.20990  Biso   1.000  C
  H91      1.0000 0.42520  0.14370  0.22480  Biso   1.000  H
  C183     1.0000 0.36650  0.13060  0.17670  Biso   1.000  C
  H92      1.0000 0.37550  0.11960  0.19720  Biso   1.000  H
  C184     1.0000 0.38312  0.16026  0.16322  Biso   1.000  C
  N139     1.0000 0.96079  0.70593  0.18749  Biso   1.000  N
  N140     1.0000 0.96045  0.68284  0.21409  Biso   1.000  N
  N141     1.0000 0.93348  0.70092  0.16644  Biso   1.000  N
  C185     1.0000 0.91487  0.67375  0.17982  Biso   1.000  C
  C186     1.0000 0.93219  0.66248  0.20990  Biso   1.000  C
  H93      1.0000 0.92520  0.64370  0.22480  Biso   1.000  H
  C187     1.0000 0.86650  0.63060  0.17670  Biso   1.000  C
  H94      1.0000 0.87550  0.61960  0.19720  Biso   1.000  H
  C188     1.0000 0.88312  0.66026  0.16322  Biso   1.000  C
  N142     1.0000 0.96079  0.20593  0.68749  Biso   1.000  N
  N143     1.0000 0.96045  0.18284  0.71409  Biso   1.000  N
  N144     1.0000 0.93348  0.20092  0.66644  Biso   1.000  N
  C189     1.0000 0.91487  0.17375  0.67982  Biso   1.000  C
  C190     1.0000 0.93219  0.16248  0.70990  Biso   1.000  C
  H95      1.0000 0.92520  0.14370  0.72480  Biso   1.000  H
  C191     1.0000 0.86650  0.13060  0.67670  Biso   1.000  C
  H96      1.0000 0.87550  0.11960  0.69720  Biso   1.000  H
  C192     1.0000 0.88312  0.16026  0.66322  Biso   1.000  C
  N145     1.0000 0.03921  0.18749  0.20593  Biso   1.000  N
  N146     1.0000 0.03955  0.21409  0.18284  Biso   1.000  N
  N147     1.0000 0.06652  0.16644  0.20092  Biso   1.000  N
  C193     1.0000 0.08513  0.17982  0.17375  Biso   1.000  C
  C194     1.0000 0.06781  0.20990  0.16248  Biso   1.000  C
  H97      1.0000 0.07480  0.22480  0.14370  Biso   1.000  H
  C195     1.0000 0.13350  0.17670  0.13060  Biso   1.000  C
  H98      1.0000 0.12450  0.19720  0.11960  Biso   1.000  H
  C196     1.0000 0.11688  0.16322  0.16026  Biso   1.000  C
  N148     1.0000 0.03921  0.68749  0.70593  Biso   1.000  N
  N149     1.0000 0.03955  0.71409  0.68284  Biso   1.000  N
  N150     1.0000 0.06652  0.66644  0.70092  Biso   1.000  N
  C197     1.0000 0.08513  0.67982  0.67375  Biso   1.000  C
  C198     1.0000 0.06781  0.70990  0.66248  Biso   1.000  C
  H99      1.0000 0.07480  0.72480  0.64370  Biso   1.000  H
  C199     1.0000 0.13350  0.67670  0.63060  Biso   1.000  C
  H100     1.0000 0.12450  0.69720  0.61960  Biso   1.000  H
  C200     1.0000 0.11688  0.66322  0.66026  Biso   1.000  C
  N151     1.0000 0.53921  0.18749  0.70593  Biso   1.000  N
  N152     1.0000 0.53955  0.21409  0.68284  Biso   1.000  N
  N153     1.0000 0.56652  0.16644  0.70092  Biso   1.000  N
  C201     1.0000 0.58513  0.17982  0.67375  Biso   1.000  C
  C202     1.0000 0.56781  0.20990  0.66248  Biso   1.000  C
  H101     1.0000 0.57480  0.22480  0.64370  Biso   1.000  H
  C203     1.0000 0.63350  0.17670  0.63060  Biso   1.000  C
  H102     1.0000 0.62450  0.19720  0.61960  Biso   1.000  H
  C204     1.0000 0.61688  0.16322  0.66026  Biso   1.000  C
  N154     1.0000 0.53921  0.68749  0.20593  Biso   1.000  N
  N155     1.0000 0.53955  0.71409  0.18284  Biso   1.000  N
  N156     1.0000 0.56652  0.66644  0.20092  Biso   1.000  N
  C205     1.0000 0.58513  0.67982  0.17375  Biso   1.000  C
  C206     1.0000 0.56781  0.70990  0.16248  Biso   1.000  C
  H103     1.0000 0.57480  0.72480  0.14370  Biso   1.000  H
  C207     1.0000 0.63350  0.67670  0.13060  Biso   1.000  C
  H104     1.0000 0.62450  0.69720  0.11960  Biso   1.000  H
  C208     1.0000 0.61688  0.66322  0.16026  Biso   1.000  C
  N157     1.0000 0.96079  0.81251  0.20593  Biso   1.000  N
  N158     1.0000 0.96045  0.78591  0.18284  Biso   1.000  N
  N159     1.0000 0.93348  0.83356  0.20092  Biso   1.000  N
  C209     1.0000 0.91487  0.82018  0.17375  Biso   1.000  C
  C210     1.0000 0.93219  0.79010  0.16248  Biso   1.000  C
  H105     1.0000 0.92520  0.77520  0.14370  Biso   1.000  H
  C211     1.0000 0.86650  0.82330  0.13060  Biso   1.000  C
  H106     1.0000 0.87550  0.80280  0.11960  Biso   1.000  H
  C212     1.0000 0.88312  0.83678  0.16026  Biso   1.000  C
  N160     1.0000 0.96079  0.31251  0.70593  Biso   1.000  N
  N161     1.0000 0.96045  0.28591  0.68284  Biso   1.000  N
  N162     1.0000 0.93348  0.33356  0.70092  Biso   1.000  N
  C213     1.0000 0.91487  0.32018  0.67375  Biso   1.000  C
  C214     1.0000 0.93219  0.29010  0.66248  Biso   1.000  C
  H107     1.0000 0.92520  0.27520  0.64370  Biso   1.000  H
  C215     1.0000 0.86650  0.32330  0.63060  Biso   1.000  C
  H108     1.0000 0.87550  0.30280  0.61960  Biso   1.000  H
  C216     1.0000 0.88312  0.33678  0.66026  Biso   1.000  C
  N163     1.0000 0.46079  0.81251  0.70593  Biso   1.000  N
  N164     1.0000 0.46045  0.78591  0.68284  Biso   1.000  N
  N165     1.0000 0.43348  0.83356  0.70092  Biso   1.000  N
  C217     1.0000 0.41487  0.82018  0.67375  Biso   1.000  C
  C218     1.0000 0.43219  0.79010  0.66248  Biso   1.000  C
  H109     1.0000 0.42520  0.77520  0.64370  Biso   1.000  H
  C219     1.0000 0.36650  0.82330  0.63060  Biso   1.000  C
  H110     1.0000 0.37550  0.80280  0.61960  Biso   1.000  H
  C220     1.0000 0.38312  0.83678  0.66026  Biso   1.000  C
  N166     1.0000 0.46079  0.31251  0.20593  Biso   1.000  N
  N167     1.0000 0.46045  0.28591  0.18284  Biso   1.000  N
  N168     1.0000 0.43348  0.33356  0.20092  Biso   1.000  N
  C221     1.0000 0.41487  0.32018  0.17375  Biso   1.000  C
  C222     1.0000 0.43219  0.29010  0.16248  Biso   1.000  C
  H111     1.0000 0.42520  0.27520  0.14370  Biso   1.000  H
  C223     1.0000 0.36650  0.32330  0.13060  Biso   1.000  C
  H112     1.0000 0.37550  0.30280  0.11960  Biso   1.000  H
  C224     1.0000 0.38312  0.33678  0.16026  Biso   1.000  C
  N169     1.0000 0.03921  0.81251  0.79407  Biso   1.000  N
  N170     1.0000 0.03955  0.78591  0.81716  Biso   1.000  N
  N171     1.0000 0.06652  0.83356  0.79908  Biso   1.000  N
  C225     1.0000 0.08513  0.82018  0.82625  Biso   1.000  C
  C226     1.0000 0.06781  0.79010  0.83752  Biso   1.000  C
  H113     1.0000 0.07480  0.77520  0.85630  Biso   1.000  H
  C227     1.0000 0.13350  0.82330  0.86940  Biso   1.000  C
  H114     1.0000 0.12450  0.80280  0.88040  Biso   1.000  H
  C228     1.0000 0.11688  0.83678  0.83974  Biso   1.000  C
  N172     1.0000 0.03921  0.31251  0.29407  Biso   1.000  N
  N173     1.0000 0.03955  0.28591  0.31716  Biso   1.000  N
  N174     1.0000 0.06652  0.33356  0.29908  Biso   1.000  N
  C229     1.0000 0.08513  0.32018  0.32625  Biso   1.000  C
  C230     1.0000 0.06781  0.29010  0.33752  Biso   1.000  C
  H115     1.0000 0.07480  0.27520  0.35630  Biso   1.000  H
  C231     1.0000 0.13350  0.32330  0.36940  Biso   1.000  C
  H116     1.0000 0.12450  0.30280  0.38040  Biso   1.000  H
  C232     1.0000 0.11688  0.33678  0.33974  Biso   1.000  C
  N175     1.0000 0.53921  0.81251  0.29407  Biso   1.000  N
  N176     1.0000 0.53955  0.78591  0.31716  Biso   1.000  N
  N177     1.0000 0.56652  0.83356  0.29908  Biso   1.000  N
  C233     1.0000 0.58513  0.82018  0.32625  Biso   1.000  C
  C234     1.0000 0.56781  0.79010  0.33752  Biso   1.000  C
  H117     1.0000 0.57480  0.77520  0.35630  Biso   1.000  H
  C235     1.0000 0.63350  0.82330  0.36940  Biso   1.000  C
  H118     1.0000 0.62450  0.80280  0.38040  Biso   1.000  H
  C236     1.0000 0.61688  0.83678  0.33974  Biso   1.000  C
  N178     1.0000 0.53921  0.31251  0.79407  Biso   1.000  N
  N179     1.0000 0.53955  0.28591  0.81716  Biso   1.000  N
  N180     1.0000 0.56652  0.33356  0.79908  Biso   1.000  N
  C237     1.0000 0.58513  0.32018  0.82625  Biso   1.000  C
  C238     1.0000 0.56781  0.29010  0.83752  Biso   1.000  C
  H119     1.0000 0.57480  0.27520  0.85630  Biso   1.000  H
  C239     1.0000 0.63350  0.32330  0.86940  Biso   1.000  C
  H120     1.0000 0.62450  0.30280  0.88040  Biso   1.000  H
  C240     1.0000 0.61688  0.33678  0.83974  Biso   1.000  C
  N181     1.0000 0.96079  0.18749  0.79407  Biso   1.000  N
  N182     1.0000 0.96045  0.21409  0.81716  Biso   1.000  N
  N183     1.0000 0.93348  0.16644  0.79908  Biso   1.000  N
  C241     1.0000 0.91487  0.17982  0.82625  Biso   1.000  C
  C242     1.0000 0.93219  0.20990  0.83752  Biso   1.000  C
  H121     1.0000 0.92520  0.22480  0.85630  Biso   1.000  H
  C243     1.0000 0.86650  0.17670  0.86940  Biso   1.000  C
  H122     1.0000 0.87550  0.19720  0.88040  Biso   1.000  H
  C244     1.0000 0.88312  0.16322  0.83974  Biso   1.000  C
  N184     1.0000 0.96079  0.68749  0.29407  Biso   1.000  N
  N185     1.0000 0.96045  0.71409  0.31716  Biso   1.000  N
  N186     1.0000 0.93348  0.66644  0.29908  Biso   1.000  N
  C245     1.0000 0.91487  0.67982  0.32625  Biso   1.000  C
  C246     1.0000 0.93219  0.70990  0.33752  Biso   1.000  C
  H123     1.0000 0.92520  0.72480  0.35630  Biso   1.000  H
  C247     1.0000 0.86650  0.67670  0.36940  Biso   1.000  C
  H124     1.0000 0.87550  0.69720  0.38040  Biso   1.000  H
  C248     1.0000 0.88312  0.66322  0.33974  Biso   1.000  C
  N187     1.0000 0.46079  0.18749  0.29407  Biso   1.000  N
  N188     1.0000 0.46045  0.21409  0.31716  Biso   1.000  N
  N189     1.0000 0.43348  0.16644  0.29908  Biso   1.000  N
  C249     1.0000 0.41487  0.17982  0.32625  Biso   1.000  C
  C250     1.0000 0.43219  0.20990  0.33752  Biso   1.000  C
  H125     1.0000 0.42520  0.22480  0.35630  Biso   1.000  H
  C251     1.0000 0.36650  0.17670  0.36940  Biso   1.000  C
  H126     1.0000 0.37550  0.19720  0.38040  Biso   1.000  H
  C252     1.0000 0.38312  0.16322  0.33974  Biso   1.000  C
  N190     1.0000 0.46079  0.68749  0.79407  Biso   1.000  N
  N191     1.0000 0.46045  0.71409  0.81716  Biso   1.000  N
  N192     1.0000 0.43348  0.66644  0.79908  Biso   1.000  N
  C253     1.0000 0.41487  0.67982  0.82625  Biso   1.000  C
  C254     1.0000 0.43219  0.70990  0.83752  Biso   1.000  C
  H127     1.0000 0.42520  0.72480  0.85630  Biso   1.000  H
  C255     1.0000 0.36650  0.67670  0.86940  Biso   1.000  C
  H128     1.0000 0.37550  0.69720  0.88040  Biso   1.000  H
  C256     1.0000 0.38312  0.66322  0.83974  Biso   1.000  C
  N193     1.0000 0.18749  0.79407  0.96079  Biso   1.000  N
  N194     1.0000 0.21409  0.81716  0.96045  Biso   1.000  N
  N195     1.0000 0.16644  0.79908  0.93348  Biso   1.000  N
  C257     1.0000 0.17982  0.82625  0.91487  Biso   1.000  C
  C258     1.0000 0.20990  0.83752  0.93219  Biso   1.000  C
  H129     1.0000 0.22480  0.85630  0.92520  Biso   1.000  H
  C259     1.0000 0.17670  0.86940  0.86650  Biso   1.000  C
  H130     1.0000 0.19720  0.88040  0.87550  Biso   1.000  H
  C260     1.0000 0.16322  0.83974  0.88312  Biso   1.000  C
  N196     1.0000 0.18749  0.29407  0.46079  Biso   1.000  N
  N197     1.0000 0.21409  0.31716  0.46045  Biso   1.000  N
  N198     1.0000 0.16644  0.29908  0.43348  Biso   1.000  N
  C261     1.0000 0.17982  0.32625  0.41487  Biso   1.000  C
  C262     1.0000 0.20990  0.33752  0.43219  Biso   1.000  C
  H131     1.0000 0.22480  0.35630  0.42520  Biso   1.000  H
  C263     1.0000 0.17670  0.36940  0.36650  Biso   1.000  C
  H132     1.0000 0.19720  0.38040  0.37550  Biso   1.000  H
  C264     1.0000 0.16322  0.33974  0.38312  Biso   1.000  C
  N199     1.0000 0.68749  0.79407  0.46079  Biso   1.000  N
  N200     1.0000 0.71409  0.81716  0.46045  Biso   1.000  N
  N201     1.0000 0.66644  0.79908  0.43348  Biso   1.000  N
  C265     1.0000 0.67982  0.82625  0.41487  Biso   1.000  C
  C266     1.0000 0.70990  0.83752  0.43219  Biso   1.000  C
  H133     1.0000 0.72480  0.85630  0.42520  Biso   1.000  H
  C267     1.0000 0.67670  0.86940  0.36650  Biso   1.000  C
  H134     1.0000 0.69720  0.88040  0.37550  Biso   1.000  H
  C268     1.0000 0.66322  0.83974  0.38312  Biso   1.000  C
  N202     1.0000 0.68749  0.29407  0.96079  Biso   1.000  N
  N203     1.0000 0.71409  0.31716  0.96045  Biso   1.000  N
  N204     1.0000 0.66644  0.29908  0.93348  Biso   1.000  N
  C269     1.0000 0.67982  0.32625  0.91487  Biso   1.000  C
  C270     1.0000 0.70990  0.33752  0.93219  Biso   1.000  C
  H135     1.0000 0.72480  0.35630  0.92520  Biso   1.000  H
  C271     1.0000 0.67670  0.36940  0.86650  Biso   1.000  C
  H136     1.0000 0.69720  0.38040  0.87550  Biso   1.000  H
  C272     1.0000 0.66322  0.33974  0.88312  Biso   1.000  C
  N205     1.0000 0.81251  0.79407  0.03921  Biso   1.000  N
  N206     1.0000 0.78591  0.81716  0.03955  Biso   1.000  N
  N207     1.0000 0.83356  0.79908  0.06652  Biso   1.000  N
  C273     1.0000 0.82018  0.82625  0.08513  Biso   1.000  C
  C274     1.0000 0.79010  0.83752  0.06781  Biso   1.000  C
  H137     1.0000 0.77520  0.85630  0.07480  Biso   1.000  H
  C275     1.0000 0.82330  0.86940  0.13350  Biso   1.000  C
  H138     1.0000 0.80280  0.88040  0.12450  Biso   1.000  H
  C276     1.0000 0.83678  0.83974  0.11688  Biso   1.000  C
  N208     1.0000 0.81251  0.29407  0.53921  Biso   1.000  N
  N209     1.0000 0.78591  0.31716  0.53955  Biso   1.000  N
  N210     1.0000 0.83356  0.29908  0.56652  Biso   1.000  N
  C277     1.0000 0.82018  0.32625  0.58513  Biso   1.000  C
  C278     1.0000 0.79010  0.33752  0.56781  Biso   1.000  C
  H139     1.0000 0.77520  0.35630  0.57480  Biso   1.000  H
  C279     1.0000 0.82330  0.36940  0.63350  Biso   1.000  C
  H140     1.0000 0.80280  0.38040  0.62450  Biso   1.000  H
  C280     1.0000 0.83678  0.33974  0.61688  Biso   1.000  C
  N211     1.0000 0.31251  0.79407  0.53921  Biso   1.000  N
  N212     1.0000 0.28591  0.81716  0.53955  Biso   1.000  N
  N213     1.0000 0.33356  0.79908  0.56652  Biso   1.000  N
  C281     1.0000 0.32018  0.82625  0.58513  Biso   1.000  C
  C282     1.0000 0.29010  0.83752  0.56781  Biso   1.000  C
  H141     1.0000 0.27520  0.85630  0.57480  Biso   1.000  H
  C283     1.0000 0.32330  0.86940  0.63350  Biso   1.000  C
  H142     1.0000 0.30280  0.88040  0.62450  Biso   1.000  H
  C284     1.0000 0.33678  0.83974  0.61688  Biso   1.000  C
  N214     1.0000 0.31251  0.29407  0.03921  Biso   1.000  N
  N215     1.0000 0.28591  0.31716  0.03955  Biso   1.000  N
  N216     1.0000 0.33356  0.29908  0.06652  Biso   1.000  N
  C285     1.0000 0.32018  0.32625  0.08513  Biso   1.000  C
  C286     1.0000 0.29010  0.33752  0.06781  Biso   1.000  C
  H143     1.0000 0.27520  0.35630  0.07480  Biso   1.000  H
  C287     1.0000 0.32330  0.36940  0.13350  Biso   1.000  C
  H144     1.0000 0.30280  0.38040  0.12450  Biso   1.000  H
  C288     1.0000 0.33678  0.33974  0.11688  Biso   1.000  C
  N217     1.0000 0.81251  0.20593  0.96079  Biso   1.000  N
  N218     1.0000 0.78591  0.18284  0.96045  Biso   1.000  N
  N219     1.0000 0.83356  0.20092  0.93348  Biso   1.000  N
  C289     1.0000 0.82018  0.17375  0.91487  Biso   1.000  C
  C290     1.0000 0.79010  0.16248  0.93219  Biso   1.000  C
  H145     1.0000 0.77520  0.14370  0.92520  Biso   1.000  H
  C291     1.0000 0.82330  0.13060  0.86650  Biso   1.000  C
  H146     1.0000 0.80280  0.11960  0.87550  Biso   1.000  H
  C292     1.0000 0.83678  0.16026  0.88312  Biso   1.000  C
  N220     1.0000 0.81251  0.70593  0.46079  Biso   1.000  N
  N221     1.0000 0.78591  0.68284  0.46045  Biso   1.000  N
  N222     1.0000 0.83356  0.70092  0.43348  Biso   1.000  N
  C293     1.0000 0.82018  0.67375  0.41487  Biso   1.000  C
  C294     1.0000 0.79010  0.66248  0.43219  Biso   1.000  C
  H147     1.0000 0.77520  0.64370  0.42520  Biso   1.000  H
  C295     1.0000 0.82330  0.63060  0.36650  Biso   1.000  C
  H148     1.0000 0.80280  0.61960  0.37550  Biso   1.000  H
  C296     1.0000 0.83678  0.66026  0.38312  Biso   1.000  C
  N223     1.0000 0.31251  0.20593  0.46079  Biso   1.000  N
  N224     1.0000 0.28591  0.18284  0.46045  Biso   1.000  N
  N225     1.0000 0.33356  0.20092  0.43348  Biso   1.000  N
  C297     1.0000 0.32018  0.17375  0.41487  Biso   1.000  C
  C298     1.0000 0.29010  0.16248  0.43219  Biso   1.000  C
  H149     1.0000 0.27520  0.14370  0.42520  Biso   1.000  H
  C299     1.0000 0.32330  0.13060  0.36650  Biso   1.000  C
  H150     1.0000 0.30280  0.11960  0.37550  Biso   1.000  H
  C300     1.0000 0.33678  0.16026  0.38312  Biso   1.000  C
  N226     1.0000 0.31251  0.70593  0.96079  Biso   1.000  N
  N227     1.0000 0.28591  0.68284  0.96045  Biso   1.000  N
  N228     1.0000 0.33356  0.70092  0.93348  Biso   1.000  N
  C301     1.0000 0.32018  0.67375  0.91487  Biso   1.000  C
  C302     1.0000 0.29010  0.66248  0.93219  Biso   1.000  C
  H151     1.0000 0.27520  0.64370  0.92520  Biso   1.000  H
  C303     1.0000 0.32330  0.63060  0.86650  Biso   1.000  C
  H152     1.0000 0.30280  0.61960  0.87550  Biso   1.000  H
  C304     1.0000 0.33678  0.66026  0.88312  Biso   1.000  C
  N229     1.0000 0.18749  0.20593  0.03921  Biso   1.000  N
  N230     1.0000 0.21409  0.18284  0.03955  Biso   1.000  N
  N231     1.0000 0.16644  0.20092  0.06652  Biso   1.000  N
  C305     1.0000 0.17982  0.17375  0.08513  Biso   1.000  C
  C306     1.0000 0.20990  0.16248  0.06781  Biso   1.000  C
  H153     1.0000 0.22480  0.14370  0.07480  Biso   1.000  H
  C307     1.0000 0.17670  0.13060  0.13350  Biso   1.000  C
  H154     1.0000 0.19720  0.11960  0.12450  Biso   1.000  H
  C308     1.0000 0.16322  0.16026  0.11688  Biso   1.000  C
  N232     1.0000 0.18749  0.70593  0.53921  Biso   1.000  N
  N233     1.0000 0.21409  0.68284  0.53955  Biso   1.000  N
  N234     1.0000 0.16644  0.70092  0.56652  Biso   1.000  N
  C309     1.0000 0.17982  0.67375  0.58513  Biso   1.000  C
  C310     1.0000 0.20990  0.66248  0.56781  Biso   1.000  C
  H155     1.0000 0.22480  0.64370  0.57480  Biso   1.000  H
  C311     1.0000 0.17670  0.63060  0.63350  Biso   1.000  C
  H156     1.0000 0.19720  0.61960  0.62450  Biso   1.000  H
  C312     1.0000 0.16322  0.66026  0.61688  Biso   1.000  C
  N235     1.0000 0.68749  0.20593  0.53921  Biso   1.000  N
  N236     1.0000 0.71409  0.18284  0.53955  Biso   1.000  N
  N237     1.0000 0.66644  0.20092  0.56652  Biso   1.000  N
  C313     1.0000 0.67982  0.17375  0.58513  Biso   1.000  C
  C314     1.0000 0.70990  0.16248  0.56781  Biso   1.000  C
  H157     1.0000 0.72480  0.14370  0.57480  Biso   1.000  H
  C315     1.0000 0.67670  0.13060  0.63350  Biso   1.000  C
  H158     1.0000 0.69720  0.11960  0.62450  Biso   1.000  H
  C316     1.0000 0.66322  0.16026  0.61688  Biso   1.000  C
  N238     1.0000 0.68749  0.70593  0.03921  Biso   1.000  N
  N239     1.0000 0.71409  0.68284  0.03955  Biso   1.000  N
  N240     1.0000 0.66644  0.70092  0.06652  Biso   1.000  N
  C317     1.0000 0.67982  0.67375  0.08513  Biso   1.000  C
  C318     1.0000 0.70990  0.66248  0.06781  Biso   1.000  C
  H159     1.0000 0.72480  0.64370  0.07480  Biso   1.000  H
  C319     1.0000 0.67670  0.63060  0.13350  Biso   1.000  C
  H160     1.0000 0.69720  0.61960  0.12450  Biso   1.000  H
  C320     1.0000 0.66322  0.66026  0.11688  Biso   1.000  C
  N241     1.0000 0.79407  0.03921  0.81251  Biso   1.000  N
  N242     1.0000 0.81716  0.03955  0.78591  Biso   1.000  N
  N243     1.0000 0.79908  0.06652  0.83356  Biso   1.000  N
  C321     1.0000 0.82625  0.08513  0.82018  Biso   1.000  C
  C322     1.0000 0.83752  0.06781  0.79010  Biso   1.000  C
  H161     1.0000 0.85630  0.07480  0.77520  Biso   1.000  H
  C323     1.0000 0.86940  0.13350  0.82330  Biso   1.000  C
  H162     1.0000 0.88040  0.12450  0.80280  Biso   1.000  H
  C324     1.0000 0.83974  0.11688  0.83678  Biso   1.000  C
  N244     1.0000 0.79407  0.53921  0.31251  Biso   1.000  N
  N245     1.0000 0.81716  0.53955  0.28591  Biso   1.000  N
  N246     1.0000 0.79908  0.56652  0.33356  Biso   1.000  N
  C325     1.0000 0.82625  0.58513  0.32018  Biso   1.000  C
  C326     1.0000 0.83752  0.56781  0.29010  Biso   1.000  C
  H163     1.0000 0.85630  0.57480  0.27520  Biso   1.000  H
  C327     1.0000 0.86940  0.63350  0.32330  Biso   1.000  C
  H164     1.0000 0.88040  0.62450  0.30280  Biso   1.000  H
  C328     1.0000 0.83974  0.61688  0.33678  Biso   1.000  C
  N247     1.0000 0.29407  0.03921  0.31251  Biso   1.000  N
  N248     1.0000 0.31716  0.03955  0.28591  Biso   1.000  N
  N249     1.0000 0.29908  0.06652  0.33356  Biso   1.000  N
  C329     1.0000 0.32625  0.08513  0.32018  Biso   1.000  C
  C330     1.0000 0.33752  0.06781  0.29010  Biso   1.000  C
  H165     1.0000 0.35630  0.07480  0.27520  Biso   1.000  H
  C331     1.0000 0.36940  0.13350  0.32330  Biso   1.000  C
  H166     1.0000 0.38040  0.12450  0.30280  Biso   1.000  H
  C332     1.0000 0.33974  0.11688  0.33678  Biso   1.000  C
  N250     1.0000 0.29407  0.53921  0.81251  Biso   1.000  N
  N251     1.0000 0.31716  0.53955  0.78591  Biso   1.000  N
  N252     1.0000 0.29908  0.56652  0.83356  Biso   1.000  N
  C333     1.0000 0.32625  0.58513  0.82018  Biso   1.000  C
  C334     1.0000 0.33752  0.56781  0.79010  Biso   1.000  C
  H167     1.0000 0.35630  0.57480  0.77520  Biso   1.000  H
  C335     1.0000 0.36940  0.63350  0.82330  Biso   1.000  C
  H168     1.0000 0.38040  0.62450  0.80280  Biso   1.000  H
  C336     1.0000 0.33974  0.61688  0.83678  Biso   1.000  C
  N253     1.0000 0.79407  0.96079  0.18749  Biso   1.000  N
  N254     1.0000 0.81716  0.96045  0.21409  Biso   1.000  N
  N255     1.0000 0.79908  0.93348  0.16644  Biso   1.000  N
  C337     1.0000 0.82625  0.91487  0.17982  Biso   1.000  C
  C338     1.0000 0.83752  0.93219  0.20990  Biso   1.000  C
  H169     1.0000 0.85630  0.92520  0.22480  Biso   1.000  H
  C339     1.0000 0.86940  0.86650  0.17670  Biso   1.000  C
  H170     1.0000 0.88040  0.87550  0.19720  Biso   1.000  H
  C340     1.0000 0.83974  0.88312  0.16322  Biso   1.000  C
  N256     1.0000 0.79407  0.46079  0.68749  Biso   1.000  N
  N257     1.0000 0.81716  0.46045  0.71409  Biso   1.000  N
  N258     1.0000 0.79908  0.43348  0.66644  Biso   1.000  N
  C341     1.0000 0.82625  0.41487  0.67982  Biso   1.000  C
  C342     1.0000 0.83752  0.43219  0.70990  Biso   1.000  C
  H171     1.0000 0.85630  0.42520  0.72480  Biso   1.000  H
  C343     1.0000 0.86940  0.36650  0.67670  Biso   1.000  C
  H172     1.0000 0.88040  0.37550  0.69720  Biso   1.000  H
  C344     1.0000 0.83974  0.38312  0.66322  Biso   1.000  C
  N259     1.0000 0.29407  0.96079  0.68749  Biso   1.000  N
  N260     1.0000 0.31716  0.96045  0.71409  Biso   1.000  N
  N261     1.0000 0.29908  0.93348  0.66644  Biso   1.000  N
  C345     1.0000 0.32625  0.91487  0.67982  Biso   1.000  C
  C346     1.0000 0.33752  0.93219  0.70990  Biso   1.000  C
  H173     1.0000 0.35630  0.92520  0.72480  Biso   1.000  H
  C347     1.0000 0.36940  0.86650  0.67670  Biso   1.000  C
  H174     1.0000 0.38040  0.87550  0.69720  Biso   1.000  H
  C348     1.0000 0.33974  0.88312  0.66322  Biso   1.000  C
  N262     1.0000 0.29407  0.46079  0.18749  Biso   1.000  N
  N263     1.0000 0.31716  0.46045  0.21409  Biso   1.000  N
  N264     1.0000 0.29908  0.43348  0.16644  Biso   1.000  N
  C349     1.0000 0.32625  0.41487  0.17982  Biso   1.000  C
  C350     1.0000 0.33752  0.43219  0.20990  Biso   1.000  C
  H175     1.0000 0.35630  0.42520  0.22480  Biso   1.000  H
  C351     1.0000 0.36940  0.36650  0.17670  Biso   1.000  C
  H176     1.0000 0.38040  0.37550  0.19720  Biso   1.000  H
  C352     1.0000 0.33974  0.38312  0.16322  Biso   1.000  C
  N265     1.0000 0.20593  0.03921  0.18749  Biso   1.000  N
  N266     1.0000 0.18284  0.03955  0.21409  Biso   1.000  N
  N267     1.0000 0.20092  0.06652  0.16644  Biso   1.000  N
  C353     1.0000 0.17375  0.08513  0.17982  Biso   1.000  C
  C354     1.0000 0.16248  0.06781  0.20990  Biso   1.000  C
  H177     1.0000 0.14370  0.07480  0.22480  Biso   1.000  H
  C355     1.0000 0.13060  0.13350  0.17670  Biso   1.000  C
  H178     1.0000 0.11960  0.12450  0.19720  Biso   1.000  H
  C356     1.0000 0.16026  0.11688  0.16322  Biso   1.000  C
  N268     1.0000 0.20593  0.53921  0.68749  Biso   1.000  N
  N269     1.0000 0.18284  0.53955  0.71409  Biso   1.000  N
  N270     1.0000 0.20092  0.56652  0.66644  Biso   1.000  N
  C357     1.0000 0.17375  0.58513  0.67982  Biso   1.000  C
  C358     1.0000 0.16248  0.56781  0.70990  Biso   1.000  C
  H179     1.0000 0.14370  0.57480  0.72480  Biso   1.000  H
  C359     1.0000 0.13060  0.63350  0.67670  Biso   1.000  C
  H180     1.0000 0.11960  0.62450  0.69720  Biso   1.000  H
  C360     1.0000 0.16026  0.61688  0.66322  Biso   1.000  C
  N271     1.0000 0.70593  0.03921  0.68749  Biso   1.000  N
  N272     1.0000 0.68284  0.03955  0.71409  Biso   1.000  N
  N273     1.0000 0.70092  0.06652  0.66644  Biso   1.000  N
  C361     1.0000 0.67375  0.08513  0.67982  Biso   1.000  C
  C362     1.0000 0.66248  0.06781  0.70990  Biso   1.000  C
  H181     1.0000 0.64370  0.07480  0.72480  Biso   1.000  H
  C363     1.0000 0.63060  0.13350  0.67670  Biso   1.000  C
  H182     1.0000 0.61960  0.12450  0.69720  Biso   1.000  H
  C364     1.0000 0.66026  0.11688  0.66322  Biso   1.000  C
  N274     1.0000 0.70593  0.53921  0.18749  Biso   1.000  N
  N275     1.0000 0.68284  0.53955  0.21409  Biso   1.000  N
  N276     1.0000 0.70092  0.56652  0.16644  Biso   1.000  N
  C365     1.0000 0.67375  0.58513  0.17982  Biso   1.000  C
  C366     1.0000 0.66248  0.56781  0.20990  Biso   1.000  C
  H183     1.0000 0.64370  0.57480  0.22480  Biso   1.000  H
  C367     1.0000 0.63060  0.63350  0.17670  Biso   1.000  C
  H184     1.0000 0.61960  0.62450  0.19720  Biso   1.000  H
  C368     1.0000 0.66026  0.61688  0.16322  Biso   1.000  C
  N277     1.0000 0.20593  0.96079  0.81251  Biso   1.000  N
  N278     1.0000 0.18284  0.96045  0.78591  Biso   1.000  N
  N279     1.0000 0.20092  0.93348  0.83356  Biso   1.000  N
  C369     1.0000 0.17375  0.91487  0.82018  Biso   1.000  C
  C370     1.0000 0.16248  0.93219  0.79010  Biso   1.000  C
  H185     1.0000 0.14370  0.92520  0.77520  Biso   1.000  H
  C371     1.0000 0.13060  0.86650  0.82330  Biso   1.000  C
  H186     1.0000 0.11960  0.87550  0.80280  Biso   1.000  H
  C372     1.0000 0.16026  0.88312  0.83678  Biso   1.000  C
  N280     1.0000 0.20593  0.46079  0.31251  Biso   1.000  N
  N281     1.0000 0.18284  0.46045  0.28591  Biso   1.000  N
  N282     1.0000 0.20092  0.43348  0.33356  Biso   1.000  N
  C373     1.0000 0.17375  0.41487  0.32018  Biso   1.000  C
  C374     1.0000 0.16248  0.43219  0.29010  Biso   1.000  C
  H187     1.0000 0.14370  0.42520  0.27520  Biso   1.000  H
  C375     1.0000 0.13060  0.36650  0.32330  Biso   1.000  C
  H188     1.0000 0.11960  0.37550  0.30280  Biso   1.000  H
  C376     1.0000 0.16026  0.38312  0.33678  Biso   1.000  C
  N283     1.0000 0.70593  0.96079  0.31251  Biso   1.000  N
  N284     1.0000 0.68284  0.96045  0.28591  Biso   1.000  N
  N285     1.0000 0.70092  0.93348  0.33356  Biso   1.000  N
  C377     1.0000 0.67375  0.91487  0.32018  Biso   1.000  C
  C378     1.0000 0.66248  0.93219  0.29010  Biso   1.000  C
  H189     1.0000 0.64370  0.92520  0.27520  Biso   1.000  H
  C379     1.0000 0.63060  0.86650  0.32330  Biso   1.000  C
  H190     1.0000 0.61960  0.87550  0.30280  Biso   1.000  H
  C380     1.0000 0.66026  0.88312  0.33678  Biso   1.000  C
  N286     1.0000 0.70593  0.46079  0.81251  Biso   1.000  N
  N287     1.0000 0.68284  0.46045  0.78591  Biso   1.000  N
  N288     1.0000 0.70092  0.43348  0.83356  Biso   1.000  N
  C381     1.0000 0.67375  0.41487  0.82018  Biso   1.000  C
  C382     1.0000 0.66248  0.43219  0.79010  Biso   1.000  C
  H191     1.0000 0.64370  0.42520  0.77520  Biso   1.000  H
  C383     1.0000 0.63060  0.36650  0.82330  Biso   1.000  C
  H192     1.0000 0.61960  0.37550  0.80280  Biso   1.000  H
  C384     1.0000 0.66026  0.38312  0.83678  Biso   1.000  C
  N289     1.0000 0.31251  0.46079  0.70593  Biso   1.000  N
  N290     1.0000 0.28591  0.46045  0.68284  Biso   1.000  N
  N291     1.0000 0.33356  0.43348  0.70092  Biso   1.000  N
  C385     1.0000 0.32018  0.41487  0.67375  Biso   1.000  C
  C386     1.0000 0.29010  0.43219  0.66248  Biso   1.000  C
  H193     1.0000 0.27520  0.42520  0.64370  Biso   1.000  H
  C387     1.0000 0.32330  0.36650  0.63060  Biso   1.000  C
  H194     1.0000 0.30280  0.37550  0.61960  Biso   1.000  H
  C388     1.0000 0.33678  0.38312  0.66026  Biso   1.000  C
  N292     1.0000 0.31251  0.96079  0.20593  Biso   1.000  N
  N293     1.0000 0.28591  0.96045  0.18284  Biso   1.000  N
  N294     1.0000 0.33356  0.93348  0.20092  Biso   1.000  N
  C389     1.0000 0.32018  0.91487  0.17375  Biso   1.000  C
  C390     1.0000 0.29010  0.93219  0.16248  Biso   1.000  C
  H195     1.0000 0.27520  0.92520  0.14370  Biso   1.000  H
  C391     1.0000 0.32330  0.86650  0.13060  Biso   1.000  C
  H196     1.0000 0.30280  0.87550  0.11960  Biso   1.000  H
  C392     1.0000 0.33678  0.88312  0.16026  Biso   1.000  C
  N295     1.0000 0.81251  0.46079  0.20593  Biso   1.000  N
  N296     1.0000 0.78591  0.46045  0.18284  Biso   1.000  N
  N297     1.0000 0.83356  0.43348  0.20092  Biso   1.000  N
  C393     1.0000 0.82018  0.41487  0.17375  Biso   1.000  C
  C394     1.0000 0.79010  0.43219  0.16248  Biso   1.000  C
  H197     1.0000 0.77520  0.42520  0.14370  Biso   1.000  H
  C395     1.0000 0.82330  0.36650  0.13060  Biso   1.000  C
  H198     1.0000 0.80280  0.37550  0.11960  Biso   1.000  H
  C396     1.0000 0.83678  0.38312  0.16026  Biso   1.000  C
  N298     1.0000 0.81251  0.96079  0.70593  Biso   1.000  N
  N299     1.0000 0.78591  0.96045  0.68284  Biso   1.000  N
  N300     1.0000 0.83356  0.93348  0.70092  Biso   1.000  N
  C397     1.0000 0.82018  0.91487  0.67375  Biso   1.000  C
  C398     1.0000 0.79010  0.93219  0.66248  Biso   1.000  C
  H199     1.0000 0.77520  0.92520  0.64370  Biso   1.000  H
  C399     1.0000 0.82330  0.86650  0.63060  Biso   1.000  C
  H200     1.0000 0.80280  0.87550  0.61960  Biso   1.000  H
  C400     1.0000 0.83678  0.88312  0.66026  Biso   1.000  C
  N301     1.0000 0.68749  0.53921  0.70593  Biso   1.000  N
  N302     1.0000 0.71409  0.53955  0.68284  Biso   1.000  N
  N303     1.0000 0.66644  0.56652  0.70092  Biso   1.000  N
  C401     1.0000 0.67982  0.58513  0.67375  Biso   1.000  C
  C402     1.0000 0.70990  0.56781  0.66248  Biso   1.000  C
  H201     1.0000 0.72480  0.57480  0.64370  Biso   1.000  H
  C403     1.0000 0.67670  0.63350  0.63060  Biso   1.000  C
  H202     1.0000 0.69720  0.62450  0.61960  Biso   1.000  H
  C404     1.0000 0.66322  0.61688  0.66026  Biso   1.000  C
  N304     1.0000 0.68749  0.03921  0.20593  Biso   1.000  N
  N305     1.0000 0.71409  0.03955  0.18284  Biso   1.000  N
  N306     1.0000 0.66644  0.06652  0.20092  Biso   1.000  N
  C405     1.0000 0.67982  0.08513  0.17375  Biso   1.000  C
  C406     1.0000 0.70990  0.06781  0.16248  Biso   1.000  C
  H203     1.0000 0.72480  0.07480  0.14370  Biso   1.000  H
  C407     1.0000 0.67670  0.13350  0.13060  Biso   1.000  C
  H204     1.0000 0.69720  0.12450  0.11960  Biso   1.000  H
  C408     1.0000 0.66322  0.11688  0.16026  Biso   1.000  C
  N307     1.0000 0.18749  0.53921  0.20593  Biso   1.000  N
  N308     1.0000 0.21409  0.53955  0.18284  Biso   1.000  N
  N309     1.0000 0.16644  0.56652  0.20092  Biso   1.000  N
  C409     1.0000 0.17982  0.58513  0.17375  Biso   1.000  C
  C410     1.0000 0.20990  0.56781  0.16248  Biso   1.000  C
  H205     1.0000 0.22480  0.57480  0.14370  Biso   1.000  H
  C411     1.0000 0.17670  0.63350  0.13060  Biso   1.000  C
  H206     1.0000 0.19720  0.62450  0.11960  Biso   1.000  H
  C412     1.0000 0.16322  0.61688  0.16026  Biso   1.000  C
  N310     1.0000 0.18749  0.03921  0.70593  Biso   1.000  N
  N311     1.0000 0.21409  0.03955  0.68284  Biso   1.000  N
  N312     1.0000 0.16644  0.06652  0.70092  Biso   1.000  N
  C413     1.0000 0.17982  0.08513  0.67375  Biso   1.000  C
  C414     1.0000 0.20990  0.06781  0.66248  Biso   1.000  C
  H207     1.0000 0.22480  0.07480  0.64370  Biso   1.000  H
  C415     1.0000 0.17670  0.13350  0.63060  Biso   1.000  C
  H208     1.0000 0.19720  0.12450  0.61960  Biso   1.000  H
  C416     1.0000 0.16322  0.11688  0.66026  Biso   1.000  C
  N313     1.0000 0.68749  0.46079  0.29407  Biso   1.000  N
  N314     1.0000 0.71409  0.46045  0.31716  Biso   1.000  N
  N315     1.0000 0.66644  0.43348  0.29908  Biso   1.000  N
  C417     1.0000 0.67982  0.41487  0.32625  Biso   1.000  C
  C418     1.0000 0.70990  0.43219  0.33752  Biso   1.000  C
  H209     1.0000 0.72480  0.42520  0.35630  Biso   1.000  H
  C419     1.0000 0.67670  0.36650  0.36940  Biso   1.000  C
  H210     1.0000 0.69720  0.37550  0.38040  Biso   1.000  H
  C420     1.0000 0.66322  0.38312  0.33974  Biso   1.000  C
  N316     1.0000 0.68749  0.96079  0.79407  Biso   1.000  N
  N317     1.0000 0.71409  0.96045  0.81716  Biso   1.000  N
  N318     1.0000 0.66644  0.93348  0.79908  Biso   1.000  N
  C421     1.0000 0.67982  0.91487  0.82625  Biso   1.000  C
  C422     1.0000 0.70990  0.93219  0.83752  Biso   1.000  C
  H211     1.0000 0.72480  0.92520  0.85630  Biso   1.000  H
  C423     1.0000 0.67670  0.86650  0.86940  Biso   1.000  C
  H212     1.0000 0.69720  0.87550  0.88040  Biso   1.000  H
  C424     1.0000 0.66322  0.88312  0.83974  Biso   1.000  C
  N319     1.0000 0.18749  0.46079  0.79407  Biso   1.000  N
  N320     1.0000 0.21409  0.46045  0.81716  Biso   1.000  N
  N321     1.0000 0.16644  0.43348  0.79908  Biso   1.000  N
  C425     1.0000 0.17982  0.41487  0.82625  Biso   1.000  C
  C426     1.0000 0.20990  0.43219  0.83752  Biso   1.000  C
  H213     1.0000 0.22480  0.42520  0.85630  Biso   1.000  H
  C427     1.0000 0.17670  0.36650  0.86940  Biso   1.000  C
  H214     1.0000 0.19720  0.37550  0.88040  Biso   1.000  H
  C428     1.0000 0.16322  0.38312  0.83974  Biso   1.000  C
  N322     1.0000 0.18749  0.96079  0.29407  Biso   1.000  N
  N323     1.0000 0.21409  0.96045  0.31716  Biso   1.000  N
  N324     1.0000 0.16644  0.93348  0.29908  Biso   1.000  N
  C429     1.0000 0.17982  0.91487  0.32625  Biso   1.000  C
  C430     1.0000 0.20990  0.93219  0.33752  Biso   1.000  C
  H215     1.0000 0.22480  0.92520  0.35630  Biso   1.000  H
  C431     1.0000 0.17670  0.86650  0.36940  Biso   1.000  C
  H216     1.0000 0.19720  0.87550  0.38040  Biso   1.000  H
  C432     1.0000 0.16322  0.88312  0.33974  Biso   1.000  C
  N325     1.0000 0.31251  0.53921  0.29407  Biso   1.000  N
  N326     1.0000 0.28591  0.53955  0.31716  Biso   1.000  N
  N327     1.0000 0.33356  0.56652  0.29908  Biso   1.000  N
  C433     1.0000 0.32018  0.58513  0.32625  Biso   1.000  C
  C434     1.0000 0.29010  0.56781  0.33752  Biso   1.000  C
  H217     1.0000 0.27520  0.57480  0.35630  Biso   1.000  H
  C435     1.0000 0.32330  0.63350  0.36940  Biso   1.000  C
  H218     1.0000 0.30280  0.62450  0.38040  Biso   1.000  H
  C436     1.0000 0.33678  0.61688  0.33974  Biso   1.000  C
  N328     1.0000 0.31251  0.03921  0.79407  Biso   1.000  N
  N329     1.0000 0.28591  0.03955  0.81716  Biso   1.000  N
  N330     1.0000 0.33356  0.06652  0.79908  Biso   1.000  N
  C437     1.0000 0.32018  0.08513  0.82625  Biso   1.000  C
  C438     1.0000 0.29010  0.06781  0.83752  Biso   1.000  C
  H219     1.0000 0.27520  0.07480  0.85630  Biso   1.000  H
  C439     1.0000 0.32330  0.13350  0.86940  Biso   1.000  C
  H220     1.0000 0.30280  0.12450  0.88040  Biso   1.000  H
  C440     1.0000 0.33678  0.11688  0.83974  Biso   1.000  C
  N331     1.0000 0.81251  0.53921  0.79407  Biso   1.000  N
  N332     1.0000 0.78591  0.53955  0.81716  Biso   1.000  N
  N333     1.0000 0.83356  0.56652  0.79908  Biso   1.000  N
  C441     1.0000 0.82018  0.58513  0.82625  Biso   1.000  C
  C442     1.0000 0.79010  0.56781  0.83752  Biso   1.000  C
  H221     1.0000 0.77520  0.57480  0.85630  Biso   1.000  H
  C443     1.0000 0.82330  0.63350  0.86940  Biso   1.000  C
  H222     1.0000 0.80280  0.62450  0.88040  Biso   1.000  H
  C444     1.0000 0.83678  0.61688  0.83974  Biso   1.000  C
  N334     1.0000 0.81251  0.03921  0.29407  Biso   1.000  N
  N335     1.0000 0.78591  0.03955  0.31716  Biso   1.000  N
  N336     1.0000 0.83356  0.06652  0.29908  Biso   1.000  N
  C445     1.0000 0.82018  0.08513  0.32625  Biso   1.000  C
  C446     1.0000 0.79010  0.06781  0.33752  Biso   1.000  C
  H223     1.0000 0.77520  0.07480  0.35630  Biso   1.000  H
  C447     1.0000 0.82330  0.13350  0.36940  Biso   1.000  C
  H224     1.0000 0.80280  0.12450  0.38040  Biso   1.000  H
  C448     1.0000 0.83678  0.11688  0.33974  Biso   1.000  C
  N337     1.0000 0.70593  0.31251  0.46079  Biso   1.000  N
  N338     1.0000 0.68284  0.28591  0.46045  Biso   1.000  N
  N339     1.0000 0.70092  0.33356  0.43348  Biso   1.000  N
  C449     1.0000 0.67375  0.32018  0.41487  Biso   1.000  C
  C450     1.0000 0.66248  0.29010  0.43219  Biso   1.000  C
  H225     1.0000 0.64370  0.27520  0.42520  Biso   1.000  H
  C451     1.0000 0.63060  0.32330  0.36650  Biso   1.000  C
  H226     1.0000 0.61960  0.30280  0.37550  Biso   1.000  H
  C452     1.0000 0.66026  0.33678  0.38312  Biso   1.000  C
  N340     1.0000 0.70593  0.81251  0.96079  Biso   1.000  N
  N341     1.0000 0.68284  0.78591  0.96045  Biso   1.000  N
  N342     1.0000 0.70092  0.83356  0.93348  Biso   1.000  N
  C453     1.0000 0.67375  0.82018  0.91487  Biso   1.000  C
  C454     1.0000 0.66248  0.79010  0.93219  Biso   1.000  C
  H227     1.0000 0.64370  0.77520  0.92520  Biso   1.000  H
  C455     1.0000 0.63060  0.82330  0.86650  Biso   1.000  C
  H228     1.0000 0.61960  0.80280  0.87550  Biso   1.000  H
  C456     1.0000 0.66026  0.83678  0.88312  Biso   1.000  C
  N343     1.0000 0.20593  0.31251  0.96079  Biso   1.000  N
  N344     1.0000 0.18284  0.28591  0.96045  Biso   1.000  N
  N345     1.0000 0.20092  0.33356  0.93348  Biso   1.000  N
  C457     1.0000 0.17375  0.32018  0.91487  Biso   1.000  C
  C458     1.0000 0.16248  0.29010  0.93219  Biso   1.000  C
  H229     1.0000 0.14370  0.27520  0.92520  Biso   1.000  H
  C459     1.0000 0.13060  0.32330  0.86650  Biso   1.000  C
  H230     1.0000 0.11960  0.30280  0.87550  Biso   1.000  H
  C460     1.0000 0.16026  0.33678  0.88312  Biso   1.000  C
  N346     1.0000 0.20593  0.81251  0.46079  Biso   1.000  N
  N347     1.0000 0.18284  0.78591  0.46045  Biso   1.000  N
  N348     1.0000 0.20092  0.83356  0.43348  Biso   1.000  N
  C461     1.0000 0.17375  0.82018  0.41487  Biso   1.000  C
  C462     1.0000 0.16248  0.79010  0.43219  Biso   1.000  C
  H231     1.0000 0.14370  0.77520  0.42520  Biso   1.000  H
  C463     1.0000 0.13060  0.82330  0.36650  Biso   1.000  C
  H232     1.0000 0.11960  0.80280  0.37550  Biso   1.000  H
  C464     1.0000 0.16026  0.83678  0.38312  Biso   1.000  C
  N349     1.0000 0.70593  0.68749  0.53921  Biso   1.000  N
  N350     1.0000 0.68284  0.71409  0.53955  Biso   1.000  N
  N351     1.0000 0.70092  0.66644  0.56652  Biso   1.000  N
  C465     1.0000 0.67375  0.67982  0.58513  Biso   1.000  C
  C466     1.0000 0.66248  0.70990  0.56781  Biso   1.000  C
  H233     1.0000 0.64370  0.72480  0.57480  Biso   1.000  H
  C467     1.0000 0.63060  0.67670  0.63350  Biso   1.000  C
  H234     1.0000 0.61960  0.69720  0.62450  Biso   1.000  H
  C468     1.0000 0.66026  0.66322  0.61688  Biso   1.000  C
  N352     1.0000 0.70593  0.18749  0.03921  Biso   1.000  N
  N353     1.0000 0.68284  0.21409  0.03955  Biso   1.000  N
  N354     1.0000 0.70092  0.16644  0.06652  Biso   1.000  N
  C469     1.0000 0.67375  0.17982  0.08513  Biso   1.000  C
  C470     1.0000 0.66248  0.20990  0.06781  Biso   1.000  C
  H235     1.0000 0.64370  0.22480  0.07480  Biso   1.000  H
  C471     1.0000 0.63060  0.17670  0.13350  Biso   1.000  C
  H236     1.0000 0.61960  0.19720  0.12450  Biso   1.000  H
  C472     1.0000 0.66026  0.16322  0.11688  Biso   1.000  C
  N355     1.0000 0.20593  0.68749  0.03921  Biso   1.000  N
  N356     1.0000 0.18284  0.71409  0.03955  Biso   1.000  N
  N357     1.0000 0.20092  0.66644  0.06652  Biso   1.000  N
  C473     1.0000 0.17375  0.67982  0.08513  Biso   1.000  C
  C474     1.0000 0.16248  0.70990  0.06781  Biso   1.000  C
  H237     1.0000 0.14370  0.72480  0.07480  Biso   1.000  H
  C475     1.0000 0.13060  0.67670  0.13350  Biso   1.000  C
  H238     1.0000 0.11960  0.69720  0.12450  Biso   1.000  H
  C476     1.0000 0.16026  0.66322  0.11688  Biso   1.000  C
  N358     1.0000 0.20593  0.18749  0.53921  Biso   1.000  N
  N359     1.0000 0.18284  0.21409  0.53955  Biso   1.000  N
  N360     1.0000 0.20092  0.16644  0.56652  Biso   1.000  N
  C477     1.0000 0.17375  0.17982  0.58513  Biso   1.000  C
  C478     1.0000 0.16248  0.20990  0.56781  Biso   1.000  C
  H239     1.0000 0.14370  0.22480  0.57480  Biso   1.000  H
  C479     1.0000 0.13060  0.17670  0.63350  Biso   1.000  C
  H240     1.0000 0.11960  0.19720  0.62450  Biso   1.000  H
  C480     1.0000 0.16026  0.16322  0.61688  Biso   1.000  C
  N361     1.0000 0.29407  0.68749  0.46079  Biso   1.000  N
  N362     1.0000 0.31716  0.71409  0.46045  Biso   1.000  N
  N363     1.0000 0.29908  0.66644  0.43348  Biso   1.000  N
  C481     1.0000 0.32625  0.67982  0.41487  Biso   1.000  C
  C482     1.0000 0.33752  0.70990  0.43219  Biso   1.000  C
  H241     1.0000 0.35630  0.72480  0.42520  Biso   1.000  H
  C483     1.0000 0.36940  0.67670  0.36650  Biso   1.000  C
  H242     1.0000 0.38040  0.69720  0.37550  Biso   1.000  H
  C484     1.0000 0.33974  0.66322  0.38312  Biso   1.000  C
  N364     1.0000 0.29407  0.18749  0.96079  Biso   1.000  N
  N365     1.0000 0.31716  0.21409  0.96045  Biso   1.000  N
  N366     1.0000 0.29908  0.16644  0.93348  Biso   1.000  N
  C485     1.0000 0.32625  0.17982  0.91487  Biso   1.000  C
  C486     1.0000 0.33752  0.20990  0.93219  Biso   1.000  C
  H243     1.0000 0.35630  0.22480  0.92520  Biso   1.000  H
  C487     1.0000 0.36940  0.17670  0.86650  Biso   1.000  C
  H244     1.0000 0.38040  0.19720  0.87550  Biso   1.000  H
  C488     1.0000 0.33974  0.16322  0.88312  Biso   1.000  C
  N367     1.0000 0.79407  0.68749  0.96079  Biso   1.000  N
  N368     1.0000 0.81716  0.71409  0.96045  Biso   1.000  N
  N369     1.0000 0.79908  0.66644  0.93348  Biso   1.000  N
  C489     1.0000 0.82625  0.67982  0.91487  Biso   1.000  C
  C490     1.0000 0.83752  0.70990  0.93219  Biso   1.000  C
  H245     1.0000 0.85630  0.72480  0.92520  Biso   1.000  H
  C491     1.0000 0.86940  0.67670  0.86650  Biso   1.000  C
  H246     1.0000 0.88040  0.69720  0.87550  Biso   1.000  H
  C492     1.0000 0.83974  0.66322  0.88312  Biso   1.000  C
  N370     1.0000 0.79407  0.18749  0.46079  Biso   1.000  N
  N371     1.0000 0.81716  0.21409  0.46045  Biso   1.000  N
  N372     1.0000 0.79908  0.16644  0.43348  Biso   1.000  N
  C493     1.0000 0.82625  0.17982  0.41487  Biso   1.000  C
  C494     1.0000 0.83752  0.20990  0.43219  Biso   1.000  C
  H247     1.0000 0.85630  0.22480  0.42520  Biso   1.000  H
  C495     1.0000 0.86940  0.17670  0.36650  Biso   1.000  C
  H248     1.0000 0.88040  0.19720  0.37550  Biso   1.000  H
  C496     1.0000 0.83974  0.16322  0.38312  Biso   1.000  C
  N373     1.0000 0.29407  0.31251  0.53921  Biso   1.000  N
  N374     1.0000 0.31716  0.28591  0.53955  Biso   1.000  N
  N375     1.0000 0.29908  0.33356  0.56652  Biso   1.000  N
  C497     1.0000 0.32625  0.32018  0.58513  Biso   1.000  C
  C498     1.0000 0.33752  0.29010  0.56781  Biso   1.000  C
  H249     1.0000 0.35630  0.27520  0.57480  Biso   1.000  H
  C499     1.0000 0.36940  0.32330  0.63350  Biso   1.000  C
  H250     1.0000 0.38040  0.30280  0.62450  Biso   1.000  H
  C500     1.0000 0.33974  0.33678  0.61688  Biso   1.000  C
  N376     1.0000 0.29407  0.81251  0.03921  Biso   1.000  N
  N377     1.0000 0.31716  0.78591  0.03955  Biso   1.000  N
  N378     1.0000 0.29908  0.83356  0.06652  Biso   1.000  N
  C501     1.0000 0.32625  0.82018  0.08513  Biso   1.000  C
  C502     1.0000 0.33752  0.79010  0.06781  Biso   1.000  C
  H251     1.0000 0.35630  0.77520  0.07480  Biso   1.000  H
  C503     1.0000 0.36940  0.82330  0.13350  Biso   1.000  C
  H252     1.0000 0.38040  0.80280  0.12450  Biso   1.000  H
  C504     1.0000 0.33974  0.83678  0.11688  Biso   1.000  C
  N379     1.0000 0.79407  0.31251  0.03921  Biso   1.000  N
  N380     1.0000 0.81716  0.28591  0.03955  Biso   1.000  N
  N381     1.0000 0.79908  0.33356  0.06652  Biso   1.000  N
  C505     1.0000 0.82625  0.32018  0.08513  Biso   1.000  C
  C506     1.0000 0.83752  0.29010  0.06781  Biso   1.000  C
  H253     1.0000 0.85630  0.27520  0.07480  Biso   1.000  H
  C507     1.0000 0.86940  0.32330  0.13350  Biso   1.000  C
  H254     1.0000 0.88040  0.30280  0.12450  Biso   1.000  H
  C508     1.0000 0.83974  0.33678  0.11688  Biso   1.000  C
  N382     1.0000 0.79407  0.81251  0.53921  Biso   1.000  N
  N383     1.0000 0.81716  0.78591  0.53955  Biso   1.000  N
  N384     1.0000 0.79908  0.83356  0.56652  Biso   1.000  N
  C509     1.0000 0.82625  0.82018  0.58513  Biso   1.000  C
  C510     1.0000 0.83752  0.79010  0.56781  Biso   1.000  C
  H255     1.0000 0.85630  0.77520  0.57480  Biso   1.000  H
  C511     1.0000 0.86940  0.82330  0.63350  Biso   1.000  C
  H256     1.0000 0.88040  0.80280  0.62450  Biso   1.000  H
  C512     1.0000 0.83974  0.83678  0.61688  Biso   1.000  C
  N385     1.0000 0.46079  0.70593  0.31251  Biso   1.000  N
  N386     1.0000 0.46045  0.68284  0.28591  Biso   1.000  N
  N387     1.0000 0.43348  0.70092  0.33356  Biso   1.000  N
  C513     1.0000 0.41487  0.67375  0.32018  Biso   1.000  C
  C514     1.0000 0.43219  0.66248  0.29010  Biso   1.000  C
  H257     1.0000 0.42520  0.64370  0.27520  Biso   1.000  H
  C515     1.0000 0.36650  0.63060  0.32330  Biso   1.000  C
  H258     1.0000 0.37550  0.61960  0.30280  Biso   1.000  H
  C516     1.0000 0.38312  0.66026  0.33678  Biso   1.000  C
  N388     1.0000 0.46079  0.20593  0.81251  Biso   1.000  N
  N389     1.0000 0.46045  0.18284  0.78591  Biso   1.000  N
  N390     1.0000 0.43348  0.20092  0.83356  Biso   1.000  N
  C517     1.0000 0.41487  0.17375  0.82018  Biso   1.000  C
  C518     1.0000 0.43219  0.16248  0.79010  Biso   1.000  C
  H259     1.0000 0.42520  0.14370  0.77520  Biso   1.000  H
  C519     1.0000 0.36650  0.13060  0.82330  Biso   1.000  C
  H260     1.0000 0.37550  0.11960  0.80280  Biso   1.000  H
  C520     1.0000 0.38312  0.16026  0.83678  Biso   1.000  C
  N391     1.0000 0.96079  0.70593  0.81251  Biso   1.000  N
  N392     1.0000 0.96045  0.68284  0.78591  Biso   1.000  N
  N393     1.0000 0.93348  0.70092  0.83356  Biso   1.000  N
  C521     1.0000 0.91487  0.67375  0.82018  Biso   1.000  C
  C522     1.0000 0.93219  0.66248  0.79010  Biso   1.000  C
  H261     1.0000 0.92520  0.64370  0.77520  Biso   1.000  H
  C523     1.0000 0.86650  0.63060  0.82330  Biso   1.000  C
  H262     1.0000 0.87550  0.61960  0.80280  Biso   1.000  H
  C524     1.0000 0.88312  0.66026  0.83678  Biso   1.000  C
  N394     1.0000 0.96079  0.20593  0.31251  Biso   1.000  N
  N395     1.0000 0.96045  0.18284  0.28591  Biso   1.000  N
  N396     1.0000 0.93348  0.20092  0.33356  Biso   1.000  N
  C525     1.0000 0.91487  0.17375  0.32018  Biso   1.000  C
  C526     1.0000 0.93219  0.16248  0.29010  Biso   1.000  C
  H263     1.0000 0.92520  0.14370  0.27520  Biso   1.000  H
  C527     1.0000 0.86650  0.13060  0.32330  Biso   1.000  C
  H264     1.0000 0.87550  0.11960  0.30280  Biso   1.000  H
  C528     1.0000 0.88312  0.16026  0.33678  Biso   1.000  C
  N397     1.0000 0.53921  0.70593  0.68749  Biso   1.000  N
  N398     1.0000 0.53955  0.68284  0.71409  Biso   1.000  N
  N399     1.0000 0.56652  0.70092  0.66644  Biso   1.000  N
  C529     1.0000 0.58513  0.67375  0.67982  Biso   1.000  C
  C530     1.0000 0.56781  0.66248  0.70990  Biso   1.000  C
  H265     1.0000 0.57480  0.64370  0.72480  Biso   1.000  H
  C531     1.0000 0.63350  0.63060  0.67670  Biso   1.000  C
  H266     1.0000 0.62450  0.61960  0.69720  Biso   1.000  H
  C532     1.0000 0.61688  0.66026  0.66322  Biso   1.000  C
  N400     1.0000 0.53921  0.20593  0.18749  Biso   1.000  N
  N401     1.0000 0.53955  0.18284  0.21409  Biso   1.000  N
  N402     1.0000 0.56652  0.20092  0.16644  Biso   1.000  N
  C533     1.0000 0.58513  0.17375  0.17982  Biso   1.000  C
  C534     1.0000 0.56781  0.16248  0.20990  Biso   1.000  C
  H267     1.0000 0.57480  0.14370  0.22480  Biso   1.000  H
  C535     1.0000 0.63350  0.13060  0.17670  Biso   1.000  C
  H268     1.0000 0.62450  0.11960  0.19720  Biso   1.000  H
  C536     1.0000 0.61688  0.16026  0.16322  Biso   1.000  C
  N403     1.0000 0.03921  0.70593  0.18749  Biso   1.000  N
  N404     1.0000 0.03955  0.68284  0.21409  Biso   1.000  N
  N405     1.0000 0.06652  0.70092  0.16644  Biso   1.000  N
  C537     1.0000 0.08513  0.67375  0.17982  Biso   1.000  C
  C538     1.0000 0.06781  0.66248  0.20990  Biso   1.000  C
  H269     1.0000 0.07480  0.64370  0.22480  Biso   1.000  H
  C539     1.0000 0.13350  0.63060  0.17670  Biso   1.000  C
  H270     1.0000 0.12450  0.61960  0.19720  Biso   1.000  H
  C540     1.0000 0.11688  0.66026  0.16322  Biso   1.000  C
  N406     1.0000 0.03921  0.20593  0.68749  Biso   1.000  N
  N407     1.0000 0.03955  0.18284  0.71409  Biso   1.000  N
  N408     1.0000 0.06652  0.20092  0.66644  Biso   1.000  N
  C541     1.0000 0.08513  0.17375  0.67982  Biso   1.000  C
  C542     1.0000 0.06781  0.16248  0.70990  Biso   1.000  C
  H271     1.0000 0.07480  0.14370  0.72480  Biso   1.000  H
  C543     1.0000 0.13350  0.13060  0.67670  Biso   1.000  C
  H272     1.0000 0.12450  0.11960  0.69720  Biso   1.000  H
  C544     1.0000 0.11688  0.16026  0.66322  Biso   1.000  C
  N409     1.0000 0.46079  0.29407  0.68749  Biso   1.000  N
  N410     1.0000 0.46045  0.31716  0.71409  Biso   1.000  N
  N411     1.0000 0.43348  0.29908  0.66644  Biso   1.000  N
  C545     1.0000 0.41487  0.32625  0.67982  Biso   1.000  C
  C546     1.0000 0.43219  0.33752  0.70990  Biso   1.000  C
  H273     1.0000 0.42520  0.35630  0.72480  Biso   1.000  H
  C547     1.0000 0.36650  0.36940  0.67670  Biso   1.000  C
  H274     1.0000 0.37550  0.38040  0.69720  Biso   1.000  H
  C548     1.0000 0.38312  0.33974  0.66322  Biso   1.000  C
  N412     1.0000 0.46079  0.79407  0.18749  Biso   1.000  N
  N413     1.0000 0.46045  0.81716  0.21409  Biso   1.000  N
  N414     1.0000 0.43348  0.79908  0.16644  Biso   1.000  N
  C549     1.0000 0.41487  0.82625  0.17982  Biso   1.000  C
  C550     1.0000 0.43219  0.83752  0.20990  Biso   1.000  C
  H275     1.0000 0.42520  0.85630  0.22480  Biso   1.000  H
  C551     1.0000 0.36650  0.86940  0.17670  Biso   1.000  C
  H276     1.0000 0.37550  0.88040  0.19720  Biso   1.000  H
  C552     1.0000 0.38312  0.83974  0.16322  Biso   1.000  C
  N415     1.0000 0.96079  0.29407  0.18749  Biso   1.000  N
  N416     1.0000 0.96045  0.31716  0.21409  Biso   1.000  N
  N417     1.0000 0.93348  0.29908  0.16644  Biso   1.000  N
  C553     1.0000 0.91487  0.32625  0.17982  Biso   1.000  C
  C554     1.0000 0.93219  0.33752  0.20990  Biso   1.000  C
  H277     1.0000 0.92520  0.35630  0.22480  Biso   1.000  H
  C555     1.0000 0.86650  0.36940  0.17670  Biso   1.000  C
  H278     1.0000 0.87550  0.38040  0.19720  Biso   1.000  H
  C556     1.0000 0.88312  0.33974  0.16322  Biso   1.000  C
  N418     1.0000 0.96079  0.79407  0.68749  Biso   1.000  N
  N419     1.0000 0.96045  0.81716  0.71409  Biso   1.000  N
  N420     1.0000 0.93348  0.79908  0.66644  Biso   1.000  N
  C557     1.0000 0.91487  0.82625  0.67982  Biso   1.000  C
  C558     1.0000 0.93219  0.83752  0.70990  Biso   1.000  C
  H279     1.0000 0.92520  0.85630  0.72480  Biso   1.000  H
  C559     1.0000 0.86650  0.86940  0.67670  Biso   1.000  C
  H280     1.0000 0.87550  0.88040  0.69720  Biso   1.000  H
  C560     1.0000 0.88312  0.83974  0.66322  Biso   1.000  C
  N421     1.0000 0.53921  0.29407  0.31251  Biso   1.000  N
  N422     1.0000 0.53955  0.31716  0.28591  Biso   1.000  N
  N423     1.0000 0.56652  0.29908  0.33356  Biso   1.000  N
  C561     1.0000 0.58513  0.32625  0.32018  Biso   1.000  C
  C562     1.0000 0.56781  0.33752  0.29010  Biso   1.000  C
  H281     1.0000 0.57480  0.35630  0.27520  Biso   1.000  H
  C563     1.0000 0.63350  0.36940  0.32330  Biso   1.000  C
  H282     1.0000 0.62450  0.38040  0.30280  Biso   1.000  H
  C564     1.0000 0.61688  0.33974  0.33678  Biso   1.000  C
  N424     1.0000 0.53921  0.79407  0.81251  Biso   1.000  N
  N425     1.0000 0.53955  0.81716  0.78591  Biso   1.000  N
  N426     1.0000 0.56652  0.79908  0.83356  Biso   1.000  N
  C565     1.0000 0.58513  0.82625  0.82018  Biso   1.000  C
  C566     1.0000 0.56781  0.83752  0.79010  Biso   1.000  C
  H283     1.0000 0.57480  0.85630  0.77520  Biso   1.000  H
  C567     1.0000 0.63350  0.86940  0.82330  Biso   1.000  C
  H284     1.0000 0.62450  0.88040  0.80280  Biso   1.000  H
  C568     1.0000 0.61688  0.83974  0.83678  Biso   1.000  C
  N427     1.0000 0.03921  0.29407  0.81251  Biso   1.000  N
  N428     1.0000 0.03955  0.31716  0.78591  Biso   1.000  N
  N429     1.0000 0.06652  0.29908  0.83356  Biso   1.000  N
  C569     1.0000 0.08513  0.32625  0.82018  Biso   1.000  C
  C570     1.0000 0.06781  0.33752  0.79010  Biso   1.000  C
  H285     1.0000 0.07480  0.35630  0.77520  Biso   1.000  H
  C571     1.0000 0.13350  0.36940  0.82330  Biso   1.000  C
  H286     1.0000 0.12450  0.38040  0.80280  Biso   1.000  H
  C572     1.0000 0.11688  0.33974  0.83678  Biso   1.000  C
  N430     1.0000 0.03921  0.79407  0.31251  Biso   1.000  N
  N431     1.0000 0.03955  0.81716  0.28591  Biso   1.000  N
  N432     1.0000 0.06652  0.79908  0.33356  Biso   1.000  N
  C573     1.0000 0.08513  0.82625  0.32018  Biso   1.000  C
  C574     1.0000 0.06781  0.83752  0.29010  Biso   1.000  C
  H287     1.0000 0.07480  0.85630  0.27520  Biso   1.000  H
  C575     1.0000 0.13350  0.86940  0.32330  Biso   1.000  C
  H288     1.0000 0.12450  0.88040  0.30280  Biso   1.000  H
  C576     1.0000 0.11688  0.83974  0.33678  Biso   1.000  C
  N433     1.0000 0.96079  0.81251  0.79407  Biso   1.000  N
  N434     1.0000 0.96045  0.78591  0.81716  Biso   1.000  N
  N435     1.0000 0.93348  0.83356  0.79908  Biso   1.000  N
  C577     1.0000 0.91487  0.82018  0.82625  Biso   1.000  C
  C578     1.0000 0.93219  0.79010  0.83752  Biso   1.000  C
  H289     1.0000 0.92520  0.77520  0.85630  Biso   1.000  H
  C579     1.0000 0.86650  0.82330  0.86940  Biso   1.000  C
  H290     1.0000 0.87550  0.80280  0.88040  Biso   1.000  H
  C580     1.0000 0.88312  0.83678  0.83974  Biso   1.000  C
  N436     1.0000 0.96079  0.31251  0.29407  Biso   1.000  N
  N437     1.0000 0.96045  0.28591  0.31716  Biso   1.000  N
  N438     1.0000 0.93348  0.33356  0.29908  Biso   1.000  N
  C581     1.0000 0.91487  0.32018  0.32625  Biso   1.000  C
  C582     1.0000 0.93219  0.29010  0.33752  Biso   1.000  C
  H291     1.0000 0.92520  0.27520  0.35630  Biso   1.000  H
  C583     1.0000 0.86650  0.32330  0.36940  Biso   1.000  C
  H292     1.0000 0.87550  0.30280  0.38040  Biso   1.000  H
  C584     1.0000 0.88312  0.33678  0.33974  Biso   1.000  C
  N439     1.0000 0.46079  0.81251  0.29407  Biso   1.000  N
  N440     1.0000 0.46045  0.78591  0.31716  Biso   1.000  N
  N441     1.0000 0.43348  0.83356  0.29908  Biso   1.000  N
  C585     1.0000 0.41487  0.82018  0.32625  Biso   1.000  C
  C586     1.0000 0.43219  0.79010  0.33752  Biso   1.000  C
  H293     1.0000 0.42520  0.77520  0.35630  Biso   1.000  H
  C587     1.0000 0.36650  0.82330  0.36940  Biso   1.000  C
  H294     1.0000 0.37550  0.80280  0.38040  Biso   1.000  H
  C588     1.0000 0.38312  0.83678  0.33974  Biso   1.000  C
  N442     1.0000 0.46079  0.31251  0.79407  Biso   1.000  N
  N443     1.0000 0.46045  0.28591  0.81716  Biso   1.000  N
  N444     1.0000 0.43348  0.33356  0.79908  Biso   1.000  N
  C589     1.0000 0.41487  0.32018  0.82625  Biso   1.000  C
  C590     1.0000 0.43219  0.29010  0.83752  Biso   1.000  C
  H295     1.0000 0.42520  0.27520  0.85630  Biso   1.000  H
  C591     1.0000 0.36650  0.32330  0.86940  Biso   1.000  C
  H296     1.0000 0.37550  0.30280  0.88040  Biso   1.000  H
  C592     1.0000 0.38312  0.33678  0.83974  Biso   1.000  C
  N445     1.0000 0.03921  0.18749  0.79407  Biso   1.000  N
  N446     1.0000 0.03955  0.21409  0.81716  Biso   1.000  N
  N447     1.0000 0.06652  0.16644  0.79908  Biso   1.000  N
  C593     1.0000 0.08513  0.17982  0.82625  Biso   1.000  C
  C594     1.0000 0.06781  0.20990  0.83752  Biso   1.000  C
  H297     1.0000 0.07480  0.22480  0.85630  Biso   1.000  H
  C595     1.0000 0.13350  0.17670  0.86940  Biso   1.000  C
  H298     1.0000 0.12450  0.19720  0.88040  Biso   1.000  H
  C596     1.0000 0.11688  0.16322  0.83974  Biso   1.000  C
  N448     1.0000 0.03921  0.68749  0.29407  Biso   1.000  N
  N449     1.0000 0.03955  0.71409  0.31716  Biso   1.000  N
  N450     1.0000 0.06652  0.66644  0.29908  Biso   1.000  N
  C597     1.0000 0.08513  0.67982  0.32625  Biso   1.000  C
  C598     1.0000 0.06781  0.70990  0.33752  Biso   1.000  C
  H299     1.0000 0.07480  0.72480  0.35630  Biso   1.000  H
  C599     1.0000 0.13350  0.67670  0.36940  Biso   1.000  C
  H300     1.0000 0.12450  0.69720  0.38040  Biso   1.000  H
  C600     1.0000 0.11688  0.66322  0.33974  Biso   1.000  C
  N451     1.0000 0.53921  0.18749  0.29407  Biso   1.000  N
  N452     1.0000 0.53955  0.21409  0.31716  Biso   1.000  N
  N453     1.0000 0.56652  0.16644  0.29908  Biso   1.000  N
  C601     1.0000 0.58513  0.17982  0.32625  Biso   1.000  C
  C602     1.0000 0.56781  0.20990  0.33752  Biso   1.000  C
  H301     1.0000 0.57480  0.22480  0.35630  Biso   1.000  H
  C603     1.0000 0.63350  0.17670  0.36940  Biso   1.000  C
  H302     1.0000 0.62450  0.19720  0.38040  Biso   1.000  H
  C604     1.0000 0.61688  0.16322  0.33974  Biso   1.000  C
  N454     1.0000 0.53921  0.68749  0.79407  Biso   1.000  N
  N455     1.0000 0.53955  0.71409  0.81716  Biso   1.000  N
  N456     1.0000 0.56652  0.66644  0.79908  Biso   1.000  N
  C605     1.0000 0.58513  0.67982  0.82625  Biso   1.000  C
  C606     1.0000 0.56781  0.70990  0.83752  Biso   1.000  C
  H303     1.0000 0.57480  0.72480  0.85630  Biso   1.000  H
  C607     1.0000 0.63350  0.67670  0.86940  Biso   1.000  C
  H304     1.0000 0.62450  0.69720  0.88040  Biso   1.000  H
  C608     1.0000 0.61688  0.66322  0.83974  Biso   1.000  C
  N457     1.0000 0.96079  0.18749  0.20593  Biso   1.000  N
  N458     1.0000 0.96045  0.21409  0.18284  Biso   1.000  N
  N459     1.0000 0.93348  0.16644  0.20092  Biso   1.000  N
  C609     1.0000 0.91487  0.17982  0.17375  Biso   1.000  C
  C610     1.0000 0.93219  0.20990  0.16248  Biso   1.000  C
  H305     1.0000 0.92520  0.22480  0.14370  Biso   1.000  H
  C611     1.0000 0.86650  0.17670  0.13060  Biso   1.000  C
  H306     1.0000 0.87550  0.19720  0.11960  Biso   1.000  H
  C612     1.0000 0.88312  0.16322  0.16026  Biso   1.000  C
  N460     1.0000 0.96079  0.68749  0.70593  Biso   1.000  N
  N461     1.0000 0.96045  0.71409  0.68284  Biso   1.000  N
  N462     1.0000 0.93348  0.66644  0.70092  Biso   1.000  N
  C613     1.0000 0.91487  0.67982  0.67375  Biso   1.000  C
  C614     1.0000 0.93219  0.70990  0.66248  Biso   1.000  C
  H307     1.0000 0.92520  0.72480  0.64370  Biso   1.000  H
  C615     1.0000 0.86650  0.67670  0.63060  Biso   1.000  C
  H308     1.0000 0.87550  0.69720  0.61960  Biso   1.000  H
  C616     1.0000 0.88312  0.66322  0.66026  Biso   1.000  C
  N463     1.0000 0.46079  0.18749  0.70593  Biso   1.000  N
  N464     1.0000 0.46045  0.21409  0.68284  Biso   1.000  N
  N465     1.0000 0.43348  0.16644  0.70092  Biso   1.000  N
  C617     1.0000 0.41487  0.17982  0.67375  Biso   1.000  C
  C618     1.0000 0.43219  0.20990  0.66248  Biso   1.000  C
  H309     1.0000 0.42520  0.22480  0.64370  Biso   1.000  H
  C619     1.0000 0.36650  0.17670  0.63060  Biso   1.000  C
  H310     1.0000 0.37550  0.19720  0.61960  Biso   1.000  H
  C620     1.0000 0.38312  0.16322  0.66026  Biso   1.000  C
  N466     1.0000 0.46079  0.68749  0.20593  Biso   1.000  N
  N467     1.0000 0.46045  0.71409  0.18284  Biso   1.000  N
  N468     1.0000 0.43348  0.66644  0.20092  Biso   1.000  N
  C621     1.0000 0.41487  0.67982  0.17375  Biso   1.000  C
  C622     1.0000 0.43219  0.70990  0.16248  Biso   1.000  C
  H311     1.0000 0.42520  0.72480  0.14370  Biso   1.000  H
  C623     1.0000 0.36650  0.67670  0.13060  Biso   1.000  C
  H312     1.0000 0.37550  0.69720  0.11960  Biso   1.000  H
  C624     1.0000 0.38312  0.66322  0.16026  Biso   1.000  C
  N469     1.0000 0.03921  0.81251  0.20593  Biso   1.000  N
  N470     1.0000 0.03955  0.78591  0.18284  Biso   1.000  N
  N471     1.0000 0.06652  0.83356  0.20092  Biso   1.000  N
  C625     1.0000 0.08513  0.82018  0.17375  Biso   1.000  C
  C626     1.0000 0.06781  0.79010  0.16248  Biso   1.000  C
  H313     1.0000 0.07480  0.77520  0.14370  Biso   1.000  H
  C627     1.0000 0.13350  0.82330  0.13060  Biso   1.000  C
  H314     1.0000 0.12450  0.80280  0.11960  Biso   1.000  H
  C628     1.0000 0.11688  0.83678  0.16026  Biso   1.000  C
  N472     1.0000 0.03921  0.31251  0.70593  Biso   1.000  N
  N473     1.0000 0.03955  0.28591  0.68284  Biso   1.000  N
  N474     1.0000 0.06652  0.33356  0.70092  Biso   1.000  N
  C629     1.0000 0.08513  0.32018  0.67375  Biso   1.000  C
  C630     1.0000 0.06781  0.29010  0.66248  Biso   1.000  C
  H315     1.0000 0.07480  0.27520  0.64370  Biso   1.000  H
  C631     1.0000 0.13350  0.32330  0.63060  Biso   1.000  C
  H316     1.0000 0.12450  0.30280  0.61960  Biso   1.000  H
  C632     1.0000 0.11688  0.33678  0.66026  Biso   1.000  C
  N475     1.0000 0.53921  0.81251  0.70593  Biso   1.000  N
  N476     1.0000 0.53955  0.78591  0.68284  Biso   1.000  N
  N477     1.0000 0.56652  0.83356  0.70092  Biso   1.000  N
  C633     1.0000 0.58513  0.82018  0.67375  Biso   1.000  C
  C634     1.0000 0.56781  0.79010  0.66248  Biso   1.000  C
  H317     1.0000 0.57480  0.77520  0.64370  Biso   1.000  H
  C635     1.0000 0.63350  0.82330  0.63060  Biso   1.000  C
  H318     1.0000 0.62450  0.80280  0.61960  Biso   1.000  H
  C636     1.0000 0.61688  0.83678  0.66026  Biso   1.000  C
  N478     1.0000 0.53921  0.31251  0.20593  Biso   1.000  N
  N479     1.0000 0.53955  0.28591  0.18284  Biso   1.000  N
  N480     1.0000 0.56652  0.33356  0.20092  Biso   1.000  N
  C637     1.0000 0.58513  0.32018  0.17375  Biso   1.000  C
  C638     1.0000 0.56781  0.29010  0.16248  Biso   1.000  C
  H319     1.0000 0.57480  0.27520  0.14370  Biso   1.000  H
  C639     1.0000 0.63350  0.32330  0.13060  Biso   1.000  C
  H320     1.0000 0.62450  0.30280  0.11960  Biso   1.000  H
  C640     1.0000 0.61688  0.33678  0.16026  Biso   1.000  C
  N481     1.0000 0.81251  0.20593  0.03921  Biso   1.000  N
  N482     1.0000 0.78591  0.18284  0.03955  Biso   1.000  N
  N483     1.0000 0.83356  0.20092  0.06652  Biso   1.000  N
  C641     1.0000 0.82018  0.17375  0.08513  Biso   1.000  C
  C642     1.0000 0.79010  0.16248  0.06781  Biso   1.000  C
  H321     1.0000 0.77520  0.14370  0.07480  Biso   1.000  H
  C643     1.0000 0.82330  0.13060  0.13350  Biso   1.000  C
  H322     1.0000 0.80280  0.11960  0.12450  Biso   1.000  H
  C644     1.0000 0.83678  0.16026  0.11688  Biso   1.000  C
  N484     1.0000 0.81251  0.70593  0.53921  Biso   1.000  N
  N485     1.0000 0.78591  0.68284  0.53955  Biso   1.000  N
  N486     1.0000 0.83356  0.70092  0.56652  Biso   1.000  N
  C645     1.0000 0.82018  0.67375  0.58513  Biso   1.000  C
  C646     1.0000 0.79010  0.66248  0.56781  Biso   1.000  C
  H323     1.0000 0.77520  0.64370  0.57480  Biso   1.000  H
  C647     1.0000 0.82330  0.63060  0.63350  Biso   1.000  C
  H324     1.0000 0.80280  0.61960  0.62450  Biso   1.000  H
  C648     1.0000 0.83678  0.66026  0.61688  Biso   1.000  C
  N487     1.0000 0.31251  0.20593  0.53921  Biso   1.000  N
  N488     1.0000 0.28591  0.18284  0.53955  Biso   1.000  N
  N489     1.0000 0.33356  0.20092  0.56652  Biso   1.000  N
  C649     1.0000 0.32018  0.17375  0.58513  Biso   1.000  C
  C650     1.0000 0.29010  0.16248  0.56781  Biso   1.000  C
  H325     1.0000 0.27520  0.14370  0.57480  Biso   1.000  H
  C651     1.0000 0.32330  0.13060  0.63350  Biso   1.000  C
  H326     1.0000 0.30280  0.11960  0.62450  Biso   1.000  H
  C652     1.0000 0.33678  0.16026  0.61688  Biso   1.000  C
  N490     1.0000 0.31251  0.70593  0.03921  Biso   1.000  N
  N491     1.0000 0.28591  0.68284  0.03955  Biso   1.000  N
  N492     1.0000 0.33356  0.70092  0.06652  Biso   1.000  N
  C653     1.0000 0.32018  0.67375  0.08513  Biso   1.000  C
  C654     1.0000 0.29010  0.66248  0.06781  Biso   1.000  C
  H327     1.0000 0.27520  0.64370  0.07480  Biso   1.000  H
  C655     1.0000 0.32330  0.63060  0.13350  Biso   1.000  C
  H328     1.0000 0.30280  0.61960  0.12450  Biso   1.000  H
  C656     1.0000 0.33678  0.66026  0.11688  Biso   1.000  C
  N493     1.0000 0.18749  0.20593  0.96079  Biso   1.000  N
  N494     1.0000 0.21409  0.18284  0.96045  Biso   1.000  N
  N495     1.0000 0.16644  0.20092  0.93348  Biso   1.000  N
  C657     1.0000 0.17982  0.17375  0.91487  Biso   1.000  C
  C658     1.0000 0.20990  0.16248  0.93219  Biso   1.000  C
  H329     1.0000 0.22480  0.14370  0.92520  Biso   1.000  H
  C659     1.0000 0.17670  0.13060  0.86650  Biso   1.000  C
  H330     1.0000 0.19720  0.11960  0.87550  Biso   1.000  H
  C660     1.0000 0.16322  0.16026  0.88312  Biso   1.000  C
  N496     1.0000 0.18749  0.70593  0.46079  Biso   1.000  N
  N497     1.0000 0.21409  0.68284  0.46045  Biso   1.000  N
  N498     1.0000 0.16644  0.70092  0.43348  Biso   1.000  N
  C661     1.0000 0.17982  0.67375  0.41487  Biso   1.000  C
  C662     1.0000 0.20990  0.66248  0.43219  Biso   1.000  C
  H331     1.0000 0.22480  0.64370  0.42520  Biso   1.000  H
  C663     1.0000 0.17670  0.63060  0.36650  Biso   1.000  C
  H332     1.0000 0.19720  0.61960  0.37550  Biso   1.000  H
  C664     1.0000 0.16322  0.66026  0.38312  Biso   1.000  C
  N499     1.0000 0.68749  0.20593  0.46079  Biso   1.000  N
  N500     1.0000 0.71409  0.18284  0.46045  Biso   1.000  N
  N501     1.0000 0.66644  0.20092  0.43348  Biso   1.000  N
  C665     1.0000 0.67982  0.17375  0.41487  Biso   1.000  C
  C666     1.0000 0.70990  0.16248  0.43219  Biso   1.000  C
  H333     1.0000 0.72480  0.14370  0.42520  Biso   1.000  H
  C667     1.0000 0.67670  0.13060  0.36650  Biso   1.000  C
  H334     1.0000 0.69720  0.11960  0.37550  Biso   1.000  H
  C668     1.0000 0.66322  0.16026  0.38312  Biso   1.000  C
  N502     1.0000 0.68749  0.70593  0.96079  Biso   1.000  N
  N503     1.0000 0.71409  0.68284  0.96045  Biso   1.000  N
  N504     1.0000 0.66644  0.70092  0.93348  Biso   1.000  N
  C669     1.0000 0.67982  0.67375  0.91487  Biso   1.000  C
  C670     1.0000 0.70990  0.66248  0.93219  Biso   1.000  C
  H335     1.0000 0.72480  0.64370  0.92520  Biso   1.000  H
  C671     1.0000 0.67670  0.63060  0.86650  Biso   1.000  C
  H336     1.0000 0.69720  0.61960  0.87550  Biso   1.000  H
  C672     1.0000 0.66322  0.66026  0.88312  Biso   1.000  C
  N505     1.0000 0.18749  0.79407  0.03921  Biso   1.000  N
  N506     1.0000 0.21409  0.81716  0.03955  Biso   1.000  N
  N507     1.0000 0.16644  0.79908  0.06652  Biso   1.000  N
  C673     1.0000 0.17982  0.82625  0.08513  Biso   1.000  C
  C674     1.0000 0.20990  0.83752  0.06781  Biso   1.000  C
  H337     1.0000 0.22480  0.85630  0.07480  Biso   1.000  H
  C675     1.0000 0.17670  0.86940  0.13350  Biso   1.000  C
  H338     1.0000 0.19720  0.88040  0.12450  Biso   1.000  H
  C676     1.0000 0.16322  0.83974  0.11688  Biso   1.000  C
  N508     1.0000 0.18749  0.29407  0.53921  Biso   1.000  N
  N509     1.0000 0.21409  0.31716  0.53955  Biso   1.000  N
  N510     1.0000 0.16644  0.29908  0.56652  Biso   1.000  N
  C677     1.0000 0.17982  0.32625  0.58513  Biso   1.000  C
  C678     1.0000 0.20990  0.33752  0.56781  Biso   1.000  C
  H339     1.0000 0.22480  0.35630  0.57480  Biso   1.000  H
  C679     1.0000 0.17670  0.36940  0.63350  Biso   1.000  C
  H340     1.0000 0.19720  0.38040  0.62450  Biso   1.000  H
  C680     1.0000 0.16322  0.33974  0.61688  Biso   1.000  C
  N511     1.0000 0.68749  0.79407  0.53921  Biso   1.000  N
  N512     1.0000 0.71409  0.81716  0.53955  Biso   1.000  N
  N513     1.0000 0.66644  0.79908  0.56652  Biso   1.000  N
  C681     1.0000 0.67982  0.82625  0.58513  Biso   1.000  C
  C682     1.0000 0.70990  0.83752  0.56781  Biso   1.000  C
  H341     1.0000 0.72480  0.85630  0.57480  Biso   1.000  H
  C683     1.0000 0.67670  0.86940  0.63350  Biso   1.000  C
  H342     1.0000 0.69720  0.88040  0.62450  Biso   1.000  H
  C684     1.0000 0.66322  0.83974  0.61688  Biso   1.000  C
  N514     1.0000 0.68749  0.29407  0.03921  Biso   1.000  N
  N515     1.0000 0.71409  0.31716  0.03955  Biso   1.000  N
  N516     1.0000 0.66644  0.29908  0.06652  Biso   1.000  N
  C685     1.0000 0.67982  0.32625  0.08513  Biso   1.000  C
  C686     1.0000 0.70990  0.33752  0.06781  Biso   1.000  C
  H343     1.0000 0.72480  0.35630  0.07480  Biso   1.000  H
  C687     1.0000 0.67670  0.36940  0.13350  Biso   1.000  C
  H344     1.0000 0.69720  0.38040  0.12450  Biso   1.000  H
  C688     1.0000 0.66322  0.33974  0.11688  Biso   1.000  C
  N517     1.0000 0.81251  0.79407  0.96079  Biso   1.000  N
  N518     1.0000 0.78591  0.81716  0.96045  Biso   1.000  N
  N519     1.0000 0.83356  0.79908  0.93348  Biso   1.000  N
  C689     1.0000 0.82018  0.82625  0.91487  Biso   1.000  C
  C690     1.0000 0.79010  0.83752  0.93219  Biso   1.000  C
  H345     1.0000 0.77520  0.85630  0.92520  Biso   1.000  H
  C691     1.0000 0.82330  0.86940  0.86650  Biso   1.000  C
  H346     1.0000 0.80280  0.88040  0.87550  Biso   1.000  H
  C692     1.0000 0.83678  0.83974  0.88312  Biso   1.000  C
  N520     1.0000 0.81251  0.29407  0.46079  Biso   1.000  N
  N521     1.0000 0.78591  0.31716  0.46045  Biso   1.000  N
  N522     1.0000 0.83356  0.29908  0.43348  Biso   1.000  N
  C693     1.0000 0.82018  0.32625  0.41487  Biso   1.000  C
  C694     1.0000 0.79010  0.33752  0.43219  Biso   1.000  C
  H347     1.0000 0.77520  0.35630  0.42520  Biso   1.000  H
  C695     1.0000 0.82330  0.36940  0.36650  Biso   1.000  C
  H348     1.0000 0.80280  0.38040  0.37550  Biso   1.000  H
  C696     1.0000 0.83678  0.33974  0.38312  Biso   1.000  C
  N523     1.0000 0.31251  0.79407  0.46079  Biso   1.000  N
  N524     1.0000 0.28591  0.81716  0.46045  Biso   1.000  N
  N525     1.0000 0.33356  0.79908  0.43348  Biso   1.000  N
  C697     1.0000 0.32018  0.82625  0.41487  Biso   1.000  C
  C698     1.0000 0.29010  0.83752  0.43219  Biso   1.000  C
  H349     1.0000 0.27520  0.85630  0.42520  Biso   1.000  H
  C699     1.0000 0.32330  0.86940  0.36650  Biso   1.000  C
  H350     1.0000 0.30280  0.88040  0.37550  Biso   1.000  H
  C700     1.0000 0.33678  0.83974  0.38312  Biso   1.000  C
  N526     1.0000 0.31251  0.29407  0.96079  Biso   1.000  N
  N527     1.0000 0.28591  0.31716  0.96045  Biso   1.000  N
  N528     1.0000 0.33356  0.29908  0.93348  Biso   1.000  N
  C701     1.0000 0.32018  0.32625  0.91487  Biso   1.000  C
  C702     1.0000 0.29010  0.33752  0.93219  Biso   1.000  C
  H351     1.0000 0.27520  0.35630  0.92520  Biso   1.000  H
  C703     1.0000 0.32330  0.36940  0.86650  Biso   1.000  C
  H352     1.0000 0.30280  0.38040  0.87550  Biso   1.000  H
  C704     1.0000 0.33678  0.33974  0.88312  Biso   1.000  C
  N529     1.0000 0.20593  0.96079  0.18749  Biso   1.000  N
  N530     1.0000 0.18284  0.96045  0.21409  Biso   1.000  N
  N531     1.0000 0.20092  0.93348  0.16644  Biso   1.000  N
  C705     1.0000 0.17375  0.91487  0.17982  Biso   1.000  C
  C706     1.0000 0.16248  0.93219  0.20990  Biso   1.000  C
  H353     1.0000 0.14370  0.92520  0.22480  Biso   1.000  H
  C707     1.0000 0.13060  0.86650  0.17670  Biso   1.000  C
  H354     1.0000 0.11960  0.87550  0.19720  Biso   1.000  H
  C708     1.0000 0.16026  0.88312  0.16322  Biso   1.000  C
  N532     1.0000 0.20593  0.46079  0.68749  Biso   1.000  N
  N533     1.0000 0.18284  0.46045  0.71409  Biso   1.000  N
  N534     1.0000 0.20092  0.43348  0.66644  Biso   1.000  N
  C709     1.0000 0.17375  0.41487  0.67982  Biso   1.000  C
  C710     1.0000 0.16248  0.43219  0.70990  Biso   1.000  C
  H355     1.0000 0.14370  0.42520  0.72480  Biso   1.000  H
  C711     1.0000 0.13060  0.36650  0.67670  Biso   1.000  C
  H356     1.0000 0.11960  0.37550  0.69720  Biso   1.000  H
  C712     1.0000 0.16026  0.38312  0.66322  Biso   1.000  C
  N535     1.0000 0.70593  0.96079  0.68749  Biso   1.000  N
  N536     1.0000 0.68284  0.96045  0.71409  Biso   1.000  N
  N537     1.0000 0.70092  0.93348  0.66644  Biso   1.000  N
  C713     1.0000 0.67375  0.91487  0.67982  Biso   1.000  C
  C714     1.0000 0.66248  0.93219  0.70990  Biso   1.000  C
  H357     1.0000 0.64370  0.92520  0.72480  Biso   1.000  H
  C715     1.0000 0.63060  0.86650  0.67670  Biso   1.000  C
  H358     1.0000 0.61960  0.87550  0.69720  Biso   1.000  H
  C716     1.0000 0.66026  0.88312  0.66322  Biso   1.000  C
  N538     1.0000 0.70593  0.46079  0.18749  Biso   1.000  N
  N539     1.0000 0.68284  0.46045  0.21409  Biso   1.000  N
  N540     1.0000 0.70092  0.43348  0.16644  Biso   1.000  N
  C717     1.0000 0.67375  0.41487  0.17982  Biso   1.000  C
  C718     1.0000 0.66248  0.43219  0.20990  Biso   1.000  C
  H359     1.0000 0.64370  0.42520  0.22480  Biso   1.000  H
  C719     1.0000 0.63060  0.36650  0.17670  Biso   1.000  C
  H360     1.0000 0.61960  0.37550  0.19720  Biso   1.000  H
  C720     1.0000 0.66026  0.38312  0.16322  Biso   1.000  C
  N541     1.0000 0.20593  0.03921  0.81251  Biso   1.000  N
  N542     1.0000 0.18284  0.03955  0.78591  Biso   1.000  N
  N543     1.0000 0.20092  0.06652  0.83356  Biso   1.000  N
  C721     1.0000 0.17375  0.08513  0.82018  Biso   1.000  C
  C722     1.0000 0.16248  0.06781  0.79010  Biso   1.000  C
  H361     1.0000 0.14370  0.07480  0.77520  Biso   1.000  H
  C723     1.0000 0.13060  0.13350  0.82330  Biso   1.000  C
  H362     1.0000 0.11960  0.12450  0.80280  Biso   1.000  H
  C724     1.0000 0.16026  0.11688  0.83678  Biso   1.000  C
  N544     1.0000 0.20593  0.53921  0.31251  Biso   1.000  N
  N545     1.0000 0.18284  0.53955  0.28591  Biso   1.000  N
  N546     1.0000 0.20092  0.56652  0.33356  Biso   1.000  N
  C725     1.0000 0.17375  0.58513  0.32018  Biso   1.000  C
  C726     1.0000 0.16248  0.56781  0.29010  Biso   1.000  C
  H363     1.0000 0.14370  0.57480  0.27520  Biso   1.000  H
  C727     1.0000 0.13060  0.63350  0.32330  Biso   1.000  C
  H364     1.0000 0.11960  0.62450  0.30280  Biso   1.000  H
  C728     1.0000 0.16026  0.61688  0.33678  Biso   1.000  C
  N547     1.0000 0.70593  0.03921  0.31251  Biso   1.000  N
  N548     1.0000 0.68284  0.03955  0.28591  Biso   1.000  N
  N549     1.0000 0.70092  0.06652  0.33356  Biso   1.000  N
  C729     1.0000 0.67375  0.08513  0.32018  Biso   1.000  C
  C730     1.0000 0.66248  0.06781  0.29010  Biso   1.000  C
  H365     1.0000 0.64370  0.07480  0.27520  Biso   1.000  H
  C731     1.0000 0.63060  0.13350  0.32330  Biso   1.000  C
  H366     1.0000 0.61960  0.12450  0.30280  Biso   1.000  H
  C732     1.0000 0.66026  0.11688  0.33678  Biso   1.000  C
  N550     1.0000 0.70593  0.53921  0.81251  Biso   1.000  N
  N551     1.0000 0.68284  0.53955  0.78591  Biso   1.000  N
  N552     1.0000 0.70092  0.56652  0.83356  Biso   1.000  N
  C733     1.0000 0.67375  0.58513  0.82018  Biso   1.000  C
  C734     1.0000 0.66248  0.56781  0.79010  Biso   1.000  C
  H367     1.0000 0.64370  0.57480  0.77520  Biso   1.000  H
  C735     1.0000 0.63060  0.63350  0.82330  Biso   1.000  C
  H368     1.0000 0.61960  0.62450  0.80280  Biso   1.000  H
  C736     1.0000 0.66026  0.61688  0.83678  Biso   1.000  C
  N553     1.0000 0.79407  0.96079  0.81251  Biso   1.000  N
  N554     1.0000 0.81716  0.96045  0.78591  Biso   1.000  N
  N555     1.0000 0.79908  0.93348  0.83356  Biso   1.000  N
  C737     1.0000 0.82625  0.91487  0.82018  Biso   1.000  C
  C738     1.0000 0.83752  0.93219  0.79010  Biso   1.000  C
  H369     1.0000 0.85630  0.92520  0.77520  Biso   1.000  H
  C739     1.0000 0.86940  0.86650  0.82330  Biso   1.000  C
  H370     1.0000 0.88040  0.87550  0.80280  Biso   1.000  H
  C740     1.0000 0.83974  0.88312  0.83678  Biso   1.000  C
  N556     1.0000 0.79407  0.46079  0.31251  Biso   1.000  N
  N557     1.0000 0.81716  0.46045  0.28591  Biso   1.000  N
  N558     1.0000 0.79908  0.43348  0.33356  Biso   1.000  N
  C741     1.0000 0.82625  0.41487  0.32018  Biso   1.000  C
  C742     1.0000 0.83752  0.43219  0.29010  Biso   1.000  C
  H371     1.0000 0.85630  0.42520  0.27520  Biso   1.000  H
  C743     1.0000 0.86940  0.36650  0.32330  Biso   1.000  C
  H372     1.0000 0.88040  0.37550  0.30280  Biso   1.000  H
  C744     1.0000 0.83974  0.38312  0.33678  Biso   1.000  C
  N559     1.0000 0.29407  0.96079  0.31251  Biso   1.000  N
  N560     1.0000 0.31716  0.96045  0.28591  Biso   1.000  N
  N561     1.0000 0.29908  0.93348  0.33356  Biso   1.000  N
  C745     1.0000 0.32625  0.91487  0.32018  Biso   1.000  C
  C746     1.0000 0.33752  0.93219  0.29010  Biso   1.000  C
  H373     1.0000 0.35630  0.92520  0.27520  Biso   1.000  H
  C747     1.0000 0.36940  0.86650  0.32330  Biso   1.000  C
  H374     1.0000 0.38040  0.87550  0.30280  Biso   1.000  H
  C748     1.0000 0.33974  0.88312  0.33678  Biso   1.000  C
  N562     1.0000 0.29407  0.46079  0.81251  Biso   1.000  N
  N563     1.0000 0.31716  0.46045  0.78591  Biso   1.000  N
  N564     1.0000 0.29908  0.43348  0.83356  Biso   1.000  N
  C749     1.0000 0.32625  0.41487  0.82018  Biso   1.000  C
  C750     1.0000 0.33752  0.43219  0.79010  Biso   1.000  C
  H375     1.0000 0.35630  0.42520  0.77520  Biso   1.000  H
  C751     1.0000 0.36940  0.36650  0.82330  Biso   1.000  C
  H376     1.0000 0.38040  0.37550  0.80280  Biso   1.000  H
  C752     1.0000 0.33974  0.38312  0.83678  Biso   1.000  C
  N565     1.0000 0.79407  0.03921  0.18749  Biso   1.000  N
  N566     1.0000 0.81716  0.03955  0.21409  Biso   1.000  N
  N567     1.0000 0.79908  0.06652  0.16644  Biso   1.000  N
  C753     1.0000 0.82625  0.08513  0.17982  Biso   1.000  C
  C754     1.0000 0.83752  0.06781  0.20990  Biso   1.000  C
  H377     1.0000 0.85630  0.07480  0.22480  Biso   1.000  H
  C755     1.0000 0.86940  0.13350  0.17670  Biso   1.000  C
  H378     1.0000 0.88040  0.12450  0.19720  Biso   1.000  H
  C756     1.0000 0.83974  0.11688  0.16322  Biso   1.000  C
  N568     1.0000 0.79407  0.53921  0.68749  Biso   1.000  N
  N569     1.0000 0.81716  0.53955  0.71409  Biso   1.000  N
  N570     1.0000 0.79908  0.56652  0.66644  Biso   1.000  N
  C757     1.0000 0.82625  0.58513  0.67982  Biso   1.000  C
  C758     1.0000 0.83752  0.56781  0.70990  Biso   1.000  C
  H379     1.0000 0.85630  0.57480  0.72480  Biso   1.000  H
  C759     1.0000 0.86940  0.63350  0.67670  Biso   1.000  C
  H380     1.0000 0.88040  0.62450  0.69720  Biso   1.000  H
  C760     1.0000 0.83974  0.61688  0.66322  Biso   1.000  C
  N571     1.0000 0.29407  0.03921  0.68749  Biso   1.000  N
  N572     1.0000 0.31716  0.03955  0.71409  Biso   1.000  N
  N573     1.0000 0.29908  0.06652  0.66644  Biso   1.000  N
  C761     1.0000 0.32625  0.08513  0.67982  Biso   1.000  C
  C762     1.0000 0.33752  0.06781  0.70990  Biso   1.000  C
  H381     1.0000 0.35630  0.07480  0.72480  Biso   1.000  H
  C763     1.0000 0.36940  0.13350  0.67670  Biso   1.000  C
  H382     1.0000 0.38040  0.12450  0.69720  Biso   1.000  H
  C764     1.0000 0.33974  0.11688  0.66322  Biso   1.000  C
  N574     1.0000 0.29407  0.53921  0.18749  Biso   1.000  N
  N575     1.0000 0.31716  0.53955  0.21409  Biso   1.000  N
  N576     1.0000 0.29908  0.56652  0.16644  Biso   1.000  N
  C765     1.0000 0.32625  0.58513  0.17982  Biso   1.000  C
  C766     1.0000 0.33752  0.56781  0.20990  Biso   1.000  C
  H383     1.0000 0.35630  0.57480  0.22480  Biso   1.000  H
  C767     1.0000 0.36940  0.63350  0.17670  Biso   1.000  C
  H384     1.0000 0.38040  0.62450  0.19720  Biso   1.000  H
  C768     1.0000 0.33974  0.61688  0.16322  Biso   1.000  C
  Fe1      1.0000 0.68180  0.50000  0.25406  Biso   1.000  Fe
  Fe2      1.0000 0.68180  0.00000  0.75406  Biso   1.000  Fe
  Fe3      1.0000 0.18180  0.50000  0.75406  Biso   1.000  Fe
  Fe4      1.0000 0.18180  0.00000  0.25406  Biso   1.000  Fe
  Fe5      1.0000 0.31820  0.50000  0.25406  Biso   1.000  Fe
  Fe6      1.0000 0.31820  0.00000  0.75406  Biso   1.000  Fe
  Fe7      1.0000 0.81820  0.50000  0.75406  Biso   1.000  Fe
  Fe8      1.0000 0.81820  0.00000  0.25406  Biso   1.000  Fe
  Fe9      1.0000 0.31820  0.50000  0.74594  Biso   1.000  Fe
  Fe10     1.0000 0.31820  0.00000  0.24594  Biso   1.000  Fe
  Fe11     1.0000 0.81820  0.50000  0.24594  Biso   1.000  Fe
  Fe12     1.0000 0.81820  0.00000  0.74594  Biso   1.000  Fe
  Fe13     1.0000 0.68180  0.50000  0.74594  Biso   1.000  Fe
  Fe14     1.0000 0.68180  0.00000  0.24594  Biso   1.000  Fe
  Fe15     1.0000 0.18180  0.50000  0.24594  Biso   1.000  Fe
  Fe16     1.0000 0.18180  0.00000  0.74594  Biso   1.000  Fe
  Fe17     1.0000 0.25406  0.68180  0.50000  Biso   1.000  Fe
  Fe18     1.0000 0.25406  0.18180  0.00000  Biso   1.000  Fe
  Fe19     1.0000 0.75406  0.68180  0.00000  Biso   1.000  Fe
  Fe20     1.0000 0.75406  0.18180  0.50000  Biso   1.000  Fe
  Fe21     1.0000 0.25406  0.31820  0.50000  Biso   1.000  Fe
  Fe22     1.0000 0.25406  0.81820  0.00000  Biso   1.000  Fe
  Fe23     1.0000 0.75406  0.31820  0.00000  Biso   1.000  Fe
  Fe24     1.0000 0.75406  0.81820  0.50000  Biso   1.000  Fe
  Fe25     1.0000 0.74594  0.31820  0.50000  Biso   1.000  Fe
  Fe26     1.0000 0.74594  0.81820  0.00000  Biso   1.000  Fe
  Fe27     1.0000 0.24594  0.31820  0.00000  Biso   1.000  Fe
  Fe28     1.0000 0.24594  0.81820  0.50000  Biso   1.000  Fe
  Fe29     1.0000 0.74594  0.68180  0.50000  Biso   1.000  Fe
  Fe30     1.0000 0.74594  0.18180  0.00000  Biso   1.000  Fe
  Fe31     1.0000 0.24594  0.68180  0.00000  Biso   1.000  Fe
  Fe32     1.0000 0.24594  0.18180  0.50000  Biso   1.000  Fe
  Fe33     1.0000 0.50000  0.25406  0.68180  Biso   1.000  Fe
  Fe34     1.0000 0.50000  0.75406  0.18180  Biso   1.000  Fe
  Fe35     1.0000 0.00000  0.25406  0.18180  Biso   1.000  Fe
  Fe36     1.0000 0.00000  0.75406  0.68180  Biso   1.000  Fe
  Fe37     1.0000 0.50000  0.25406  0.31820  Biso   1.000  Fe
  Fe38     1.0000 0.50000  0.75406  0.81820  Biso   1.000  Fe
  Fe39     1.0000 0.00000  0.25406  0.81820  Biso   1.000  Fe
  Fe40     1.0000 0.00000  0.75406  0.31820  Biso   1.000  Fe
  Fe41     1.0000 0.50000  0.74594  0.31820  Biso   1.000  Fe
  Fe42     1.0000 0.50000  0.24594  0.81820  Biso   1.000  Fe
  Fe43     1.0000 0.00000  0.74594  0.81820  Biso   1.000  Fe
  Fe44     1.0000 0.00000  0.24594  0.31820  Biso   1.000  Fe
  Fe45     1.0000 0.50000  0.74594  0.68180  Biso   1.000  Fe
  Fe46     1.0000 0.50000  0.24594  0.18180  Biso   1.000  Fe
  Fe47     1.0000 0.00000  0.74594  0.18180  Biso   1.000  Fe
  Fe48     1.0000 0.00000  0.24594  0.68180  Biso   1.000  Fe
  Fe49     1.0000 0.00000  0.18180  0.24594  Biso   1.000  Fe
  Fe50     1.0000 0.00000  0.68180  0.74594  Biso   1.000  Fe
  Fe51     1.0000 0.50000  0.18180  0.74594  Biso   1.000  Fe
  Fe52     1.0000 0.50000  0.68180  0.24594  Biso   1.000  Fe
  Fe53     1.0000 0.00000  0.81820  0.24594  Biso   1.000  Fe
  Fe54     1.0000 0.00000  0.31820  0.74594  Biso   1.000  Fe
  Fe55     1.0000 0.50000  0.81820  0.74594  Biso   1.000  Fe
  Fe56     1.0000 0.50000  0.31820  0.24594  Biso   1.000  Fe
  Fe57     1.0000 0.00000  0.81820  0.75406  Biso   1.000  Fe
  Fe58     1.0000 0.00000  0.31820  0.25406  Biso   1.000  Fe
  Fe59     1.0000 0.50000  0.81820  0.25406  Biso   1.000  Fe
  Fe60     1.0000 0.50000  0.31820  0.75406  Biso   1.000  Fe
  Fe61     1.0000 0.00000  0.18180  0.75406  Biso   1.000  Fe
  Fe62     1.0000 0.00000  0.68180  0.25406  Biso   1.000  Fe
  Fe63     1.0000 0.50000  0.18180  0.25406  Biso   1.000  Fe
  Fe64     1.0000 0.50000  0.68180  0.75406  Biso   1.000  Fe
  Fe65     1.0000 0.18180  0.75406  0.00000  Biso   1.000  Fe
  Fe66     1.0000 0.18180  0.25406  0.50000  Biso   1.000  Fe
  Fe67     1.0000 0.68180  0.75406  0.50000  Biso   1.000  Fe
  Fe68     1.0000 0.68180  0.25406  0.00000  Biso   1.000  Fe
  Fe69     1.0000 0.81820  0.75406  0.00000  Biso   1.000  Fe
  Fe70     1.0000 0.81820  0.25406  0.50000  Biso   1.000  Fe
  Fe71     1.0000 0.31820  0.75406  0.50000  Biso   1.000  Fe
  Fe72     1.0000 0.31820  0.25406  0.00000  Biso   1.000  Fe
  Fe73     1.0000 0.81820  0.24594  0.00000  Biso   1.000  Fe
  Fe74     1.0000 0.81820  0.74594  0.50000  Biso   1.000  Fe
  Fe75     1.0000 0.31820  0.24594  0.50000  Biso   1.000  Fe
  Fe76     1.0000 0.31820  0.74594  0.00000  Biso   1.000  Fe
  Fe77     1.0000 0.18180  0.24594  0.00000  Biso   1.000  Fe
  Fe78     1.0000 0.18180  0.74594  0.50000  Biso   1.000  Fe
  Fe79     1.0000 0.68180  0.24594  0.50000  Biso   1.000  Fe
  Fe80     1.0000 0.68180  0.74594  0.00000  Biso   1.000  Fe
  Fe81     1.0000 0.75406  0.00000  0.81820  Biso   1.000  Fe
  Fe82     1.0000 0.75406  0.50000  0.31820  Biso   1.000  Fe
  Fe83     1.0000 0.25406  0.00000  0.31820  Biso   1.000  Fe
  Fe84     1.0000 0.25406  0.50000  0.81820  Biso   1.000  Fe
  Fe85     1.0000 0.75406  0.00000  0.18180  Biso   1.000  Fe
  Fe86     1.0000 0.75406  0.50000  0.68180  Biso   1.000  Fe
  Fe87     1.0000 0.25406  0.00000  0.68180  Biso   1.000  Fe
  Fe88     1.0000 0.25406  0.50000  0.18180  Biso   1.000  Fe
  Fe89     1.0000 0.24594  0.00000  0.18180  Biso   1.000  Fe
  Fe90     1.0000 0.24594  0.50000  0.68180  Biso   1.000  Fe
  Fe91     1.0000 0.74594  0.00000  0.68180  Biso   1.000  Fe
  Fe92     1.0000 0.74594  0.50000  0.18180  Biso   1.000  Fe
  Fe93     1.0000 0.24594  0.00000  0.81820  Biso   1.000  Fe
  Fe94     1.0000 0.24594  0.50000  0.31820  Biso   1.000  Fe
  Fe95     1.0000 0.74594  0.00000  0.31820  Biso   1.000  Fe
  Fe96     1.0000 0.74594  0.50000  0.81820  Biso   1.000  Fe
  Cl1      1.0000 0.75000  0.50000  0.25000  Biso   1.000  Cl
  Cl2      1.0000 0.25000  0.50000  0.25000  Biso   1.000  Cl
  Cl3      1.0000 0.25000  0.50000  0.75000  Biso   1.000  Cl
  Cl4      1.0000 0.75000  0.50000  0.75000  Biso   1.000  Cl
  Cl5      1.0000 0.25000  0.75000  0.50000  Biso   1.000  Cl
  Cl6      1.0000 0.25000  0.25000  0.50000  Biso   1.000  Cl
  Cl7      1.0000 0.75000  0.25000  0.50000  Biso   1.000  Cl
  Cl8      1.0000 0.75000  0.75000  0.50000  Biso   1.000  Cl
  Cl9      1.0000 0.50000  0.25000  0.75000  Biso   1.000  Cl
  Cl10     1.0000 0.50000  0.25000  0.25000  Biso   1.000  Cl
  Cl11     1.0000 0.50000  0.75000  0.25000  Biso   1.000  Cl
  Cl12     1.0000 0.50000  0.75000  0.75000  Biso   1.000  Cl
  Cl13     1.0000 0.00000  0.25000  0.25000  Biso   1.000  Cl
  Cl14     1.0000 0.00000  0.75000  0.25000  Biso   1.000  Cl
  Cl15     1.0000 0.00000  0.75000  0.75000  Biso   1.000  Cl
  Cl16     1.0000 0.00000  0.25000  0.75000  Biso   1.000  Cl
  Cl17     1.0000 0.25000  0.75000  0.00000  Biso   1.000  Cl
  Cl18     1.0000 0.75000  0.75000  0.00000  Biso   1.000  Cl
  Cl19     1.0000 0.75000  0.25000  0.00000  Biso   1.000  Cl
  Cl20     1.0000 0.25000  0.25000  0.00000  Biso   1.000  Cl
  Cl21     1.0000 0.75000  0.00000  0.75000  Biso   1.000  Cl
  Cl22     1.0000 0.75000  0.00000  0.25000  Biso   1.000  Cl
  Cl23     1.0000 0.25000  0.00000  0.25000  Biso   1.000  Cl
  Cl24     1.0000 0.25000  0.00000  0.75000  Biso   1.000  Cl
