data_image0
_cell_length_a       44.5993
_cell_length_b       44.5993
_cell_length_c       44.5993
_cell_angle_alpha    90
_cell_angle_beta     90
_cell_angle_gamma    90

_symmetry_space_group_name_H-M    "P 1"
_symmetry_int_tables_number       1

loop_
  _symmetry_equiv_pos_as_xyz
  'x, y, z'

loop_
  _atom_site_label
  _atom_site_occupancy
  _atom_site_fract_x
  _atom_site_fract_y
  _atom_site_fract_z
  _atom_site_thermal_displace_type
  _atom_site_B_iso_or_equiv
  _atom_site_type_symbol
  O1       1.0000 0.15135  0.10802  0.03108  Biso   1.000  O
  O2       1.0000 0.18690  0.14347  0.03101  Biso   1.000  O
  C1       1.0000 0.21623  0.11636  0.07836  Biso   1.000  C
  H1       1.0000 0.22530  0.13270  0.06920  Biso   1.000  H
  C2       1.0000 0.19003  0.10476  0.06677  Biso   1.000  C
  C3       1.0000 0.17511  0.12013  0.04084  Biso   1.000  C
  N1       1.0000 0.27022  0.10595  0.14066  Biso   1.000  N
  N2       1.0000 0.29273  0.12504  0.14520  Biso   1.000  N
  O3       1.0000 0.15135  0.60802  0.53108  Biso   1.000  O
  O4       1.0000 0.18690  0.64347  0.53101  Biso   1.000  O
  C4       1.0000 0.21623  0.61636  0.57836  Biso   1.000  C
  H2       1.0000 0.22530  0.63270  0.56920  Biso   1.000  H
  C5       1.0000 0.19003  0.60476  0.56677  Biso   1.000  C
  C6       1.0000 0.17511  0.62013  0.54084  Biso   1.000  C
  N3       1.0000 0.27022  0.60595  0.64066  Biso   1.000  N
  N4       1.0000 0.29273  0.62504  0.64520  Biso   1.000  N
  O5       1.0000 0.65135  0.10802  0.53108  Biso   1.000  O
  O6       1.0000 0.68690  0.14347  0.53101  Biso   1.000  O
  C7       1.0000 0.71623  0.11636  0.57836  Biso   1.000  C
  H3       1.0000 0.72530  0.13270  0.56920  Biso   1.000  H
  C8       1.0000 0.69003  0.10476  0.56677  Biso   1.000  C
  C9       1.0000 0.67511  0.12013  0.54084  Biso   1.000  C
  N5       1.0000 0.77022  0.10595  0.64066  Biso   1.000  N
  N6       1.0000 0.79273  0.12504  0.64520  Biso   1.000  N
  O7       1.0000 0.65135  0.60802  0.03108  Biso   1.000  O
  O8       1.0000 0.68690  0.64347  0.03101  Biso   1.000  O
  C10      1.0000 0.71623  0.61636  0.07836  Biso   1.000  C
  H4       1.0000 0.72530  0.63270  0.06920  Biso   1.000  H
  C11      1.0000 0.69003  0.60476  0.06677  Biso   1.000  C
  C12      1.0000 0.67511  0.62013  0.04084  Biso   1.000  C
  N7       1.0000 0.77022  0.60595  0.14066  Biso   1.000  N
  N8       1.0000 0.79273  0.62504  0.14520  Biso   1.000  N
  O9       1.0000 0.84865  0.89198  0.03108  Biso   1.000  O
  O10      1.0000 0.81310  0.85653  0.03101  Biso   1.000  O
  C13      1.0000 0.78377  0.88364  0.07836  Biso   1.000  C
  H5       1.0000 0.77470  0.86730  0.06920  Biso   1.000  H
  C14      1.0000 0.80997  0.89524  0.06677  Biso   1.000  C
  C15      1.0000 0.82489  0.87987  0.04084  Biso   1.000  C
  N9       1.0000 0.72978  0.89405  0.14066  Biso   1.000  N
  N10      1.0000 0.70727  0.87496  0.14520  Biso   1.000  N
  O11      1.0000 0.84865  0.39198  0.53108  Biso   1.000  O
  O12      1.0000 0.81310  0.35653  0.53101  Biso   1.000  O
  C16      1.0000 0.78377  0.38364  0.57836  Biso   1.000  C
  H6       1.0000 0.77470  0.36730  0.56920  Biso   1.000  H
  C17      1.0000 0.80997  0.39524  0.56677  Biso   1.000  C
  C18      1.0000 0.82489  0.37987  0.54084  Biso   1.000  C
  N11      1.0000 0.72978  0.39405  0.64066  Biso   1.000  N
  N12      1.0000 0.70727  0.37496  0.64520  Biso   1.000  N
  O13      1.0000 0.34865  0.89198  0.53108  Biso   1.000  O
  O14      1.0000 0.31310  0.85653  0.53101  Biso   1.000  O
  C19      1.0000 0.28377  0.88364  0.57836  Biso   1.000  C
  H7       1.0000 0.27470  0.86730  0.56920  Biso   1.000  H
  C20      1.0000 0.30997  0.89524  0.56677  Biso   1.000  C
  C21      1.0000 0.32489  0.87987  0.54084  Biso   1.000  C
  N13      1.0000 0.22978  0.89405  0.64066  Biso   1.000  N
  N14      1.0000 0.20727  0.87496  0.64520  Biso   1.000  N
  O15      1.0000 0.34865  0.39198  0.03108  Biso   1.000  O
  O16      1.0000 0.31310  0.35653  0.03101  Biso   1.000  O
  C22      1.0000 0.28377  0.38364  0.07836  Biso   1.000  C
  H8       1.0000 0.27470  0.36730  0.06920  Biso   1.000  H
  C23      1.0000 0.30997  0.39524  0.06677  Biso   1.000  C
  C24      1.0000 0.32489  0.37987  0.04084  Biso   1.000  C
  N15      1.0000 0.22978  0.39405  0.14066  Biso   1.000  N
  N16      1.0000 0.20727  0.37496  0.14520  Biso   1.000  N
  O17      1.0000 0.84865  0.10802  0.96892  Biso   1.000  O
  O18      1.0000 0.81310  0.14347  0.96899  Biso   1.000  O
  C25      1.0000 0.78377  0.11636  0.92164  Biso   1.000  C
  H9       1.0000 0.77470  0.13270  0.93080  Biso   1.000  H
  C26      1.0000 0.80997  0.10476  0.93323  Biso   1.000  C
  C27      1.0000 0.82489  0.12013  0.95916  Biso   1.000  C
  N17      1.0000 0.72978  0.10595  0.85934  Biso   1.000  N
  N18      1.0000 0.70727  0.12504  0.85480  Biso   1.000  N
  O19      1.0000 0.84865  0.60802  0.46892  Biso   1.000  O
  O20      1.0000 0.81310  0.64347  0.46899  Biso   1.000  O
  C28      1.0000 0.78377  0.61636  0.42164  Biso   1.000  C
  H10      1.0000 0.77470  0.63270  0.43080  Biso   1.000  H
  C29      1.0000 0.80997  0.60476  0.43323  Biso   1.000  C
  C30      1.0000 0.82489  0.62013  0.45916  Biso   1.000  C
  N19      1.0000 0.72978  0.60595  0.35934  Biso   1.000  N
  N20      1.0000 0.70727  0.62504  0.35480  Biso   1.000  N
  O21      1.0000 0.34865  0.10802  0.46892  Biso   1.000  O
  O22      1.0000 0.31310  0.14347  0.46899  Biso   1.000  O
  C31      1.0000 0.28377  0.11636  0.42164  Biso   1.000  C
  H11      1.0000 0.27470  0.13270  0.43080  Biso   1.000  H
  C32      1.0000 0.30997  0.10476  0.43323  Biso   1.000  C
  C33      1.0000 0.32489  0.12013  0.45916  Biso   1.000  C
  N21      1.0000 0.22978  0.10595  0.35934  Biso   1.000  N
  N22      1.0000 0.20727  0.12504  0.35480  Biso   1.000  N
  O23      1.0000 0.34865  0.60802  0.96892  Biso   1.000  O
  O24      1.0000 0.31310  0.64347  0.96899  Biso   1.000  O
  C34      1.0000 0.28377  0.61636  0.92164  Biso   1.000  C
  H12      1.0000 0.27470  0.63270  0.93080  Biso   1.000  H
  C35      1.0000 0.30997  0.60476  0.93323  Biso   1.000  C
  C36      1.0000 0.32489  0.62013  0.95916  Biso   1.000  C
  N23      1.0000 0.22978  0.60595  0.85934  Biso   1.000  N
  N24      1.0000 0.20727  0.62504  0.85480  Biso   1.000  N
  O25      1.0000 0.15135  0.89198  0.96892  Biso   1.000  O
  O26      1.0000 0.18690  0.85653  0.96899  Biso   1.000  O
  C37      1.0000 0.21623  0.88364  0.92164  Biso   1.000  C
  H13      1.0000 0.22530  0.86730  0.93080  Biso   1.000  H
  C38      1.0000 0.19003  0.89524  0.93323  Biso   1.000  C
  C39      1.0000 0.17511  0.87987  0.95916  Biso   1.000  C
  N25      1.0000 0.27022  0.89405  0.85934  Biso   1.000  N
  N26      1.0000 0.29273  0.87496  0.85480  Biso   1.000  N
  O27      1.0000 0.15135  0.39198  0.46892  Biso   1.000  O
  O28      1.0000 0.18690  0.35653  0.46899  Biso   1.000  O
  C40      1.0000 0.21623  0.38364  0.42164  Biso   1.000  C
  H14      1.0000 0.22530  0.36730  0.43080  Biso   1.000  H
  C41      1.0000 0.19003  0.39524  0.43323  Biso   1.000  C
  C42      1.0000 0.17511  0.37987  0.45916  Biso   1.000  C
  N27      1.0000 0.27022  0.39405  0.35934  Biso   1.000  N
  N28      1.0000 0.29273  0.37496  0.35480  Biso   1.000  N
  O29      1.0000 0.65135  0.89198  0.46892  Biso   1.000  O
  O30      1.0000 0.68690  0.85653  0.46899  Biso   1.000  O
  C43      1.0000 0.71623  0.88364  0.42164  Biso   1.000  C
  H15      1.0000 0.72530  0.86730  0.43080  Biso   1.000  H
  C44      1.0000 0.69003  0.89524  0.43323  Biso   1.000  C
  C45      1.0000 0.67511  0.87987  0.45916  Biso   1.000  C
  N29      1.0000 0.77022  0.89405  0.35934  Biso   1.000  N
  N30      1.0000 0.79273  0.87496  0.35480  Biso   1.000  N
  O31      1.0000 0.65135  0.39198  0.96892  Biso   1.000  O
  O32      1.0000 0.68690  0.35653  0.96899  Biso   1.000  O
  C46      1.0000 0.71623  0.38364  0.92164  Biso   1.000  C
  H16      1.0000 0.72530  0.36730  0.93080  Biso   1.000  H
  C47      1.0000 0.69003  0.39524  0.93323  Biso   1.000  C
  C48      1.0000 0.67511  0.37987  0.95916  Biso   1.000  C
  N31      1.0000 0.77022  0.39405  0.85934  Biso   1.000  N
  N32      1.0000 0.79273  0.37496  0.85480  Biso   1.000  N
  O33      1.0000 0.03108  0.15135  0.10802  Biso   1.000  O
  O34      1.0000 0.03101  0.18690  0.14347  Biso   1.000  O
  C49      1.0000 0.07836  0.21623  0.11636  Biso   1.000  C
  H17      1.0000 0.06920  0.22530  0.13270  Biso   1.000  H
  C50      1.0000 0.06677  0.19003  0.10476  Biso   1.000  C
  C51      1.0000 0.04084  0.17511  0.12013  Biso   1.000  C
  N33      1.0000 0.14066  0.27022  0.10595  Biso   1.000  N
  N34      1.0000 0.14520  0.29273  0.12504  Biso   1.000  N
  O35      1.0000 0.03108  0.65135  0.60802  Biso   1.000  O
  O36      1.0000 0.03101  0.68690  0.64347  Biso   1.000  O
  C52      1.0000 0.07836  0.71623  0.61636  Biso   1.000  C
  H18      1.0000 0.06920  0.72530  0.63270  Biso   1.000  H
  C53      1.0000 0.06677  0.69003  0.60476  Biso   1.000  C
  C54      1.0000 0.04084  0.67511  0.62013  Biso   1.000  C
  N35      1.0000 0.14066  0.77022  0.60595  Biso   1.000  N
  N36      1.0000 0.14520  0.79273  0.62504  Biso   1.000  N
  O37      1.0000 0.53108  0.15135  0.60802  Biso   1.000  O
  O38      1.0000 0.53101  0.18690  0.64347  Biso   1.000  O
  C55      1.0000 0.57836  0.21623  0.61636  Biso   1.000  C
  H19      1.0000 0.56920  0.22530  0.63270  Biso   1.000  H
  C56      1.0000 0.56677  0.19003  0.60476  Biso   1.000  C
  C57      1.0000 0.54084  0.17511  0.62013  Biso   1.000  C
  N37      1.0000 0.64066  0.27022  0.60595  Biso   1.000  N
  N38      1.0000 0.64520  0.29273  0.62504  Biso   1.000  N
  O39      1.0000 0.53108  0.65135  0.10802  Biso   1.000  O
  O40      1.0000 0.53101  0.68690  0.14347  Biso   1.000  O
  C58      1.0000 0.57836  0.71623  0.11636  Biso   1.000  C
  H20      1.0000 0.56920  0.72530  0.13270  Biso   1.000  H
  C59      1.0000 0.56677  0.69003  0.10476  Biso   1.000  C
  C60      1.0000 0.54084  0.67511  0.12013  Biso   1.000  C
  N39      1.0000 0.64066  0.77022  0.10595  Biso   1.000  N
  N40      1.0000 0.64520  0.79273  0.12504  Biso   1.000  N
  O41      1.0000 0.03108  0.84865  0.89198  Biso   1.000  O
  O42      1.0000 0.03101  0.81310  0.85653  Biso   1.000  O
  C61      1.0000 0.07836  0.78377  0.88364  Biso   1.000  C
  H21      1.0000 0.06920  0.77470  0.86730  Biso   1.000  H
  C62      1.0000 0.06677  0.80997  0.89524  Biso   1.000  C
  C63      1.0000 0.04084  0.82489  0.87987  Biso   1.000  C
  N41      1.0000 0.14066  0.72978  0.89405  Biso   1.000  N
  N42      1.0000 0.14520  0.70727  0.87496  Biso   1.000  N
  O43      1.0000 0.03108  0.34865  0.39198  Biso   1.000  O
  O44      1.0000 0.03101  0.31310  0.35653  Biso   1.000  O
  C64      1.0000 0.07836  0.28377  0.38364  Biso   1.000  C
  H22      1.0000 0.06920  0.27470  0.36730  Biso   1.000  H
  C65      1.0000 0.06677  0.30997  0.39524  Biso   1.000  C
  C66      1.0000 0.04084  0.32489  0.37987  Biso   1.000  C
  N43      1.0000 0.14066  0.22978  0.39405  Biso   1.000  N
  N44      1.0000 0.14520  0.20727  0.37496  Biso   1.000  N
  O45      1.0000 0.53108  0.84865  0.39198  Biso   1.000  O
  O46      1.0000 0.53101  0.81310  0.35653  Biso   1.000  O
  C67      1.0000 0.57836  0.78377  0.38364  Biso   1.000  C
  H23      1.0000 0.56920  0.77470  0.36730  Biso   1.000  H
  C68      1.0000 0.56677  0.80997  0.39524  Biso   1.000  C
  C69      1.0000 0.54084  0.82489  0.37987  Biso   1.000  C
  N45      1.0000 0.64066  0.72978  0.39405  Biso   1.000  N
  N46      1.0000 0.64520  0.70727  0.37496  Biso   1.000  N
  O47      1.0000 0.53108  0.34865  0.89198  Biso   1.000  O
  O48      1.0000 0.53101  0.31310  0.85653  Biso   1.000  O
  C70      1.0000 0.57836  0.28377  0.88364  Biso   1.000  C
  H24      1.0000 0.56920  0.27470  0.86730  Biso   1.000  H
  C71      1.0000 0.56677  0.30997  0.89524  Biso   1.000  C
  C72      1.0000 0.54084  0.32489  0.87987  Biso   1.000  C
  N47      1.0000 0.64066  0.22978  0.89405  Biso   1.000  N
  N48      1.0000 0.64520  0.20727  0.87496  Biso   1.000  N
  O49      1.0000 0.96892  0.84865  0.10802  Biso   1.000  O
  O50      1.0000 0.96899  0.81310  0.14347  Biso   1.000  O
  C73      1.0000 0.92164  0.78377  0.11636  Biso   1.000  C
  H25      1.0000 0.93080  0.77470  0.13270  Biso   1.000  H
  C74      1.0000 0.93323  0.80997  0.10476  Biso   1.000  C
  C75      1.0000 0.95916  0.82489  0.12013  Biso   1.000  C
  N49      1.0000 0.85934  0.72978  0.10595  Biso   1.000  N
  N50      1.0000 0.85480  0.70727  0.12504  Biso   1.000  N
  O51      1.0000 0.96892  0.34865  0.60802  Biso   1.000  O
  O52      1.0000 0.96899  0.31310  0.64347  Biso   1.000  O
  C76      1.0000 0.92164  0.28377  0.61636  Biso   1.000  C
  H26      1.0000 0.93080  0.27470  0.63270  Biso   1.000  H
  C77      1.0000 0.93323  0.30997  0.60476  Biso   1.000  C
  C78      1.0000 0.95916  0.32489  0.62013  Biso   1.000  C
  N51      1.0000 0.85934  0.22978  0.60595  Biso   1.000  N
  N52      1.0000 0.85480  0.20727  0.62504  Biso   1.000  N
  O53      1.0000 0.46892  0.84865  0.60802  Biso   1.000  O
  O54      1.0000 0.46899  0.81310  0.64347  Biso   1.000  O
  C79      1.0000 0.42164  0.78377  0.61636  Biso   1.000  C
  H27      1.0000 0.43080  0.77470  0.63270  Biso   1.000  H
  C80      1.0000 0.43323  0.80997  0.60476  Biso   1.000  C
  C81      1.0000 0.45916  0.82489  0.62013  Biso   1.000  C
  N53      1.0000 0.35934  0.72978  0.60595  Biso   1.000  N
  N54      1.0000 0.35480  0.70727  0.62504  Biso   1.000  N
  O55      1.0000 0.46892  0.34865  0.10802  Biso   1.000  O
  O56      1.0000 0.46899  0.31310  0.14347  Biso   1.000  O
  C82      1.0000 0.42164  0.28377  0.11636  Biso   1.000  C
  H28      1.0000 0.43080  0.27470  0.13270  Biso   1.000  H
  C83      1.0000 0.43323  0.30997  0.10476  Biso   1.000  C
  C84      1.0000 0.45916  0.32489  0.12013  Biso   1.000  C
  N55      1.0000 0.35934  0.22978  0.10595  Biso   1.000  N
  N56      1.0000 0.35480  0.20727  0.12504  Biso   1.000  N
  O57      1.0000 0.96892  0.15135  0.89198  Biso   1.000  O
  O58      1.0000 0.96899  0.18690  0.85653  Biso   1.000  O
  C85      1.0000 0.92164  0.21623  0.88364  Biso   1.000  C
  H29      1.0000 0.93080  0.22530  0.86730  Biso   1.000  H
  C86      1.0000 0.93323  0.19003  0.89524  Biso   1.000  C
  C87      1.0000 0.95916  0.17511  0.87987  Biso   1.000  C
  N57      1.0000 0.85934  0.27022  0.89405  Biso   1.000  N
  N58      1.0000 0.85480  0.29273  0.87496  Biso   1.000  N
  O59      1.0000 0.96892  0.65135  0.39198  Biso   1.000  O
  O60      1.0000 0.96899  0.68690  0.35653  Biso   1.000  O
  C88      1.0000 0.92164  0.71623  0.38364  Biso   1.000  C
  H30      1.0000 0.93080  0.72530  0.36730  Biso   1.000  H
  C89      1.0000 0.93323  0.69003  0.39524  Biso   1.000  C
  C90      1.0000 0.95916  0.67511  0.37987  Biso   1.000  C
  N59      1.0000 0.85934  0.77022  0.39405  Biso   1.000  N
  N60      1.0000 0.85480  0.79273  0.37496  Biso   1.000  N
  O61      1.0000 0.46892  0.15135  0.39198  Biso   1.000  O
  O62      1.0000 0.46899  0.18690  0.35653  Biso   1.000  O
  C91      1.0000 0.42164  0.21623  0.38364  Biso   1.000  C
  H31      1.0000 0.43080  0.22530  0.36730  Biso   1.000  H
  C92      1.0000 0.43323  0.19003  0.39524  Biso   1.000  C
  C93      1.0000 0.45916  0.17511  0.37987  Biso   1.000  C
  N61      1.0000 0.35934  0.27022  0.39405  Biso   1.000  N
  N62      1.0000 0.35480  0.29273  0.37496  Biso   1.000  N
  O63      1.0000 0.46892  0.65135  0.89198  Biso   1.000  O
  O64      1.0000 0.46899  0.68690  0.85653  Biso   1.000  O
  C94      1.0000 0.42164  0.71623  0.88364  Biso   1.000  C
  H32      1.0000 0.43080  0.72530  0.86730  Biso   1.000  H
  C95      1.0000 0.43323  0.69003  0.89524  Biso   1.000  C
  C96      1.0000 0.45916  0.67511  0.87987  Biso   1.000  C
  N63      1.0000 0.35934  0.77022  0.89405  Biso   1.000  N
  N64      1.0000 0.35480  0.79273  0.87496  Biso   1.000  N
  O65      1.0000 0.10802  0.03108  0.15135  Biso   1.000  O
  O66      1.0000 0.14347  0.03101  0.18690  Biso   1.000  O
  C97      1.0000 0.11636  0.07836  0.21623  Biso   1.000  C
  H33      1.0000 0.13270  0.06920  0.22530  Biso   1.000  H
  C98      1.0000 0.10476  0.06677  0.19003  Biso   1.000  C
  C99      1.0000 0.12013  0.04084  0.17511  Biso   1.000  C
  N65      1.0000 0.10595  0.14066  0.27022  Biso   1.000  N
  N66      1.0000 0.12504  0.14520  0.29273  Biso   1.000  N
  O67      1.0000 0.10802  0.53108  0.65135  Biso   1.000  O
  O68      1.0000 0.14347  0.53101  0.68690  Biso   1.000  O
  C100     1.0000 0.11636  0.57836  0.71623  Biso   1.000  C
  H34      1.0000 0.13270  0.56920  0.72530  Biso   1.000  H
  C101     1.0000 0.10476  0.56677  0.69003  Biso   1.000  C
  C102     1.0000 0.12013  0.54084  0.67511  Biso   1.000  C
  N67      1.0000 0.10595  0.64066  0.77022  Biso   1.000  N
  N68      1.0000 0.12504  0.64520  0.79273  Biso   1.000  N
  O69      1.0000 0.60802  0.03108  0.65135  Biso   1.000  O
  O70      1.0000 0.64347  0.03101  0.68690  Biso   1.000  O
  C103     1.0000 0.61636  0.07836  0.71623  Biso   1.000  C
  H35      1.0000 0.63270  0.06920  0.72530  Biso   1.000  H
  C104     1.0000 0.60476  0.06677  0.69003  Biso   1.000  C
  C105     1.0000 0.62013  0.04084  0.67511  Biso   1.000  C
  N69      1.0000 0.60595  0.14066  0.77022  Biso   1.000  N
  N70      1.0000 0.62504  0.14520  0.79273  Biso   1.000  N
  O71      1.0000 0.60802  0.53108  0.15135  Biso   1.000  O
  O72      1.0000 0.64347  0.53101  0.18690  Biso   1.000  O
  C106     1.0000 0.61636  0.57836  0.21623  Biso   1.000  C
  H36      1.0000 0.63270  0.56920  0.22530  Biso   1.000  H
  C107     1.0000 0.60476  0.56677  0.19003  Biso   1.000  C
  C108     1.0000 0.62013  0.54084  0.17511  Biso   1.000  C
  N71      1.0000 0.60595  0.64066  0.27022  Biso   1.000  N
  N72      1.0000 0.62504  0.64520  0.29273  Biso   1.000  N
  O73      1.0000 0.89198  0.03108  0.84865  Biso   1.000  O
  O74      1.0000 0.85653  0.03101  0.81310  Biso   1.000  O
  C109     1.0000 0.88364  0.07836  0.78377  Biso   1.000  C
  H37      1.0000 0.86730  0.06920  0.77470  Biso   1.000  H
  C110     1.0000 0.89524  0.06677  0.80997  Biso   1.000  C
  C111     1.0000 0.87987  0.04084  0.82489  Biso   1.000  C
  N73      1.0000 0.89405  0.14066  0.72978  Biso   1.000  N
  N74      1.0000 0.87496  0.14520  0.70727  Biso   1.000  N
  O75      1.0000 0.89198  0.53108  0.34865  Biso   1.000  O
  O76      1.0000 0.85653  0.53101  0.31310  Biso   1.000  O
  C112     1.0000 0.88364  0.57836  0.28377  Biso   1.000  C
  H38      1.0000 0.86730  0.56920  0.27470  Biso   1.000  H
  C113     1.0000 0.89524  0.56677  0.30997  Biso   1.000  C
  C114     1.0000 0.87987  0.54084  0.32489  Biso   1.000  C
  N75      1.0000 0.89405  0.64066  0.22978  Biso   1.000  N
  N76      1.0000 0.87496  0.64520  0.20727  Biso   1.000  N
  O77      1.0000 0.39198  0.03108  0.34865  Biso   1.000  O
  O78      1.0000 0.35653  0.03101  0.31310  Biso   1.000  O
  C115     1.0000 0.38364  0.07836  0.28377  Biso   1.000  C
  H39      1.0000 0.36730  0.06920  0.27470  Biso   1.000  H
  C116     1.0000 0.39524  0.06677  0.30997  Biso   1.000  C
  C117     1.0000 0.37987  0.04084  0.32489  Biso   1.000  C
  N77      1.0000 0.39405  0.14066  0.22978  Biso   1.000  N
  N78      1.0000 0.37496  0.14520  0.20727  Biso   1.000  N
  O79      1.0000 0.39198  0.53108  0.84865  Biso   1.000  O
  O80      1.0000 0.35653  0.53101  0.81310  Biso   1.000  O
  C118     1.0000 0.38364  0.57836  0.78377  Biso   1.000  C
  H40      1.0000 0.36730  0.56920  0.77470  Biso   1.000  H
  C119     1.0000 0.39524  0.56677  0.80997  Biso   1.000  C
  C120     1.0000 0.37987  0.54084  0.82489  Biso   1.000  C
  N79      1.0000 0.39405  0.64066  0.72978  Biso   1.000  N
  N80      1.0000 0.37496  0.64520  0.70727  Biso   1.000  N
  O81      1.0000 0.10802  0.96892  0.84865  Biso   1.000  O
  O82      1.0000 0.14347  0.96899  0.81310  Biso   1.000  O
  C121     1.0000 0.11636  0.92164  0.78377  Biso   1.000  C
  H41      1.0000 0.13270  0.93080  0.77470  Biso   1.000  H
  C122     1.0000 0.10476  0.93323  0.80997  Biso   1.000  C
  C123     1.0000 0.12013  0.95916  0.82489  Biso   1.000  C
  N81      1.0000 0.10595  0.85934  0.72978  Biso   1.000  N
  N82      1.0000 0.12504  0.85480  0.70727  Biso   1.000  N
  O83      1.0000 0.10802  0.46892  0.34865  Biso   1.000  O
  O84      1.0000 0.14347  0.46899  0.31310  Biso   1.000  O
  C124     1.0000 0.11636  0.42164  0.28377  Biso   1.000  C
  H42      1.0000 0.13270  0.43080  0.27470  Biso   1.000  H
  C125     1.0000 0.10476  0.43323  0.30997  Biso   1.000  C
  C126     1.0000 0.12013  0.45916  0.32489  Biso   1.000  C
  N83      1.0000 0.10595  0.35934  0.22978  Biso   1.000  N
  N84      1.0000 0.12504  0.35480  0.20727  Biso   1.000  N
  O85      1.0000 0.60802  0.96892  0.34865  Biso   1.000  O
  O86      1.0000 0.64347  0.96899  0.31310  Biso   1.000  O
  C127     1.0000 0.61636  0.92164  0.28377  Biso   1.000  C
  H43      1.0000 0.63270  0.93080  0.27470  Biso   1.000  H
  C128     1.0000 0.60476  0.93323  0.30997  Biso   1.000  C
  C129     1.0000 0.62013  0.95916  0.32489  Biso   1.000  C
  N85      1.0000 0.60595  0.85934  0.22978  Biso   1.000  N
  N86      1.0000 0.62504  0.85480  0.20727  Biso   1.000  N
  O87      1.0000 0.60802  0.46892  0.84865  Biso   1.000  O
  O88      1.0000 0.64347  0.46899  0.81310  Biso   1.000  O
  C130     1.0000 0.61636  0.42164  0.78377  Biso   1.000  C
  H44      1.0000 0.63270  0.43080  0.77470  Biso   1.000  H
  C131     1.0000 0.60476  0.43323  0.80997  Biso   1.000  C
  C132     1.0000 0.62013  0.45916  0.82489  Biso   1.000  C
  N87      1.0000 0.60595  0.35934  0.72978  Biso   1.000  N
  N88      1.0000 0.62504  0.35480  0.70727  Biso   1.000  N
  O89      1.0000 0.89198  0.96892  0.15135  Biso   1.000  O
  O90      1.0000 0.85653  0.96899  0.18690  Biso   1.000  O
  C133     1.0000 0.88364  0.92164  0.21623  Biso   1.000  C
  H45      1.0000 0.86730  0.93080  0.22530  Biso   1.000  H
  C134     1.0000 0.89524  0.93323  0.19003  Biso   1.000  C
  C135     1.0000 0.87987  0.95916  0.17511  Biso   1.000  C
  N89      1.0000 0.89405  0.85934  0.27022  Biso   1.000  N
  N90      1.0000 0.87496  0.85480  0.29273  Biso   1.000  N
  O91      1.0000 0.89198  0.46892  0.65135  Biso   1.000  O
  O92      1.0000 0.85653  0.46899  0.68690  Biso   1.000  O
  C136     1.0000 0.88364  0.42164  0.71623  Biso   1.000  C
  H46      1.0000 0.86730  0.43080  0.72530  Biso   1.000  H
  C137     1.0000 0.89524  0.43323  0.69003  Biso   1.000  C
  C138     1.0000 0.87987  0.45916  0.67511  Biso   1.000  C
  N91      1.0000 0.89405  0.35934  0.77022  Biso   1.000  N
  N92      1.0000 0.87496  0.35480  0.79273  Biso   1.000  N
  O93      1.0000 0.39198  0.96892  0.65135  Biso   1.000  O
  O94      1.0000 0.35653  0.96899  0.68690  Biso   1.000  O
  C139     1.0000 0.38364  0.92164  0.71623  Biso   1.000  C
  H47      1.0000 0.36730  0.93080  0.72530  Biso   1.000  H
  C140     1.0000 0.39524  0.93323  0.69003  Biso   1.000  C
  C141     1.0000 0.37987  0.95916  0.67511  Biso   1.000  C
  N93      1.0000 0.39405  0.85934  0.77022  Biso   1.000  N
  N94      1.0000 0.37496  0.85480  0.79273  Biso   1.000  N
  O95      1.0000 0.39198  0.46892  0.15135  Biso   1.000  O
  O96      1.0000 0.35653  0.46899  0.18690  Biso   1.000  O
  C142     1.0000 0.38364  0.42164  0.21623  Biso   1.000  C
  H48      1.0000 0.36730  0.43080  0.22530  Biso   1.000  H
  C143     1.0000 0.39524  0.43323  0.19003  Biso   1.000  C
  C144     1.0000 0.37987  0.45916  0.17511  Biso   1.000  C
  N95      1.0000 0.39405  0.35934  0.27022  Biso   1.000  N
  N96      1.0000 0.37496  0.35480  0.29273  Biso   1.000  N
  O97      1.0000 0.10802  0.15135  0.96892  Biso   1.000  O
  O98      1.0000 0.14347  0.18690  0.96899  Biso   1.000  O
  C145     1.0000 0.11636  0.21623  0.92164  Biso   1.000  C
  H49      1.0000 0.13270  0.22530  0.93080  Biso   1.000  H
  C146     1.0000 0.10476  0.19003  0.93323  Biso   1.000  C
  C147     1.0000 0.12013  0.17511  0.95916  Biso   1.000  C
  N97      1.0000 0.10595  0.27022  0.85934  Biso   1.000  N
  N98      1.0000 0.12504  0.29273  0.85480  Biso   1.000  N
  O99      1.0000 0.10802  0.65135  0.46892  Biso   1.000  O
  O100     1.0000 0.14347  0.68690  0.46899  Biso   1.000  O
  C148     1.0000 0.11636  0.71623  0.42164  Biso   1.000  C
  H50      1.0000 0.13270  0.72530  0.43080  Biso   1.000  H
  C149     1.0000 0.10476  0.69003  0.43323  Biso   1.000  C
  C150     1.0000 0.12013  0.67511  0.45916  Biso   1.000  C
  N99      1.0000 0.10595  0.77022  0.35934  Biso   1.000  N
  N100     1.0000 0.12504  0.79273  0.35480  Biso   1.000  N
  O101     1.0000 0.60802  0.15135  0.46892  Biso   1.000  O
  O102     1.0000 0.64347  0.18690  0.46899  Biso   1.000  O
  C151     1.0000 0.61636  0.21623  0.42164  Biso   1.000  C
  H51      1.0000 0.63270  0.22530  0.43080  Biso   1.000  H
  C152     1.0000 0.60476  0.19003  0.43323  Biso   1.000  C
  C153     1.0000 0.62013  0.17511  0.45916  Biso   1.000  C
  N101     1.0000 0.60595  0.27022  0.35934  Biso   1.000  N
  N102     1.0000 0.62504  0.29273  0.35480  Biso   1.000  N
  O103     1.0000 0.60802  0.65135  0.96892  Biso   1.000  O
  O104     1.0000 0.64347  0.68690  0.96899  Biso   1.000  O
  C154     1.0000 0.61636  0.71623  0.92164  Biso   1.000  C
  H52      1.0000 0.63270  0.72530  0.93080  Biso   1.000  H
  C155     1.0000 0.60476  0.69003  0.93323  Biso   1.000  C
  C156     1.0000 0.62013  0.67511  0.95916  Biso   1.000  C
  N103     1.0000 0.60595  0.77022  0.85934  Biso   1.000  N
  N104     1.0000 0.62504  0.79273  0.85480  Biso   1.000  N
  O105     1.0000 0.89198  0.84865  0.96892  Biso   1.000  O
  O106     1.0000 0.85653  0.81310  0.96899  Biso   1.000  O
  C157     1.0000 0.88364  0.78377  0.92164  Biso   1.000  C
  H53      1.0000 0.86730  0.77470  0.93080  Biso   1.000  H
  C158     1.0000 0.89524  0.80997  0.93323  Biso   1.000  C
  C159     1.0000 0.87987  0.82489  0.95916  Biso   1.000  C
  N105     1.0000 0.89405  0.72978  0.85934  Biso   1.000  N
  N106     1.0000 0.87496  0.70727  0.85480  Biso   1.000  N
  O107     1.0000 0.89198  0.34865  0.46892  Biso   1.000  O
  O108     1.0000 0.85653  0.31310  0.46899  Biso   1.000  O
  C160     1.0000 0.88364  0.28377  0.42164  Biso   1.000  C
  H54      1.0000 0.86730  0.27470  0.43080  Biso   1.000  H
  C161     1.0000 0.89524  0.30997  0.43323  Biso   1.000  C
  C162     1.0000 0.87987  0.32489  0.45916  Biso   1.000  C
  N107     1.0000 0.89405  0.22978  0.35934  Biso   1.000  N
  N108     1.0000 0.87496  0.20727  0.35480  Biso   1.000  N
  O109     1.0000 0.39198  0.84865  0.46892  Biso   1.000  O
  O110     1.0000 0.35653  0.81310  0.46899  Biso   1.000  O
  C163     1.0000 0.38364  0.78377  0.42164  Biso   1.000  C
  H55      1.0000 0.36730  0.77470  0.43080  Biso   1.000  H
  C164     1.0000 0.39524  0.80997  0.43323  Biso   1.000  C
  C165     1.0000 0.37987  0.82489  0.45916  Biso   1.000  C
  N109     1.0000 0.39405  0.72978  0.35934  Biso   1.000  N
  N110     1.0000 0.37496  0.70727  0.35480  Biso   1.000  N
  O111     1.0000 0.39198  0.34865  0.96892  Biso   1.000  O
  O112     1.0000 0.35653  0.31310  0.96899  Biso   1.000  O
  C166     1.0000 0.38364  0.28377  0.92164  Biso   1.000  C
  H56      1.0000 0.36730  0.27470  0.93080  Biso   1.000  H
  C167     1.0000 0.39524  0.30997  0.93323  Biso   1.000  C
  C168     1.0000 0.37987  0.32489  0.95916  Biso   1.000  C
  N111     1.0000 0.39405  0.22978  0.85934  Biso   1.000  N
  N112     1.0000 0.37496  0.20727  0.85480  Biso   1.000  N
  O113     1.0000 0.10802  0.84865  0.03108  Biso   1.000  O
  O114     1.0000 0.14347  0.81310  0.03101  Biso   1.000  O
  C169     1.0000 0.11636  0.78377  0.07836  Biso   1.000  C
  H57      1.0000 0.13270  0.77470  0.06920  Biso   1.000  H
  C170     1.0000 0.10476  0.80997  0.06677  Biso   1.000  C
  C171     1.0000 0.12013  0.82489  0.04084  Biso   1.000  C
  N113     1.0000 0.10595  0.72978  0.14066  Biso   1.000  N
  N114     1.0000 0.12504  0.70727  0.14520  Biso   1.000  N
  O115     1.0000 0.10802  0.34865  0.53108  Biso   1.000  O
  O116     1.0000 0.14347  0.31310  0.53101  Biso   1.000  O
  C172     1.0000 0.11636  0.28377  0.57836  Biso   1.000  C
  H58      1.0000 0.13270  0.27470  0.56920  Biso   1.000  H
  C173     1.0000 0.10476  0.30997  0.56677  Biso   1.000  C
  C174     1.0000 0.12013  0.32489  0.54084  Biso   1.000  C
  N115     1.0000 0.10595  0.22978  0.64066  Biso   1.000  N
  N116     1.0000 0.12504  0.20727  0.64520  Biso   1.000  N
  O117     1.0000 0.60802  0.84865  0.53108  Biso   1.000  O
  O118     1.0000 0.64347  0.81310  0.53101  Biso   1.000  O
  C175     1.0000 0.61636  0.78377  0.57836  Biso   1.000  C
  H59      1.0000 0.63270  0.77470  0.56920  Biso   1.000  H
  C176     1.0000 0.60476  0.80997  0.56677  Biso   1.000  C
  C177     1.0000 0.62013  0.82489  0.54084  Biso   1.000  C
  N117     1.0000 0.60595  0.72978  0.64066  Biso   1.000  N
  N118     1.0000 0.62504  0.70727  0.64520  Biso   1.000  N
  O119     1.0000 0.60802  0.34865  0.03108  Biso   1.000  O
  O120     1.0000 0.64347  0.31310  0.03101  Biso   1.000  O
  C178     1.0000 0.61636  0.28377  0.07836  Biso   1.000  C
  H60      1.0000 0.63270  0.27470  0.06920  Biso   1.000  H
  C179     1.0000 0.60476  0.30997  0.06677  Biso   1.000  C
  C180     1.0000 0.62013  0.32489  0.04084  Biso   1.000  C
  N119     1.0000 0.60595  0.22978  0.14066  Biso   1.000  N
  N120     1.0000 0.62504  0.20727  0.14520  Biso   1.000  N
  O121     1.0000 0.89198  0.15135  0.03108  Biso   1.000  O
  O122     1.0000 0.85653  0.18690  0.03101  Biso   1.000  O
  C181     1.0000 0.88364  0.21623  0.07836  Biso   1.000  C
  H61      1.0000 0.86730  0.22530  0.06920  Biso   1.000  H
  C182     1.0000 0.89524  0.19003  0.06677  Biso   1.000  C
  C183     1.0000 0.87987  0.17511  0.04084  Biso   1.000  C
  N121     1.0000 0.89405  0.27022  0.14066  Biso   1.000  N
  N122     1.0000 0.87496  0.29273  0.14520  Biso   1.000  N
  O123     1.0000 0.89198  0.65135  0.53108  Biso   1.000  O
  O124     1.0000 0.85653  0.68690  0.53101  Biso   1.000  O
  C184     1.0000 0.88364  0.71623  0.57836  Biso   1.000  C
  H62      1.0000 0.86730  0.72530  0.56920  Biso   1.000  H
  C185     1.0000 0.89524  0.69003  0.56677  Biso   1.000  C
  C186     1.0000 0.87987  0.67511  0.54084  Biso   1.000  C
  N123     1.0000 0.89405  0.77022  0.64066  Biso   1.000  N
  N124     1.0000 0.87496  0.79273  0.64520  Biso   1.000  N
  O125     1.0000 0.39198  0.15135  0.53108  Biso   1.000  O
  O126     1.0000 0.35653  0.18690  0.53101  Biso   1.000  O
  C187     1.0000 0.38364  0.21623  0.57836  Biso   1.000  C
  H63      1.0000 0.36730  0.22530  0.56920  Biso   1.000  H
  C188     1.0000 0.39524  0.19003  0.56677  Biso   1.000  C
  C189     1.0000 0.37987  0.17511  0.54084  Biso   1.000  C
  N125     1.0000 0.39405  0.27022  0.64066  Biso   1.000  N
  N126     1.0000 0.37496  0.29273  0.64520  Biso   1.000  N
  O127     1.0000 0.39198  0.65135  0.03108  Biso   1.000  O
  O128     1.0000 0.35653  0.68690  0.03101  Biso   1.000  O
  C190     1.0000 0.38364  0.71623  0.07836  Biso   1.000  C
  H64      1.0000 0.36730  0.72530  0.06920  Biso   1.000  H
  C191     1.0000 0.39524  0.69003  0.06677  Biso   1.000  C
  C192     1.0000 0.37987  0.67511  0.04084  Biso   1.000  C
  N127     1.0000 0.39405  0.77022  0.14066  Biso   1.000  N
  N128     1.0000 0.37496  0.79273  0.14520  Biso   1.000  N
  O129     1.0000 0.15135  0.03108  0.89198  Biso   1.000  O
  O130     1.0000 0.18690  0.03101  0.85653  Biso   1.000  O
  C193     1.0000 0.21623  0.07836  0.88364  Biso   1.000  C
  H65      1.0000 0.22530  0.06920  0.86730  Biso   1.000  H
  C194     1.0000 0.19003  0.06677  0.89524  Biso   1.000  C
  C195     1.0000 0.17511  0.04084  0.87987  Biso   1.000  C
  N129     1.0000 0.27022  0.14066  0.89405  Biso   1.000  N
  N130     1.0000 0.29273  0.14520  0.87496  Biso   1.000  N
  O131     1.0000 0.15135  0.53108  0.39198  Biso   1.000  O
  O132     1.0000 0.18690  0.53101  0.35653  Biso   1.000  O
  C196     1.0000 0.21623  0.57836  0.38364  Biso   1.000  C
  H66      1.0000 0.22530  0.56920  0.36730  Biso   1.000  H
  C197     1.0000 0.19003  0.56677  0.39524  Biso   1.000  C
  C198     1.0000 0.17511  0.54084  0.37987  Biso   1.000  C
  N131     1.0000 0.27022  0.64066  0.39405  Biso   1.000  N
  N132     1.0000 0.29273  0.64520  0.37496  Biso   1.000  N
  O133     1.0000 0.65135  0.03108  0.39198  Biso   1.000  O
  O134     1.0000 0.68690  0.03101  0.35653  Biso   1.000  O
  C199     1.0000 0.71623  0.07836  0.38364  Biso   1.000  C
  H67      1.0000 0.72530  0.06920  0.36730  Biso   1.000  H
  C200     1.0000 0.69003  0.06677  0.39524  Biso   1.000  C
  C201     1.0000 0.67511  0.04084  0.37987  Biso   1.000  C
  N133     1.0000 0.77022  0.14066  0.39405  Biso   1.000  N
  N134     1.0000 0.79273  0.14520  0.37496  Biso   1.000  N
  O135     1.0000 0.65135  0.53108  0.89198  Biso   1.000  O
  O136     1.0000 0.68690  0.53101  0.85653  Biso   1.000  O
  C202     1.0000 0.71623  0.57836  0.88364  Biso   1.000  C
  H68      1.0000 0.72530  0.56920  0.86730  Biso   1.000  H
  C203     1.0000 0.69003  0.56677  0.89524  Biso   1.000  C
  C204     1.0000 0.67511  0.54084  0.87987  Biso   1.000  C
  N135     1.0000 0.77022  0.64066  0.89405  Biso   1.000  N
  N136     1.0000 0.79273  0.64520  0.87496  Biso   1.000  N
  O137     1.0000 0.84865  0.03108  0.10802  Biso   1.000  O
  O138     1.0000 0.81310  0.03101  0.14347  Biso   1.000  O
  C205     1.0000 0.78377  0.07836  0.11636  Biso   1.000  C
  H69      1.0000 0.77470  0.06920  0.13270  Biso   1.000  H
  C206     1.0000 0.80997  0.06677  0.10476  Biso   1.000  C
  C207     1.0000 0.82489  0.04084  0.12013  Biso   1.000  C
  N137     1.0000 0.72978  0.14066  0.10595  Biso   1.000  N
  N138     1.0000 0.70727  0.14520  0.12504  Biso   1.000  N
  O139     1.0000 0.84865  0.53108  0.60802  Biso   1.000  O
  O140     1.0000 0.81310  0.53101  0.64347  Biso   1.000  O
  C208     1.0000 0.78377  0.57836  0.61636  Biso   1.000  C
  H70      1.0000 0.77470  0.56920  0.63270  Biso   1.000  H
  C209     1.0000 0.80997  0.56677  0.60476  Biso   1.000  C
  C210     1.0000 0.82489  0.54084  0.62013  Biso   1.000  C
  N139     1.0000 0.72978  0.64066  0.60595  Biso   1.000  N
  N140     1.0000 0.70727  0.64520  0.62504  Biso   1.000  N
  O141     1.0000 0.34865  0.03108  0.60802  Biso   1.000  O
  O142     1.0000 0.31310  0.03101  0.64347  Biso   1.000  O
  C211     1.0000 0.28377  0.07836  0.61636  Biso   1.000  C
  H71      1.0000 0.27470  0.06920  0.63270  Biso   1.000  H
  C212     1.0000 0.30997  0.06677  0.60476  Biso   1.000  C
  C213     1.0000 0.32489  0.04084  0.62013  Biso   1.000  C
  N141     1.0000 0.22978  0.14066  0.60595  Biso   1.000  N
  N142     1.0000 0.20727  0.14520  0.62504  Biso   1.000  N
  O143     1.0000 0.34865  0.53108  0.10802  Biso   1.000  O
  O144     1.0000 0.31310  0.53101  0.14347  Biso   1.000  O
  C214     1.0000 0.28377  0.57836  0.11636  Biso   1.000  C
  H72      1.0000 0.27470  0.56920  0.13270  Biso   1.000  H
  C215     1.0000 0.30997  0.56677  0.10476  Biso   1.000  C
  C216     1.0000 0.32489  0.54084  0.12013  Biso   1.000  C
  N143     1.0000 0.22978  0.64066  0.10595  Biso   1.000  N
  N144     1.0000 0.20727  0.64520  0.12504  Biso   1.000  N
  O145     1.0000 0.84865  0.96892  0.89198  Biso   1.000  O
  O146     1.0000 0.81310  0.96899  0.85653  Biso   1.000  O
  C217     1.0000 0.78377  0.92164  0.88364  Biso   1.000  C
  H73      1.0000 0.77470  0.93080  0.86730  Biso   1.000  H
  C218     1.0000 0.80997  0.93323  0.89524  Biso   1.000  C
  C219     1.0000 0.82489  0.95916  0.87987  Biso   1.000  C
  N145     1.0000 0.72978  0.85934  0.89405  Biso   1.000  N
  N146     1.0000 0.70727  0.85480  0.87496  Biso   1.000  N
  O147     1.0000 0.84865  0.46892  0.39198  Biso   1.000  O
  O148     1.0000 0.81310  0.46899  0.35653  Biso   1.000  O
  C220     1.0000 0.78377  0.42164  0.38364  Biso   1.000  C
  H74      1.0000 0.77470  0.43080  0.36730  Biso   1.000  H
  C221     1.0000 0.80997  0.43323  0.39524  Biso   1.000  C
  C222     1.0000 0.82489  0.45916  0.37987  Biso   1.000  C
  N147     1.0000 0.72978  0.35934  0.39405  Biso   1.000  N
  N148     1.0000 0.70727  0.35480  0.37496  Biso   1.000  N
  O149     1.0000 0.34865  0.96892  0.39198  Biso   1.000  O
  O150     1.0000 0.31310  0.96899  0.35653  Biso   1.000  O
  C223     1.0000 0.28377  0.92164  0.38364  Biso   1.000  C
  H75      1.0000 0.27470  0.93080  0.36730  Biso   1.000  H
  C224     1.0000 0.30997  0.93323  0.39524  Biso   1.000  C
  C225     1.0000 0.32489  0.95916  0.37987  Biso   1.000  C
  N149     1.0000 0.22978  0.85934  0.39405  Biso   1.000  N
  N150     1.0000 0.20727  0.85480  0.37496  Biso   1.000  N
  O151     1.0000 0.34865  0.46892  0.89198  Biso   1.000  O
  O152     1.0000 0.31310  0.46899  0.85653  Biso   1.000  O
  C226     1.0000 0.28377  0.42164  0.88364  Biso   1.000  C
  H76      1.0000 0.27470  0.43080  0.86730  Biso   1.000  H
  C227     1.0000 0.30997  0.43323  0.89524  Biso   1.000  C
  C228     1.0000 0.32489  0.45916  0.87987  Biso   1.000  C
  N151     1.0000 0.22978  0.35934  0.89405  Biso   1.000  N
  N152     1.0000 0.20727  0.35480  0.87496  Biso   1.000  N
  O153     1.0000 0.15135  0.96892  0.10802  Biso   1.000  O
  O154     1.0000 0.18690  0.96899  0.14347  Biso   1.000  O
  C229     1.0000 0.21623  0.92164  0.11636  Biso   1.000  C
  H77      1.0000 0.22530  0.93080  0.13270  Biso   1.000  H
  C230     1.0000 0.19003  0.93323  0.10476  Biso   1.000  C
  C231     1.0000 0.17511  0.95916  0.12013  Biso   1.000  C
  N153     1.0000 0.27022  0.85934  0.10595  Biso   1.000  N
  N154     1.0000 0.29273  0.85480  0.12504  Biso   1.000  N
  O155     1.0000 0.15135  0.46892  0.60802  Biso   1.000  O
  O156     1.0000 0.18690  0.46899  0.64347  Biso   1.000  O
  C232     1.0000 0.21623  0.42164  0.61636  Biso   1.000  C
  H78      1.0000 0.22530  0.43080  0.63270  Biso   1.000  H
  C233     1.0000 0.19003  0.43323  0.60476  Biso   1.000  C
  C234     1.0000 0.17511  0.45916  0.62013  Biso   1.000  C
  N155     1.0000 0.27022  0.35934  0.60595  Biso   1.000  N
  N156     1.0000 0.29273  0.35480  0.62504  Biso   1.000  N
  O157     1.0000 0.65135  0.96892  0.60802  Biso   1.000  O
  O158     1.0000 0.68690  0.96899  0.64347  Biso   1.000  O
  C235     1.0000 0.71623  0.92164  0.61636  Biso   1.000  C
  H79      1.0000 0.72530  0.93080  0.63270  Biso   1.000  H
  C236     1.0000 0.69003  0.93323  0.60476  Biso   1.000  C
  C237     1.0000 0.67511  0.95916  0.62013  Biso   1.000  C
  N157     1.0000 0.77022  0.85934  0.60595  Biso   1.000  N
  N158     1.0000 0.79273  0.85480  0.62504  Biso   1.000  N
  O159     1.0000 0.65135  0.46892  0.10802  Biso   1.000  O
  O160     1.0000 0.68690  0.46899  0.14347  Biso   1.000  O
  C238     1.0000 0.71623  0.42164  0.11636  Biso   1.000  C
  H80      1.0000 0.72530  0.43080  0.13270  Biso   1.000  H
  C239     1.0000 0.69003  0.43323  0.10476  Biso   1.000  C
  C240     1.0000 0.67511  0.45916  0.12013  Biso   1.000  C
  N159     1.0000 0.77022  0.35934  0.10595  Biso   1.000  N
  N160     1.0000 0.79273  0.35480  0.12504  Biso   1.000  N
  O161     1.0000 0.03108  0.10802  0.84865  Biso   1.000  O
  O162     1.0000 0.03101  0.14347  0.81310  Biso   1.000  O
  C241     1.0000 0.07836  0.11636  0.78377  Biso   1.000  C
  H81      1.0000 0.06920  0.13270  0.77470  Biso   1.000  H
  C242     1.0000 0.06677  0.10476  0.80997  Biso   1.000  C
  C243     1.0000 0.04084  0.12013  0.82489  Biso   1.000  C
  N161     1.0000 0.14066  0.10595  0.72978  Biso   1.000  N
  N162     1.0000 0.14520  0.12504  0.70727  Biso   1.000  N
  O163     1.0000 0.03108  0.60802  0.34865  Biso   1.000  O
  O164     1.0000 0.03101  0.64347  0.31310  Biso   1.000  O
  C244     1.0000 0.07836  0.61636  0.28377  Biso   1.000  C
  H82      1.0000 0.06920  0.63270  0.27470  Biso   1.000  H
  C245     1.0000 0.06677  0.60476  0.30997  Biso   1.000  C
  C246     1.0000 0.04084  0.62013  0.32489  Biso   1.000  C
  N163     1.0000 0.14066  0.60595  0.22978  Biso   1.000  N
  N164     1.0000 0.14520  0.62504  0.20727  Biso   1.000  N
  O165     1.0000 0.53108  0.10802  0.34865  Biso   1.000  O
  O166     1.0000 0.53101  0.14347  0.31310  Biso   1.000  O
  C247     1.0000 0.57836  0.11636  0.28377  Biso   1.000  C
  H83      1.0000 0.56920  0.13270  0.27470  Biso   1.000  H
  C248     1.0000 0.56677  0.10476  0.30997  Biso   1.000  C
  C249     1.0000 0.54084  0.12013  0.32489  Biso   1.000  C
  N165     1.0000 0.64066  0.10595  0.22978  Biso   1.000  N
  N166     1.0000 0.64520  0.12504  0.20727  Biso   1.000  N
  O167     1.0000 0.53108  0.60802  0.84865  Biso   1.000  O
  O168     1.0000 0.53101  0.64347  0.81310  Biso   1.000  O
  C250     1.0000 0.57836  0.61636  0.78377  Biso   1.000  C
  H84      1.0000 0.56920  0.63270  0.77470  Biso   1.000  H
  C251     1.0000 0.56677  0.60476  0.80997  Biso   1.000  C
  C252     1.0000 0.54084  0.62013  0.82489  Biso   1.000  C
  N167     1.0000 0.64066  0.60595  0.72978  Biso   1.000  N
  N168     1.0000 0.64520  0.62504  0.70727  Biso   1.000  N
  O169     1.0000 0.03108  0.89198  0.15135  Biso   1.000  O
  O170     1.0000 0.03101  0.85653  0.18690  Biso   1.000  O
  C253     1.0000 0.07836  0.88364  0.21623  Biso   1.000  C
  H85      1.0000 0.06920  0.86730  0.22530  Biso   1.000  H
  C254     1.0000 0.06677  0.89524  0.19003  Biso   1.000  C
  C255     1.0000 0.04084  0.87987  0.17511  Biso   1.000  C
  N169     1.0000 0.14066  0.89405  0.27022  Biso   1.000  N
  N170     1.0000 0.14520  0.87496  0.29273  Biso   1.000  N
  O171     1.0000 0.03108  0.39198  0.65135  Biso   1.000  O
  O172     1.0000 0.03101  0.35653  0.68690  Biso   1.000  O
  C256     1.0000 0.07836  0.38364  0.71623  Biso   1.000  C
  H86      1.0000 0.06920  0.36730  0.72530  Biso   1.000  H
  C257     1.0000 0.06677  0.39524  0.69003  Biso   1.000  C
  C258     1.0000 0.04084  0.37987  0.67511  Biso   1.000  C
  N171     1.0000 0.14066  0.39405  0.77022  Biso   1.000  N
  N172     1.0000 0.14520  0.37496  0.79273  Biso   1.000  N
  O173     1.0000 0.53108  0.89198  0.65135  Biso   1.000  O
  O174     1.0000 0.53101  0.85653  0.68690  Biso   1.000  O
  C259     1.0000 0.57836  0.88364  0.71623  Biso   1.000  C
  H87      1.0000 0.56920  0.86730  0.72530  Biso   1.000  H
  C260     1.0000 0.56677  0.89524  0.69003  Biso   1.000  C
  C261     1.0000 0.54084  0.87987  0.67511  Biso   1.000  C
  N173     1.0000 0.64066  0.89405  0.77022  Biso   1.000  N
  N174     1.0000 0.64520  0.87496  0.79273  Biso   1.000  N
  O175     1.0000 0.53108  0.39198  0.15135  Biso   1.000  O
  O176     1.0000 0.53101  0.35653  0.18690  Biso   1.000  O
  C262     1.0000 0.57836  0.38364  0.21623  Biso   1.000  C
  H88      1.0000 0.56920  0.36730  0.22530  Biso   1.000  H
  C263     1.0000 0.56677  0.39524  0.19003  Biso   1.000  C
  C264     1.0000 0.54084  0.37987  0.17511  Biso   1.000  C
  N175     1.0000 0.64066  0.39405  0.27022  Biso   1.000  N
  N176     1.0000 0.64520  0.37496  0.29273  Biso   1.000  N
  O177     1.0000 0.96892  0.10802  0.15135  Biso   1.000  O
  O178     1.0000 0.96899  0.14347  0.18690  Biso   1.000  O
  C265     1.0000 0.92164  0.11636  0.21623  Biso   1.000  C
  H89      1.0000 0.93080  0.13270  0.22530  Biso   1.000  H
  C266     1.0000 0.93323  0.10476  0.19003  Biso   1.000  C
  C267     1.0000 0.95916  0.12013  0.17511  Biso   1.000  C
  N177     1.0000 0.85934  0.10595  0.27022  Biso   1.000  N
  N178     1.0000 0.85480  0.12504  0.29273  Biso   1.000  N
  O179     1.0000 0.96892  0.60802  0.65135  Biso   1.000  O
  O180     1.0000 0.96899  0.64347  0.68690  Biso   1.000  O
  C268     1.0000 0.92164  0.61636  0.71623  Biso   1.000  C
  H90      1.0000 0.93080  0.63270  0.72530  Biso   1.000  H
  C269     1.0000 0.93323  0.60476  0.69003  Biso   1.000  C
  C270     1.0000 0.95916  0.62013  0.67511  Biso   1.000  C
  N179     1.0000 0.85934  0.60595  0.77022  Biso   1.000  N
  N180     1.0000 0.85480  0.62504  0.79273  Biso   1.000  N
  O181     1.0000 0.46892  0.10802  0.65135  Biso   1.000  O
  O182     1.0000 0.46899  0.14347  0.68690  Biso   1.000  O
  C271     1.0000 0.42164  0.11636  0.71623  Biso   1.000  C
  H91      1.0000 0.43080  0.13270  0.72530  Biso   1.000  H
  C272     1.0000 0.43323  0.10476  0.69003  Biso   1.000  C
  C273     1.0000 0.45916  0.12013  0.67511  Biso   1.000  C
  N181     1.0000 0.35934  0.10595  0.77022  Biso   1.000  N
  N182     1.0000 0.35480  0.12504  0.79273  Biso   1.000  N
  O183     1.0000 0.46892  0.60802  0.15135  Biso   1.000  O
  O184     1.0000 0.46899  0.64347  0.18690  Biso   1.000  O
  C274     1.0000 0.42164  0.61636  0.21623  Biso   1.000  C
  H92      1.0000 0.43080  0.63270  0.22530  Biso   1.000  H
  C275     1.0000 0.43323  0.60476  0.19003  Biso   1.000  C
  C276     1.0000 0.45916  0.62013  0.17511  Biso   1.000  C
  N183     1.0000 0.35934  0.60595  0.27022  Biso   1.000  N
  N184     1.0000 0.35480  0.62504  0.29273  Biso   1.000  N
  O185     1.0000 0.96892  0.89198  0.84865  Biso   1.000  O
  O186     1.0000 0.96899  0.85653  0.81310  Biso   1.000  O
  C277     1.0000 0.92164  0.88364  0.78377  Biso   1.000  C
  H93      1.0000 0.93080  0.86730  0.77470  Biso   1.000  H
  C278     1.0000 0.93323  0.89524  0.80997  Biso   1.000  C
  C279     1.0000 0.95916  0.87987  0.82489  Biso   1.000  C
  N185     1.0000 0.85934  0.89405  0.72978  Biso   1.000  N
  N186     1.0000 0.85480  0.87496  0.70727  Biso   1.000  N
  O187     1.0000 0.96892  0.39198  0.34865  Biso   1.000  O
  O188     1.0000 0.96899  0.35653  0.31310  Biso   1.000  O
  C280     1.0000 0.92164  0.38364  0.28377  Biso   1.000  C
  H94      1.0000 0.93080  0.36730  0.27470  Biso   1.000  H
  C281     1.0000 0.93323  0.39524  0.30997  Biso   1.000  C
  C282     1.0000 0.95916  0.37987  0.32489  Biso   1.000  C
  N187     1.0000 0.85934  0.39405  0.22978  Biso   1.000  N
  N188     1.0000 0.85480  0.37496  0.20727  Biso   1.000  N
  O189     1.0000 0.46892  0.89198  0.34865  Biso   1.000  O
  O190     1.0000 0.46899  0.85653  0.31310  Biso   1.000  O
  C283     1.0000 0.42164  0.88364  0.28377  Biso   1.000  C
  H95      1.0000 0.43080  0.86730  0.27470  Biso   1.000  H
  C284     1.0000 0.43323  0.89524  0.30997  Biso   1.000  C
  C285     1.0000 0.45916  0.87987  0.32489  Biso   1.000  C
  N189     1.0000 0.35934  0.89405  0.22978  Biso   1.000  N
  N190     1.0000 0.35480  0.87496  0.20727  Biso   1.000  N
  O191     1.0000 0.46892  0.39198  0.84865  Biso   1.000  O
  O192     1.0000 0.46899  0.35653  0.81310  Biso   1.000  O
  C286     1.0000 0.42164  0.38364  0.78377  Biso   1.000  C
  H96      1.0000 0.43080  0.36730  0.77470  Biso   1.000  H
  C287     1.0000 0.43323  0.39524  0.80997  Biso   1.000  C
  C288     1.0000 0.45916  0.37987  0.82489  Biso   1.000  C
  N191     1.0000 0.35934  0.39405  0.72978  Biso   1.000  N
  N192     1.0000 0.35480  0.37496  0.70727  Biso   1.000  N
  O193     1.0000 0.84865  0.89198  0.96892  Biso   1.000  O
  O194     1.0000 0.81310  0.85653  0.96899  Biso   1.000  O
  C289     1.0000 0.78377  0.88364  0.92164  Biso   1.000  C
  H97      1.0000 0.77470  0.86730  0.93080  Biso   1.000  H
  C290     1.0000 0.80997  0.89524  0.93323  Biso   1.000  C
  C291     1.0000 0.82489  0.87987  0.95916  Biso   1.000  C
  N193     1.0000 0.72978  0.89405  0.85934  Biso   1.000  N
  N194     1.0000 0.70727  0.87496  0.85480  Biso   1.000  N
  O195     1.0000 0.84865  0.39198  0.46892  Biso   1.000  O
  O196     1.0000 0.81310  0.35653  0.46899  Biso   1.000  O
  C292     1.0000 0.78377  0.38364  0.42164  Biso   1.000  C
  H98      1.0000 0.77470  0.36730  0.43080  Biso   1.000  H
  C293     1.0000 0.80997  0.39524  0.43323  Biso   1.000  C
  C294     1.0000 0.82489  0.37987  0.45916  Biso   1.000  C
  N195     1.0000 0.72978  0.39405  0.35934  Biso   1.000  N
  N196     1.0000 0.70727  0.37496  0.35480  Biso   1.000  N
  O197     1.0000 0.34865  0.89198  0.46892  Biso   1.000  O
  O198     1.0000 0.31310  0.85653  0.46899  Biso   1.000  O
  C295     1.0000 0.28377  0.88364  0.42164  Biso   1.000  C
  H99      1.0000 0.27470  0.86730  0.43080  Biso   1.000  H
  C296     1.0000 0.30997  0.89524  0.43323  Biso   1.000  C
  C297     1.0000 0.32489  0.87987  0.45916  Biso   1.000  C
  N197     1.0000 0.22978  0.89405  0.35934  Biso   1.000  N
  N198     1.0000 0.20727  0.87496  0.35480  Biso   1.000  N
  O199     1.0000 0.34865  0.39198  0.96892  Biso   1.000  O
  O200     1.0000 0.31310  0.35653  0.96899  Biso   1.000  O
  C298     1.0000 0.28377  0.38364  0.92164  Biso   1.000  C
  H100     1.0000 0.27470  0.36730  0.93080  Biso   1.000  H
  C299     1.0000 0.30997  0.39524  0.93323  Biso   1.000  C
  C300     1.0000 0.32489  0.37987  0.95916  Biso   1.000  C
  N199     1.0000 0.22978  0.39405  0.85934  Biso   1.000  N
  N200     1.0000 0.20727  0.37496  0.85480  Biso   1.000  N
  O201     1.0000 0.15135  0.10802  0.96892  Biso   1.000  O
  O202     1.0000 0.18690  0.14347  0.96899  Biso   1.000  O
  C301     1.0000 0.21623  0.11636  0.92164  Biso   1.000  C
  H101     1.0000 0.22530  0.13270  0.93080  Biso   1.000  H
  C302     1.0000 0.19003  0.10476  0.93323  Biso   1.000  C
  C303     1.0000 0.17511  0.12013  0.95916  Biso   1.000  C
  N201     1.0000 0.27022  0.10595  0.85934  Biso   1.000  N
  N202     1.0000 0.29273  0.12504  0.85480  Biso   1.000  N
  O203     1.0000 0.15135  0.60802  0.46892  Biso   1.000  O
  O204     1.0000 0.18690  0.64347  0.46899  Biso   1.000  O
  C304     1.0000 0.21623  0.61636  0.42164  Biso   1.000  C
  H102     1.0000 0.22530  0.63270  0.43080  Biso   1.000  H
  C305     1.0000 0.19003  0.60476  0.43323  Biso   1.000  C
  C306     1.0000 0.17511  0.62013  0.45916  Biso   1.000  C
  N203     1.0000 0.27022  0.60595  0.35934  Biso   1.000  N
  N204     1.0000 0.29273  0.62504  0.35480  Biso   1.000  N
  O205     1.0000 0.65135  0.10802  0.46892  Biso   1.000  O
  O206     1.0000 0.68690  0.14347  0.46899  Biso   1.000  O
  C307     1.0000 0.71623  0.11636  0.42164  Biso   1.000  C
  H103     1.0000 0.72530  0.13270  0.43080  Biso   1.000  H
  C308     1.0000 0.69003  0.10476  0.43323  Biso   1.000  C
  C309     1.0000 0.67511  0.12013  0.45916  Biso   1.000  C
  N205     1.0000 0.77022  0.10595  0.35934  Biso   1.000  N
  N206     1.0000 0.79273  0.12504  0.35480  Biso   1.000  N
  O207     1.0000 0.65135  0.60802  0.96892  Biso   1.000  O
  O208     1.0000 0.68690  0.64347  0.96899  Biso   1.000  O
  C310     1.0000 0.71623  0.61636  0.92164  Biso   1.000  C
  H104     1.0000 0.72530  0.63270  0.93080  Biso   1.000  H
  C311     1.0000 0.69003  0.60476  0.93323  Biso   1.000  C
  C312     1.0000 0.67511  0.62013  0.95916  Biso   1.000  C
  N207     1.0000 0.77022  0.60595  0.85934  Biso   1.000  N
  N208     1.0000 0.79273  0.62504  0.85480  Biso   1.000  N
  O209     1.0000 0.15135  0.89198  0.03108  Biso   1.000  O
  O210     1.0000 0.18690  0.85653  0.03101  Biso   1.000  O
  C313     1.0000 0.21623  0.88364  0.07836  Biso   1.000  C
  H105     1.0000 0.22530  0.86730  0.06920  Biso   1.000  H
  C314     1.0000 0.19003  0.89524  0.06677  Biso   1.000  C
  C315     1.0000 0.17511  0.87987  0.04084  Biso   1.000  C
  N209     1.0000 0.27022  0.89405  0.14066  Biso   1.000  N
  N210     1.0000 0.29273  0.87496  0.14520  Biso   1.000  N
  O211     1.0000 0.15135  0.39198  0.53108  Biso   1.000  O
  O212     1.0000 0.18690  0.35653  0.53101  Biso   1.000  O
  C316     1.0000 0.21623  0.38364  0.57836  Biso   1.000  C
  H106     1.0000 0.22530  0.36730  0.56920  Biso   1.000  H
  C317     1.0000 0.19003  0.39524  0.56677  Biso   1.000  C
  C318     1.0000 0.17511  0.37987  0.54084  Biso   1.000  C
  N211     1.0000 0.27022  0.39405  0.64066  Biso   1.000  N
  N212     1.0000 0.29273  0.37496  0.64520  Biso   1.000  N
  O213     1.0000 0.65135  0.89198  0.53108  Biso   1.000  O
  O214     1.0000 0.68690  0.85653  0.53101  Biso   1.000  O
  C319     1.0000 0.71623  0.88364  0.57836  Biso   1.000  C
  H107     1.0000 0.72530  0.86730  0.56920  Biso   1.000  H
  C320     1.0000 0.69003  0.89524  0.56677  Biso   1.000  C
  C321     1.0000 0.67511  0.87987  0.54084  Biso   1.000  C
  N213     1.0000 0.77022  0.89405  0.64066  Biso   1.000  N
  N214     1.0000 0.79273  0.87496  0.64520  Biso   1.000  N
  O215     1.0000 0.65135  0.39198  0.03108  Biso   1.000  O
  O216     1.0000 0.68690  0.35653  0.03101  Biso   1.000  O
  C322     1.0000 0.71623  0.38364  0.07836  Biso   1.000  C
  H108     1.0000 0.72530  0.36730  0.06920  Biso   1.000  H
  C323     1.0000 0.69003  0.39524  0.06677  Biso   1.000  C
  C324     1.0000 0.67511  0.37987  0.04084  Biso   1.000  C
  N215     1.0000 0.77022  0.39405  0.14066  Biso   1.000  N
  N216     1.0000 0.79273  0.37496  0.14520  Biso   1.000  N
  O217     1.0000 0.84865  0.10802  0.03108  Biso   1.000  O
  O218     1.0000 0.81310  0.14347  0.03101  Biso   1.000  O
  C325     1.0000 0.78377  0.11636  0.07836  Biso   1.000  C
  H109     1.0000 0.77470  0.13270  0.06920  Biso   1.000  H
  C326     1.0000 0.80997  0.10476  0.06677  Biso   1.000  C
  C327     1.0000 0.82489  0.12013  0.04084  Biso   1.000  C
  N217     1.0000 0.72978  0.10595  0.14066  Biso   1.000  N
  N218     1.0000 0.70727  0.12504  0.14520  Biso   1.000  N
  O219     1.0000 0.84865  0.60802  0.53108  Biso   1.000  O
  O220     1.0000 0.81310  0.64347  0.53101  Biso   1.000  O
  C328     1.0000 0.78377  0.61636  0.57836  Biso   1.000  C
  H110     1.0000 0.77470  0.63270  0.56920  Biso   1.000  H
  C329     1.0000 0.80997  0.60476  0.56677  Biso   1.000  C
  C330     1.0000 0.82489  0.62013  0.54084  Biso   1.000  C
  N219     1.0000 0.72978  0.60595  0.64066  Biso   1.000  N
  N220     1.0000 0.70727  0.62504  0.64520  Biso   1.000  N
  O221     1.0000 0.34865  0.10802  0.53108  Biso   1.000  O
  O222     1.0000 0.31310  0.14347  0.53101  Biso   1.000  O
  C331     1.0000 0.28377  0.11636  0.57836  Biso   1.000  C
  H111     1.0000 0.27470  0.13270  0.56920  Biso   1.000  H
  C332     1.0000 0.30997  0.10476  0.56677  Biso   1.000  C
  C333     1.0000 0.32489  0.12013  0.54084  Biso   1.000  C
  N221     1.0000 0.22978  0.10595  0.64066  Biso   1.000  N
  N222     1.0000 0.20727  0.12504  0.64520  Biso   1.000  N
  O223     1.0000 0.34865  0.60802  0.03108  Biso   1.000  O
  O224     1.0000 0.31310  0.64347  0.03101  Biso   1.000  O
  C334     1.0000 0.28377  0.61636  0.07836  Biso   1.000  C
  H112     1.0000 0.27470  0.63270  0.06920  Biso   1.000  H
  C335     1.0000 0.30997  0.60476  0.06677  Biso   1.000  C
  C336     1.0000 0.32489  0.62013  0.04084  Biso   1.000  C
  N223     1.0000 0.22978  0.60595  0.14066  Biso   1.000  N
  N224     1.0000 0.20727  0.62504  0.14520  Biso   1.000  N
  O225     1.0000 0.96892  0.84865  0.89198  Biso   1.000  O
  O226     1.0000 0.96899  0.81310  0.85653  Biso   1.000  O
  C337     1.0000 0.92164  0.78377  0.88364  Biso   1.000  C
  H113     1.0000 0.93080  0.77470  0.86730  Biso   1.000  H
  C338     1.0000 0.93323  0.80997  0.89524  Biso   1.000  C
  C339     1.0000 0.95916  0.82489  0.87987  Biso   1.000  C
  N225     1.0000 0.85934  0.72978  0.89405  Biso   1.000  N
  N226     1.0000 0.85480  0.70727  0.87496  Biso   1.000  N
  O227     1.0000 0.96892  0.34865  0.39198  Biso   1.000  O
  O228     1.0000 0.96899  0.31310  0.35653  Biso   1.000  O
  C340     1.0000 0.92164  0.28377  0.38364  Biso   1.000  C
  H114     1.0000 0.93080  0.27470  0.36730  Biso   1.000  H
  C341     1.0000 0.93323  0.30997  0.39524  Biso   1.000  C
  C342     1.0000 0.95916  0.32489  0.37987  Biso   1.000  C
  N227     1.0000 0.85934  0.22978  0.39405  Biso   1.000  N
  N228     1.0000 0.85480  0.20727  0.37496  Biso   1.000  N
  O229     1.0000 0.46892  0.84865  0.39198  Biso   1.000  O
  O230     1.0000 0.46899  0.81310  0.35653  Biso   1.000  O
  C343     1.0000 0.42164  0.78377  0.38364  Biso   1.000  C
  H115     1.0000 0.43080  0.77470  0.36730  Biso   1.000  H
  C344     1.0000 0.43323  0.80997  0.39524  Biso   1.000  C
  C345     1.0000 0.45916  0.82489  0.37987  Biso   1.000  C
  N229     1.0000 0.35934  0.72978  0.39405  Biso   1.000  N
  N230     1.0000 0.35480  0.70727  0.37496  Biso   1.000  N
  O231     1.0000 0.46892  0.34865  0.89198  Biso   1.000  O
  O232     1.0000 0.46899  0.31310  0.85653  Biso   1.000  O
  C346     1.0000 0.42164  0.28377  0.88364  Biso   1.000  C
  H116     1.0000 0.43080  0.27470  0.86730  Biso   1.000  H
  C347     1.0000 0.43323  0.30997  0.89524  Biso   1.000  C
  C348     1.0000 0.45916  0.32489  0.87987  Biso   1.000  C
  N231     1.0000 0.35934  0.22978  0.89405  Biso   1.000  N
  N232     1.0000 0.35480  0.20727  0.87496  Biso   1.000  N
  O233     1.0000 0.96892  0.15135  0.10802  Biso   1.000  O
  O234     1.0000 0.96899  0.18690  0.14347  Biso   1.000  O
  C349     1.0000 0.92164  0.21623  0.11636  Biso   1.000  C
  H117     1.0000 0.93080  0.22530  0.13270  Biso   1.000  H
  C350     1.0000 0.93323  0.19003  0.10476  Biso   1.000  C
  C351     1.0000 0.95916  0.17511  0.12013  Biso   1.000  C
  N233     1.0000 0.85934  0.27022  0.10595  Biso   1.000  N
  N234     1.0000 0.85480  0.29273  0.12504  Biso   1.000  N
  O235     1.0000 0.96892  0.65135  0.60802  Biso   1.000  O
  O236     1.0000 0.96899  0.68690  0.64347  Biso   1.000  O
  C352     1.0000 0.92164  0.71623  0.61636  Biso   1.000  C
  H118     1.0000 0.93080  0.72530  0.63270  Biso   1.000  H
  C353     1.0000 0.93323  0.69003  0.60476  Biso   1.000  C
  C354     1.0000 0.95916  0.67511  0.62013  Biso   1.000  C
  N235     1.0000 0.85934  0.77022  0.60595  Biso   1.000  N
  N236     1.0000 0.85480  0.79273  0.62504  Biso   1.000  N
  O237     1.0000 0.46892  0.15135  0.60802  Biso   1.000  O
  O238     1.0000 0.46899  0.18690  0.64347  Biso   1.000  O
  C355     1.0000 0.42164  0.21623  0.61636  Biso   1.000  C
  H119     1.0000 0.43080  0.22530  0.63270  Biso   1.000  H
  C356     1.0000 0.43323  0.19003  0.60476  Biso   1.000  C
  C357     1.0000 0.45916  0.17511  0.62013  Biso   1.000  C
  N237     1.0000 0.35934  0.27022  0.60595  Biso   1.000  N
  N238     1.0000 0.35480  0.29273  0.62504  Biso   1.000  N
  O239     1.0000 0.46892  0.65135  0.10802  Biso   1.000  O
  O240     1.0000 0.46899  0.68690  0.14347  Biso   1.000  O
  C358     1.0000 0.42164  0.71623  0.11636  Biso   1.000  C
  H120     1.0000 0.43080  0.72530  0.13270  Biso   1.000  H
  C359     1.0000 0.43323  0.69003  0.10476  Biso   1.000  C
  C360     1.0000 0.45916  0.67511  0.12013  Biso   1.000  C
  N239     1.0000 0.35934  0.77022  0.10595  Biso   1.000  N
  N240     1.0000 0.35480  0.79273  0.12504  Biso   1.000  N
  O241     1.0000 0.03108  0.15135  0.89198  Biso   1.000  O
  O242     1.0000 0.03101  0.18690  0.85653  Biso   1.000  O
  C361     1.0000 0.07836  0.21623  0.88364  Biso   1.000  C
  H121     1.0000 0.06920  0.22530  0.86730  Biso   1.000  H
  C362     1.0000 0.06677  0.19003  0.89524  Biso   1.000  C
  C363     1.0000 0.04084  0.17511  0.87987  Biso   1.000  C
  N241     1.0000 0.14066  0.27022  0.89405  Biso   1.000  N
  N242     1.0000 0.14520  0.29273  0.87496  Biso   1.000  N
  O243     1.0000 0.03108  0.65135  0.39198  Biso   1.000  O
  O244     1.0000 0.03101  0.68690  0.35653  Biso   1.000  O
  C364     1.0000 0.07836  0.71623  0.38364  Biso   1.000  C
  H122     1.0000 0.06920  0.72530  0.36730  Biso   1.000  H
  C365     1.0000 0.06677  0.69003  0.39524  Biso   1.000  C
  C366     1.0000 0.04084  0.67511  0.37987  Biso   1.000  C
  N243     1.0000 0.14066  0.77022  0.39405  Biso   1.000  N
  N244     1.0000 0.14520  0.79273  0.37496  Biso   1.000  N
  O245     1.0000 0.53108  0.15135  0.39198  Biso   1.000  O
  O246     1.0000 0.53101  0.18690  0.35653  Biso   1.000  O
  C367     1.0000 0.57836  0.21623  0.38364  Biso   1.000  C
  H123     1.0000 0.56920  0.22530  0.36730  Biso   1.000  H
  C368     1.0000 0.56677  0.19003  0.39524  Biso   1.000  C
  C369     1.0000 0.54084  0.17511  0.37987  Biso   1.000  C
  N245     1.0000 0.64066  0.27022  0.39405  Biso   1.000  N
  N246     1.0000 0.64520  0.29273  0.37496  Biso   1.000  N
  O247     1.0000 0.53108  0.65135  0.89198  Biso   1.000  O
  O248     1.0000 0.53101  0.68690  0.85653  Biso   1.000  O
  C370     1.0000 0.57836  0.71623  0.88364  Biso   1.000  C
  H124     1.0000 0.56920  0.72530  0.86730  Biso   1.000  H
  C371     1.0000 0.56677  0.69003  0.89524  Biso   1.000  C
  C372     1.0000 0.54084  0.67511  0.87987  Biso   1.000  C
  N247     1.0000 0.64066  0.77022  0.89405  Biso   1.000  N
  N248     1.0000 0.64520  0.79273  0.87496  Biso   1.000  N
  O249     1.0000 0.03108  0.84865  0.10802  Biso   1.000  O
  O250     1.0000 0.03101  0.81310  0.14347  Biso   1.000  O
  C373     1.0000 0.07836  0.78377  0.11636  Biso   1.000  C
  H125     1.0000 0.06920  0.77470  0.13270  Biso   1.000  H
  C374     1.0000 0.06677  0.80997  0.10476  Biso   1.000  C
  C375     1.0000 0.04084  0.82489  0.12013  Biso   1.000  C
  N249     1.0000 0.14066  0.72978  0.10595  Biso   1.000  N
  N250     1.0000 0.14520  0.70727  0.12504  Biso   1.000  N
  O251     1.0000 0.03108  0.34865  0.60802  Biso   1.000  O
  O252     1.0000 0.03101  0.31310  0.64347  Biso   1.000  O
  C376     1.0000 0.07836  0.28377  0.61636  Biso   1.000  C
  H126     1.0000 0.06920  0.27470  0.63270  Biso   1.000  H
  C377     1.0000 0.06677  0.30997  0.60476  Biso   1.000  C
  C378     1.0000 0.04084  0.32489  0.62013  Biso   1.000  C
  N251     1.0000 0.14066  0.22978  0.60595  Biso   1.000  N
  N252     1.0000 0.14520  0.20727  0.62504  Biso   1.000  N
  O253     1.0000 0.53108  0.84865  0.60802  Biso   1.000  O
  O254     1.0000 0.53101  0.81310  0.64347  Biso   1.000  O
  C379     1.0000 0.57836  0.78377  0.61636  Biso   1.000  C
  H127     1.0000 0.56920  0.77470  0.63270  Biso   1.000  H
  C380     1.0000 0.56677  0.80997  0.60476  Biso   1.000  C
  C381     1.0000 0.54084  0.82489  0.62013  Biso   1.000  C
  N253     1.0000 0.64066  0.72978  0.60595  Biso   1.000  N
  N254     1.0000 0.64520  0.70727  0.62504  Biso   1.000  N
  O255     1.0000 0.53108  0.34865  0.10802  Biso   1.000  O
  O256     1.0000 0.53101  0.31310  0.14347  Biso   1.000  O
  C382     1.0000 0.57836  0.28377  0.11636  Biso   1.000  C
  H128     1.0000 0.56920  0.27470  0.13270  Biso   1.000  H
  C383     1.0000 0.56677  0.30997  0.10476  Biso   1.000  C
  C384     1.0000 0.54084  0.32489  0.12013  Biso   1.000  C
  N255     1.0000 0.64066  0.22978  0.10595  Biso   1.000  N
  N256     1.0000 0.64520  0.20727  0.12504  Biso   1.000  N
  O257     1.0000 0.89198  0.96892  0.84865  Biso   1.000  O
  O258     1.0000 0.85653  0.96899  0.81310  Biso   1.000  O
  C385     1.0000 0.88364  0.92164  0.78377  Biso   1.000  C
  H129     1.0000 0.86730  0.93080  0.77470  Biso   1.000  H
  C386     1.0000 0.89524  0.93323  0.80997  Biso   1.000  C
  C387     1.0000 0.87987  0.95916  0.82489  Biso   1.000  C
  N257     1.0000 0.89405  0.85934  0.72978  Biso   1.000  N
  N258     1.0000 0.87496  0.85480  0.70727  Biso   1.000  N
  O259     1.0000 0.89198  0.46892  0.34865  Biso   1.000  O
  O260     1.0000 0.85653  0.46899  0.31310  Biso   1.000  O
  C388     1.0000 0.88364  0.42164  0.28377  Biso   1.000  C
  H130     1.0000 0.86730  0.43080  0.27470  Biso   1.000  H
  C389     1.0000 0.89524  0.43323  0.30997  Biso   1.000  C
  C390     1.0000 0.87987  0.45916  0.32489  Biso   1.000  C
  N259     1.0000 0.89405  0.35934  0.22978  Biso   1.000  N
  N260     1.0000 0.87496  0.35480  0.20727  Biso   1.000  N
  O261     1.0000 0.39198  0.96892  0.34865  Biso   1.000  O
  O262     1.0000 0.35653  0.96899  0.31310  Biso   1.000  O
  C391     1.0000 0.38364  0.92164  0.28377  Biso   1.000  C
  H131     1.0000 0.36730  0.93080  0.27470  Biso   1.000  H
  C392     1.0000 0.39524  0.93323  0.30997  Biso   1.000  C
  C393     1.0000 0.37987  0.95916  0.32489  Biso   1.000  C
  N261     1.0000 0.39405  0.85934  0.22978  Biso   1.000  N
  N262     1.0000 0.37496  0.85480  0.20727  Biso   1.000  N
  O263     1.0000 0.39198  0.46892  0.84865  Biso   1.000  O
  O264     1.0000 0.35653  0.46899  0.81310  Biso   1.000  O
  C394     1.0000 0.38364  0.42164  0.78377  Biso   1.000  C
  H132     1.0000 0.36730  0.43080  0.77470  Biso   1.000  H
  C395     1.0000 0.39524  0.43323  0.80997  Biso   1.000  C
  C396     1.0000 0.37987  0.45916  0.82489  Biso   1.000  C
  N263     1.0000 0.39405  0.35934  0.72978  Biso   1.000  N
  N264     1.0000 0.37496  0.35480  0.70727  Biso   1.000  N
  O265     1.0000 0.10802  0.96892  0.15135  Biso   1.000  O
  O266     1.0000 0.14347  0.96899  0.18690  Biso   1.000  O
  C397     1.0000 0.11636  0.92164  0.21623  Biso   1.000  C
  H133     1.0000 0.13270  0.93080  0.22530  Biso   1.000  H
  C398     1.0000 0.10476  0.93323  0.19003  Biso   1.000  C
  C399     1.0000 0.12013  0.95916  0.17511  Biso   1.000  C
  N265     1.0000 0.10595  0.85934  0.27022  Biso   1.000  N
  N266     1.0000 0.12504  0.85480  0.29273  Biso   1.000  N
  O267     1.0000 0.10802  0.46892  0.65135  Biso   1.000  O
  O268     1.0000 0.14347  0.46899  0.68690  Biso   1.000  O
  C400     1.0000 0.11636  0.42164  0.71623  Biso   1.000  C
  H134     1.0000 0.13270  0.43080  0.72530  Biso   1.000  H
  C401     1.0000 0.10476  0.43323  0.69003  Biso   1.000  C
  C402     1.0000 0.12013  0.45916  0.67511  Biso   1.000  C
  N267     1.0000 0.10595  0.35934  0.77022  Biso   1.000  N
  N268     1.0000 0.12504  0.35480  0.79273  Biso   1.000  N
  O269     1.0000 0.60802  0.96892  0.65135  Biso   1.000  O
  O270     1.0000 0.64347  0.96899  0.68690  Biso   1.000  O
  C403     1.0000 0.61636  0.92164  0.71623  Biso   1.000  C
  H135     1.0000 0.63270  0.93080  0.72530  Biso   1.000  H
  C404     1.0000 0.60476  0.93323  0.69003  Biso   1.000  C
  C405     1.0000 0.62013  0.95916  0.67511  Biso   1.000  C
  N269     1.0000 0.60595  0.85934  0.77022  Biso   1.000  N
  N270     1.0000 0.62504  0.85480  0.79273  Biso   1.000  N
  O271     1.0000 0.60802  0.46892  0.15135  Biso   1.000  O
  O272     1.0000 0.64347  0.46899  0.18690  Biso   1.000  O
  C406     1.0000 0.61636  0.42164  0.21623  Biso   1.000  C
  H136     1.0000 0.63270  0.43080  0.22530  Biso   1.000  H
  C407     1.0000 0.60476  0.43323  0.19003  Biso   1.000  C
  C408     1.0000 0.62013  0.45916  0.17511  Biso   1.000  C
  N271     1.0000 0.60595  0.35934  0.27022  Biso   1.000  N
  N272     1.0000 0.62504  0.35480  0.29273  Biso   1.000  N
  O273     1.0000 0.89198  0.03108  0.15135  Biso   1.000  O
  O274     1.0000 0.85653  0.03101  0.18690  Biso   1.000  O
  C409     1.0000 0.88364  0.07836  0.21623  Biso   1.000  C
  H137     1.0000 0.86730  0.06920  0.22530  Biso   1.000  H
  C410     1.0000 0.89524  0.06677  0.19003  Biso   1.000  C
  C411     1.0000 0.87987  0.04084  0.17511  Biso   1.000  C
  N273     1.0000 0.89405  0.14066  0.27022  Biso   1.000  N
  N274     1.0000 0.87496  0.14520  0.29273  Biso   1.000  N
  O275     1.0000 0.89198  0.53108  0.65135  Biso   1.000  O
  O276     1.0000 0.85653  0.53101  0.68690  Biso   1.000  O
  C412     1.0000 0.88364  0.57836  0.71623  Biso   1.000  C
  H138     1.0000 0.86730  0.56920  0.72530  Biso   1.000  H
  C413     1.0000 0.89524  0.56677  0.69003  Biso   1.000  C
  C414     1.0000 0.87987  0.54084  0.67511  Biso   1.000  C
  N275     1.0000 0.89405  0.64066  0.77022  Biso   1.000  N
  N276     1.0000 0.87496  0.64520  0.79273  Biso   1.000  N
  O277     1.0000 0.39198  0.03108  0.65135  Biso   1.000  O
  O278     1.0000 0.35653  0.03101  0.68690  Biso   1.000  O
  C415     1.0000 0.38364  0.07836  0.71623  Biso   1.000  C
  H139     1.0000 0.36730  0.06920  0.72530  Biso   1.000  H
  C416     1.0000 0.39524  0.06677  0.69003  Biso   1.000  C
  C417     1.0000 0.37987  0.04084  0.67511  Biso   1.000  C
  N277     1.0000 0.39405  0.14066  0.77022  Biso   1.000  N
  N278     1.0000 0.37496  0.14520  0.79273  Biso   1.000  N
  O279     1.0000 0.39198  0.53108  0.15135  Biso   1.000  O
  O280     1.0000 0.35653  0.53101  0.18690  Biso   1.000  O
  C418     1.0000 0.38364  0.57836  0.21623  Biso   1.000  C
  H140     1.0000 0.36730  0.56920  0.22530  Biso   1.000  H
  C419     1.0000 0.39524  0.56677  0.19003  Biso   1.000  C
  C420     1.0000 0.37987  0.54084  0.17511  Biso   1.000  C
  N279     1.0000 0.39405  0.64066  0.27022  Biso   1.000  N
  N280     1.0000 0.37496  0.64520  0.29273  Biso   1.000  N
  O281     1.0000 0.10802  0.03108  0.84865  Biso   1.000  O
  O282     1.0000 0.14347  0.03101  0.81310  Biso   1.000  O
  C421     1.0000 0.11636  0.07836  0.78377  Biso   1.000  C
  H141     1.0000 0.13270  0.06920  0.77470  Biso   1.000  H
  C422     1.0000 0.10476  0.06677  0.80997  Biso   1.000  C
  C423     1.0000 0.12013  0.04084  0.82489  Biso   1.000  C
  N281     1.0000 0.10595  0.14066  0.72978  Biso   1.000  N
  N282     1.0000 0.12504  0.14520  0.70727  Biso   1.000  N
  O283     1.0000 0.10802  0.53108  0.34865  Biso   1.000  O
  O284     1.0000 0.14347  0.53101  0.31310  Biso   1.000  O
  C424     1.0000 0.11636  0.57836  0.28377  Biso   1.000  C
  H142     1.0000 0.13270  0.56920  0.27470  Biso   1.000  H
  C425     1.0000 0.10476  0.56677  0.30997  Biso   1.000  C
  C426     1.0000 0.12013  0.54084  0.32489  Biso   1.000  C
  N283     1.0000 0.10595  0.64066  0.22978  Biso   1.000  N
  N284     1.0000 0.12504  0.64520  0.20727  Biso   1.000  N
  O285     1.0000 0.60802  0.03108  0.34865  Biso   1.000  O
  O286     1.0000 0.64347  0.03101  0.31310  Biso   1.000  O
  C427     1.0000 0.61636  0.07836  0.28377  Biso   1.000  C
  H143     1.0000 0.63270  0.06920  0.27470  Biso   1.000  H
  C428     1.0000 0.60476  0.06677  0.30997  Biso   1.000  C
  C429     1.0000 0.62013  0.04084  0.32489  Biso   1.000  C
  N285     1.0000 0.60595  0.14066  0.22978  Biso   1.000  N
  N286     1.0000 0.62504  0.14520  0.20727  Biso   1.000  N
  O287     1.0000 0.60802  0.53108  0.84865  Biso   1.000  O
  O288     1.0000 0.64347  0.53101  0.81310  Biso   1.000  O
  C430     1.0000 0.61636  0.57836  0.78377  Biso   1.000  C
  H144     1.0000 0.63270  0.56920  0.77470  Biso   1.000  H
  C431     1.0000 0.60476  0.56677  0.80997  Biso   1.000  C
  C432     1.0000 0.62013  0.54084  0.82489  Biso   1.000  C
  N287     1.0000 0.60595  0.64066  0.72978  Biso   1.000  N
  N288     1.0000 0.62504  0.64520  0.70727  Biso   1.000  N
  O289     1.0000 0.89198  0.84865  0.03108  Biso   1.000  O
  O290     1.0000 0.85653  0.81310  0.03101  Biso   1.000  O
  C433     1.0000 0.88364  0.78377  0.07836  Biso   1.000  C
  H145     1.0000 0.86730  0.77470  0.06920  Biso   1.000  H
  C434     1.0000 0.89524  0.80997  0.06677  Biso   1.000  C
  C435     1.0000 0.87987  0.82489  0.04084  Biso   1.000  C
  N289     1.0000 0.89405  0.72978  0.14066  Biso   1.000  N
  N290     1.0000 0.87496  0.70727  0.14520  Biso   1.000  N
  O291     1.0000 0.89198  0.34865  0.53108  Biso   1.000  O
  O292     1.0000 0.85653  0.31310  0.53101  Biso   1.000  O
  C436     1.0000 0.88364  0.28377  0.57836  Biso   1.000  C
  H146     1.0000 0.86730  0.27470  0.56920  Biso   1.000  H
  C437     1.0000 0.89524  0.30997  0.56677  Biso   1.000  C
  C438     1.0000 0.87987  0.32489  0.54084  Biso   1.000  C
  N291     1.0000 0.89405  0.22978  0.64066  Biso   1.000  N
  N292     1.0000 0.87496  0.20727  0.64520  Biso   1.000  N
  O293     1.0000 0.39198  0.84865  0.53108  Biso   1.000  O
  O294     1.0000 0.35653  0.81310  0.53101  Biso   1.000  O
  C439     1.0000 0.38364  0.78377  0.57836  Biso   1.000  C
  H147     1.0000 0.36730  0.77470  0.56920  Biso   1.000  H
  C440     1.0000 0.39524  0.80997  0.56677  Biso   1.000  C
  C441     1.0000 0.37987  0.82489  0.54084  Biso   1.000  C
  N293     1.0000 0.39405  0.72978  0.64066  Biso   1.000  N
  N294     1.0000 0.37496  0.70727  0.64520  Biso   1.000  N
  O295     1.0000 0.39198  0.34865  0.03108  Biso   1.000  O
  O296     1.0000 0.35653  0.31310  0.03101  Biso   1.000  O
  C442     1.0000 0.38364  0.28377  0.07836  Biso   1.000  C
  H148     1.0000 0.36730  0.27470  0.06920  Biso   1.000  H
  C443     1.0000 0.39524  0.30997  0.06677  Biso   1.000  C
  C444     1.0000 0.37987  0.32489  0.04084  Biso   1.000  C
  N295     1.0000 0.39405  0.22978  0.14066  Biso   1.000  N
  N296     1.0000 0.37496  0.20727  0.14520  Biso   1.000  N
  O297     1.0000 0.10802  0.15135  0.03108  Biso   1.000  O
  O298     1.0000 0.14347  0.18690  0.03101  Biso   1.000  O
  C445     1.0000 0.11636  0.21623  0.07836  Biso   1.000  C
  H149     1.0000 0.13270  0.22530  0.06920  Biso   1.000  H
  C446     1.0000 0.10476  0.19003  0.06677  Biso   1.000  C
  C447     1.0000 0.12013  0.17511  0.04084  Biso   1.000  C
  N297     1.0000 0.10595  0.27022  0.14066  Biso   1.000  N
  N298     1.0000 0.12504  0.29273  0.14520  Biso   1.000  N
  O299     1.0000 0.10802  0.65135  0.53108  Biso   1.000  O
  O300     1.0000 0.14347  0.68690  0.53101  Biso   1.000  O
  C448     1.0000 0.11636  0.71623  0.57836  Biso   1.000  C
  H150     1.0000 0.13270  0.72530  0.56920  Biso   1.000  H
  C449     1.0000 0.10476  0.69003  0.56677  Biso   1.000  C
  C450     1.0000 0.12013  0.67511  0.54084  Biso   1.000  C
  N299     1.0000 0.10595  0.77022  0.64066  Biso   1.000  N
  N300     1.0000 0.12504  0.79273  0.64520  Biso   1.000  N
  O301     1.0000 0.60802  0.15135  0.53108  Biso   1.000  O
  O302     1.0000 0.64347  0.18690  0.53101  Biso   1.000  O
  C451     1.0000 0.61636  0.21623  0.57836  Biso   1.000  C
  H151     1.0000 0.63270  0.22530  0.56920  Biso   1.000  H
  C452     1.0000 0.60476  0.19003  0.56677  Biso   1.000  C
  C453     1.0000 0.62013  0.17511  0.54084  Biso   1.000  C
  N301     1.0000 0.60595  0.27022  0.64066  Biso   1.000  N
  N302     1.0000 0.62504  0.29273  0.64520  Biso   1.000  N
  O303     1.0000 0.60802  0.65135  0.03108  Biso   1.000  O
  O304     1.0000 0.64347  0.68690  0.03101  Biso   1.000  O
  C454     1.0000 0.61636  0.71623  0.07836  Biso   1.000  C
  H152     1.0000 0.63270  0.72530  0.06920  Biso   1.000  H
  C455     1.0000 0.60476  0.69003  0.06677  Biso   1.000  C
  C456     1.0000 0.62013  0.67511  0.04084  Biso   1.000  C
  N303     1.0000 0.60595  0.77022  0.14066  Biso   1.000  N
  N304     1.0000 0.62504  0.79273  0.14520  Biso   1.000  N
  O305     1.0000 0.89198  0.15135  0.96892  Biso   1.000  O
  O306     1.0000 0.85653  0.18690  0.96899  Biso   1.000  O
  C457     1.0000 0.88364  0.21623  0.92164  Biso   1.000  C
  H153     1.0000 0.86730  0.22530  0.93080  Biso   1.000  H
  C458     1.0000 0.89524  0.19003  0.93323  Biso   1.000  C
  C459     1.0000 0.87987  0.17511  0.95916  Biso   1.000  C
  N305     1.0000 0.89405  0.27022  0.85934  Biso   1.000  N
  N306     1.0000 0.87496  0.29273  0.85480  Biso   1.000  N
  O307     1.0000 0.89198  0.65135  0.46892  Biso   1.000  O
  O308     1.0000 0.85653  0.68690  0.46899  Biso   1.000  O
  C460     1.0000 0.88364  0.71623  0.42164  Biso   1.000  C
  H154     1.0000 0.86730  0.72530  0.43080  Biso   1.000  H
  C461     1.0000 0.89524  0.69003  0.43323  Biso   1.000  C
  C462     1.0000 0.87987  0.67511  0.45916  Biso   1.000  C
  N307     1.0000 0.89405  0.77022  0.35934  Biso   1.000  N
  N308     1.0000 0.87496  0.79273  0.35480  Biso   1.000  N
  O309     1.0000 0.39198  0.15135  0.46892  Biso   1.000  O
  O310     1.0000 0.35653  0.18690  0.46899  Biso   1.000  O
  C463     1.0000 0.38364  0.21623  0.42164  Biso   1.000  C
  H155     1.0000 0.36730  0.22530  0.43080  Biso   1.000  H
  C464     1.0000 0.39524  0.19003  0.43323  Biso   1.000  C
  C465     1.0000 0.37987  0.17511  0.45916  Biso   1.000  C
  N309     1.0000 0.39405  0.27022  0.35934  Biso   1.000  N
  N310     1.0000 0.37496  0.29273  0.35480  Biso   1.000  N
  O311     1.0000 0.39198  0.65135  0.96892  Biso   1.000  O
  O312     1.0000 0.35653  0.68690  0.96899  Biso   1.000  O
  C466     1.0000 0.38364  0.71623  0.92164  Biso   1.000  C
  H156     1.0000 0.36730  0.72530  0.93080  Biso   1.000  H
  C467     1.0000 0.39524  0.69003  0.93323  Biso   1.000  C
  C468     1.0000 0.37987  0.67511  0.95916  Biso   1.000  C
  N311     1.0000 0.39405  0.77022  0.85934  Biso   1.000  N
  N312     1.0000 0.37496  0.79273  0.85480  Biso   1.000  N
  O313     1.0000 0.10802  0.84865  0.96892  Biso   1.000  O
  O314     1.0000 0.14347  0.81310  0.96899  Biso   1.000  O
  C469     1.0000 0.11636  0.78377  0.92164  Biso   1.000  C
  H157     1.0000 0.13270  0.77470  0.93080  Biso   1.000  H
  C470     1.0000 0.10476  0.80997  0.93323  Biso   1.000  C
  C471     1.0000 0.12013  0.82489  0.95916  Biso   1.000  C
  N313     1.0000 0.10595  0.72978  0.85934  Biso   1.000  N
  N314     1.0000 0.12504  0.70727  0.85480  Biso   1.000  N
  O315     1.0000 0.10802  0.34865  0.46892  Biso   1.000  O
  O316     1.0000 0.14347  0.31310  0.46899  Biso   1.000  O
  C472     1.0000 0.11636  0.28377  0.42164  Biso   1.000  C
  H158     1.0000 0.13270  0.27470  0.43080  Biso   1.000  H
  C473     1.0000 0.10476  0.30997  0.43323  Biso   1.000  C
  C474     1.0000 0.12013  0.32489  0.45916  Biso   1.000  C
  N315     1.0000 0.10595  0.22978  0.35934  Biso   1.000  N
  N316     1.0000 0.12504  0.20727  0.35480  Biso   1.000  N
  O317     1.0000 0.60802  0.84865  0.46892  Biso   1.000  O
  O318     1.0000 0.64347  0.81310  0.46899  Biso   1.000  O
  C475     1.0000 0.61636  0.78377  0.42164  Biso   1.000  C
  H159     1.0000 0.63270  0.77470  0.43080  Biso   1.000  H
  C476     1.0000 0.60476  0.80997  0.43323  Biso   1.000  C
  C477     1.0000 0.62013  0.82489  0.45916  Biso   1.000  C
  N317     1.0000 0.60595  0.72978  0.35934  Biso   1.000  N
  N318     1.0000 0.62504  0.70727  0.35480  Biso   1.000  N
  O319     1.0000 0.60802  0.34865  0.96892  Biso   1.000  O
  O320     1.0000 0.64347  0.31310  0.96899  Biso   1.000  O
  C478     1.0000 0.61636  0.28377  0.92164  Biso   1.000  C
  H160     1.0000 0.63270  0.27470  0.93080  Biso   1.000  H
  C479     1.0000 0.60476  0.30997  0.93323  Biso   1.000  C
  C480     1.0000 0.62013  0.32489  0.95916  Biso   1.000  C
  N319     1.0000 0.60595  0.22978  0.85934  Biso   1.000  N
  N320     1.0000 0.62504  0.20727  0.85480  Biso   1.000  N
  O321     1.0000 0.84865  0.96892  0.10802  Biso   1.000  O
  O322     1.0000 0.81310  0.96899  0.14347  Biso   1.000  O
  C481     1.0000 0.78377  0.92164  0.11636  Biso   1.000  C
  H161     1.0000 0.77470  0.93080  0.13270  Biso   1.000  H
  C482     1.0000 0.80997  0.93323  0.10476  Biso   1.000  C
  C483     1.0000 0.82489  0.95916  0.12013  Biso   1.000  C
  N321     1.0000 0.72978  0.85934  0.10595  Biso   1.000  N
  N322     1.0000 0.70727  0.85480  0.12504  Biso   1.000  N
  O323     1.0000 0.84865  0.46892  0.60802  Biso   1.000  O
  O324     1.0000 0.81310  0.46899  0.64347  Biso   1.000  O
  C484     1.0000 0.78377  0.42164  0.61636  Biso   1.000  C
  H162     1.0000 0.77470  0.43080  0.63270  Biso   1.000  H
  C485     1.0000 0.80997  0.43323  0.60476  Biso   1.000  C
  C486     1.0000 0.82489  0.45916  0.62013  Biso   1.000  C
  N323     1.0000 0.72978  0.35934  0.60595  Biso   1.000  N
  N324     1.0000 0.70727  0.35480  0.62504  Biso   1.000  N
  O325     1.0000 0.34865  0.96892  0.60802  Biso   1.000  O
  O326     1.0000 0.31310  0.96899  0.64347  Biso   1.000  O
  C487     1.0000 0.28377  0.92164  0.61636  Biso   1.000  C
  H163     1.0000 0.27470  0.93080  0.63270  Biso   1.000  H
  C488     1.0000 0.30997  0.93323  0.60476  Biso   1.000  C
  C489     1.0000 0.32489  0.95916  0.62013  Biso   1.000  C
  N325     1.0000 0.22978  0.85934  0.60595  Biso   1.000  N
  N326     1.0000 0.20727  0.85480  0.62504  Biso   1.000  N
  O327     1.0000 0.34865  0.46892  0.10802  Biso   1.000  O
  O328     1.0000 0.31310  0.46899  0.14347  Biso   1.000  O
  C490     1.0000 0.28377  0.42164  0.11636  Biso   1.000  C
  H164     1.0000 0.27470  0.43080  0.13270  Biso   1.000  H
  C491     1.0000 0.30997  0.43323  0.10476  Biso   1.000  C
  C492     1.0000 0.32489  0.45916  0.12013  Biso   1.000  C
  N327     1.0000 0.22978  0.35934  0.10595  Biso   1.000  N
  N328     1.0000 0.20727  0.35480  0.12504  Biso   1.000  N
  O329     1.0000 0.15135  0.96892  0.89198  Biso   1.000  O
  O330     1.0000 0.18690  0.96899  0.85653  Biso   1.000  O
  C493     1.0000 0.21623  0.92164  0.88364  Biso   1.000  C
  H165     1.0000 0.22530  0.93080  0.86730  Biso   1.000  H
  C494     1.0000 0.19003  0.93323  0.89524  Biso   1.000  C
  C495     1.0000 0.17511  0.95916  0.87987  Biso   1.000  C
  N329     1.0000 0.27022  0.85934  0.89405  Biso   1.000  N
  N330     1.0000 0.29273  0.85480  0.87496  Biso   1.000  N
  O331     1.0000 0.15135  0.46892  0.39198  Biso   1.000  O
  O332     1.0000 0.18690  0.46899  0.35653  Biso   1.000  O
  C496     1.0000 0.21623  0.42164  0.38364  Biso   1.000  C
  H166     1.0000 0.22530  0.43080  0.36730  Biso   1.000  H
  C497     1.0000 0.19003  0.43323  0.39524  Biso   1.000  C
  C498     1.0000 0.17511  0.45916  0.37987  Biso   1.000  C
  N331     1.0000 0.27022  0.35934  0.39405  Biso   1.000  N
  N332     1.0000 0.29273  0.35480  0.37496  Biso   1.000  N
  O333     1.0000 0.65135  0.96892  0.39198  Biso   1.000  O
  O334     1.0000 0.68690  0.96899  0.35653  Biso   1.000  O
  C499     1.0000 0.71623  0.92164  0.38364  Biso   1.000  C
  H167     1.0000 0.72530  0.93080  0.36730  Biso   1.000  H
  C500     1.0000 0.69003  0.93323  0.39524  Biso   1.000  C
  C501     1.0000 0.67511  0.95916  0.37987  Biso   1.000  C
  N333     1.0000 0.77022  0.85934  0.39405  Biso   1.000  N
  N334     1.0000 0.79273  0.85480  0.37496  Biso   1.000  N
  O335     1.0000 0.65135  0.46892  0.89198  Biso   1.000  O
  O336     1.0000 0.68690  0.46899  0.85653  Biso   1.000  O
  C502     1.0000 0.71623  0.42164  0.88364  Biso   1.000  C
  H168     1.0000 0.72530  0.43080  0.86730  Biso   1.000  H
  C503     1.0000 0.69003  0.43323  0.89524  Biso   1.000  C
  C504     1.0000 0.67511  0.45916  0.87987  Biso   1.000  C
  N335     1.0000 0.77022  0.35934  0.89405  Biso   1.000  N
  N336     1.0000 0.79273  0.35480  0.87496  Biso   1.000  N
  O337     1.0000 0.15135  0.03108  0.10802  Biso   1.000  O
  O338     1.0000 0.18690  0.03101  0.14347  Biso   1.000  O
  C505     1.0000 0.21623  0.07836  0.11636  Biso   1.000  C
  H169     1.0000 0.22530  0.06920  0.13270  Biso   1.000  H
  C506     1.0000 0.19003  0.06677  0.10476  Biso   1.000  C
  C507     1.0000 0.17511  0.04084  0.12013  Biso   1.000  C
  N337     1.0000 0.27022  0.14066  0.10595  Biso   1.000  N
  N338     1.0000 0.29273  0.14520  0.12504  Biso   1.000  N
  O339     1.0000 0.15135  0.53108  0.60802  Biso   1.000  O
  O340     1.0000 0.18690  0.53101  0.64347  Biso   1.000  O
  C508     1.0000 0.21623  0.57836  0.61636  Biso   1.000  C
  H170     1.0000 0.22530  0.56920  0.63270  Biso   1.000  H
  C509     1.0000 0.19003  0.56677  0.60476  Biso   1.000  C
  C510     1.0000 0.17511  0.54084  0.62013  Biso   1.000  C
  N339     1.0000 0.27022  0.64066  0.60595  Biso   1.000  N
  N340     1.0000 0.29273  0.64520  0.62504  Biso   1.000  N
  O341     1.0000 0.65135  0.03108  0.60802  Biso   1.000  O
  O342     1.0000 0.68690  0.03101  0.64347  Biso   1.000  O
  C511     1.0000 0.71623  0.07836  0.61636  Biso   1.000  C
  H171     1.0000 0.72530  0.06920  0.63270  Biso   1.000  H
  C512     1.0000 0.69003  0.06677  0.60476  Biso   1.000  C
  C513     1.0000 0.67511  0.04084  0.62013  Biso   1.000  C
  N341     1.0000 0.77022  0.14066  0.60595  Biso   1.000  N
  N342     1.0000 0.79273  0.14520  0.62504  Biso   1.000  N
  O343     1.0000 0.65135  0.53108  0.10802  Biso   1.000  O
  O344     1.0000 0.68690  0.53101  0.14347  Biso   1.000  O
  C514     1.0000 0.71623  0.57836  0.11636  Biso   1.000  C
  H172     1.0000 0.72530  0.56920  0.13270  Biso   1.000  H
  C515     1.0000 0.69003  0.56677  0.10476  Biso   1.000  C
  C516     1.0000 0.67511  0.54084  0.12013  Biso   1.000  C
  N343     1.0000 0.77022  0.64066  0.10595  Biso   1.000  N
  N344     1.0000 0.79273  0.64520  0.12504  Biso   1.000  N
  O345     1.0000 0.84865  0.03108  0.89198  Biso   1.000  O
  O346     1.0000 0.81310  0.03101  0.85653  Biso   1.000  O
  C517     1.0000 0.78377  0.07836  0.88364  Biso   1.000  C
  H173     1.0000 0.77470  0.06920  0.86730  Biso   1.000  H
  C518     1.0000 0.80997  0.06677  0.89524  Biso   1.000  C
  C519     1.0000 0.82489  0.04084  0.87987  Biso   1.000  C
  N345     1.0000 0.72978  0.14066  0.89405  Biso   1.000  N
  N346     1.0000 0.70727  0.14520  0.87496  Biso   1.000  N
  O347     1.0000 0.84865  0.53108  0.39198  Biso   1.000  O
  O348     1.0000 0.81310  0.53101  0.35653  Biso   1.000  O
  C520     1.0000 0.78377  0.57836  0.38364  Biso   1.000  C
  H174     1.0000 0.77470  0.56920  0.36730  Biso   1.000  H
  C521     1.0000 0.80997  0.56677  0.39524  Biso   1.000  C
  C522     1.0000 0.82489  0.54084  0.37987  Biso   1.000  C
  N347     1.0000 0.72978  0.64066  0.39405  Biso   1.000  N
  N348     1.0000 0.70727  0.64520  0.37496  Biso   1.000  N
  O349     1.0000 0.34865  0.03108  0.39198  Biso   1.000  O
  O350     1.0000 0.31310  0.03101  0.35653  Biso   1.000  O
  C523     1.0000 0.28377  0.07836  0.38364  Biso   1.000  C
  H175     1.0000 0.27470  0.06920  0.36730  Biso   1.000  H
  C524     1.0000 0.30997  0.06677  0.39524  Biso   1.000  C
  C525     1.0000 0.32489  0.04084  0.37987  Biso   1.000  C
  N349     1.0000 0.22978  0.14066  0.39405  Biso   1.000  N
  N350     1.0000 0.20727  0.14520  0.37496  Biso   1.000  N
  O351     1.0000 0.34865  0.53108  0.89198  Biso   1.000  O
  O352     1.0000 0.31310  0.53101  0.85653  Biso   1.000  O
  C526     1.0000 0.28377  0.57836  0.88364  Biso   1.000  C
  H176     1.0000 0.27470  0.56920  0.86730  Biso   1.000  H
  C527     1.0000 0.30997  0.56677  0.89524  Biso   1.000  C
  C528     1.0000 0.32489  0.54084  0.87987  Biso   1.000  C
  N351     1.0000 0.22978  0.64066  0.89405  Biso   1.000  N
  N352     1.0000 0.20727  0.64520  0.87496  Biso   1.000  N
  O353     1.0000 0.96892  0.89198  0.15135  Biso   1.000  O
  O354     1.0000 0.96899  0.85653  0.18690  Biso   1.000  O
  C529     1.0000 0.92164  0.88364  0.21623  Biso   1.000  C
  H177     1.0000 0.93080  0.86730  0.22530  Biso   1.000  H
  C530     1.0000 0.93323  0.89524  0.19003  Biso   1.000  C
  C531     1.0000 0.95916  0.87987  0.17511  Biso   1.000  C
  N353     1.0000 0.85934  0.89405  0.27022  Biso   1.000  N
  N354     1.0000 0.85480  0.87496  0.29273  Biso   1.000  N
  O355     1.0000 0.96892  0.39198  0.65135  Biso   1.000  O
  O356     1.0000 0.96899  0.35653  0.68690  Biso   1.000  O
  C532     1.0000 0.92164  0.38364  0.71623  Biso   1.000  C
  H178     1.0000 0.93080  0.36730  0.72530  Biso   1.000  H
  C533     1.0000 0.93323  0.39524  0.69003  Biso   1.000  C
  C534     1.0000 0.95916  0.37987  0.67511  Biso   1.000  C
  N355     1.0000 0.85934  0.39405  0.77022  Biso   1.000  N
  N356     1.0000 0.85480  0.37496  0.79273  Biso   1.000  N
  O357     1.0000 0.46892  0.89198  0.65135  Biso   1.000  O
  O358     1.0000 0.46899  0.85653  0.68690  Biso   1.000  O
  C535     1.0000 0.42164  0.88364  0.71623  Biso   1.000  C
  H179     1.0000 0.43080  0.86730  0.72530  Biso   1.000  H
  C536     1.0000 0.43323  0.89524  0.69003  Biso   1.000  C
  C537     1.0000 0.45916  0.87987  0.67511  Biso   1.000  C
  N357     1.0000 0.35934  0.89405  0.77022  Biso   1.000  N
  N358     1.0000 0.35480  0.87496  0.79273  Biso   1.000  N
  O359     1.0000 0.46892  0.39198  0.15135  Biso   1.000  O
  O360     1.0000 0.46899  0.35653  0.18690  Biso   1.000  O
  C538     1.0000 0.42164  0.38364  0.21623  Biso   1.000  C
  H180     1.0000 0.43080  0.36730  0.22530  Biso   1.000  H
  C539     1.0000 0.43323  0.39524  0.19003  Biso   1.000  C
  C540     1.0000 0.45916  0.37987  0.17511  Biso   1.000  C
  N359     1.0000 0.35934  0.39405  0.27022  Biso   1.000  N
  N360     1.0000 0.35480  0.37496  0.29273  Biso   1.000  N
  O361     1.0000 0.96892  0.10802  0.84865  Biso   1.000  O
  O362     1.0000 0.96899  0.14347  0.81310  Biso   1.000  O
  C541     1.0000 0.92164  0.11636  0.78377  Biso   1.000  C
  H181     1.0000 0.93080  0.13270  0.77470  Biso   1.000  H
  C542     1.0000 0.93323  0.10476  0.80997  Biso   1.000  C
  C543     1.0000 0.95916  0.12013  0.82489  Biso   1.000  C
  N361     1.0000 0.85934  0.10595  0.72978  Biso   1.000  N
  N362     1.0000 0.85480  0.12504  0.70727  Biso   1.000  N
  O363     1.0000 0.96892  0.60802  0.34865  Biso   1.000  O
  O364     1.0000 0.96899  0.64347  0.31310  Biso   1.000  O
  C544     1.0000 0.92164  0.61636  0.28377  Biso   1.000  C
  H182     1.0000 0.93080  0.63270  0.27470  Biso   1.000  H
  C545     1.0000 0.93323  0.60476  0.30997  Biso   1.000  C
  C546     1.0000 0.95916  0.62013  0.32489  Biso   1.000  C
  N363     1.0000 0.85934  0.60595  0.22978  Biso   1.000  N
  N364     1.0000 0.85480  0.62504  0.20727  Biso   1.000  N
  O365     1.0000 0.46892  0.10802  0.34865  Biso   1.000  O
  O366     1.0000 0.46899  0.14347  0.31310  Biso   1.000  O
  C547     1.0000 0.42164  0.11636  0.28377  Biso   1.000  C
  H183     1.0000 0.43080  0.13270  0.27470  Biso   1.000  H
  C548     1.0000 0.43323  0.10476  0.30997  Biso   1.000  C
  C549     1.0000 0.45916  0.12013  0.32489  Biso   1.000  C
  N365     1.0000 0.35934  0.10595  0.22978  Biso   1.000  N
  N366     1.0000 0.35480  0.12504  0.20727  Biso   1.000  N
  O367     1.0000 0.46892  0.60802  0.84865  Biso   1.000  O
  O368     1.0000 0.46899  0.64347  0.81310  Biso   1.000  O
  C550     1.0000 0.42164  0.61636  0.78377  Biso   1.000  C
  H184     1.0000 0.43080  0.63270  0.77470  Biso   1.000  H
  C551     1.0000 0.43323  0.60476  0.80997  Biso   1.000  C
  C552     1.0000 0.45916  0.62013  0.82489  Biso   1.000  C
  N367     1.0000 0.35934  0.60595  0.72978  Biso   1.000  N
  N368     1.0000 0.35480  0.62504  0.70727  Biso   1.000  N
  O369     1.0000 0.03108  0.89198  0.84865  Biso   1.000  O
  O370     1.0000 0.03101  0.85653  0.81310  Biso   1.000  O
  C553     1.0000 0.07836  0.88364  0.78377  Biso   1.000  C
  H185     1.0000 0.06920  0.86730  0.77470  Biso   1.000  H
  C554     1.0000 0.06677  0.89524  0.80997  Biso   1.000  C
  C555     1.0000 0.04084  0.87987  0.82489  Biso   1.000  C
  N369     1.0000 0.14066  0.89405  0.72978  Biso   1.000  N
  N370     1.0000 0.14520  0.87496  0.70727  Biso   1.000  N
  O371     1.0000 0.03108  0.39198  0.34865  Biso   1.000  O
  O372     1.0000 0.03101  0.35653  0.31310  Biso   1.000  O
  C556     1.0000 0.07836  0.38364  0.28377  Biso   1.000  C
  H186     1.0000 0.06920  0.36730  0.27470  Biso   1.000  H
  C557     1.0000 0.06677  0.39524  0.30997  Biso   1.000  C
  C558     1.0000 0.04084  0.37987  0.32489  Biso   1.000  C
  N371     1.0000 0.14066  0.39405  0.22978  Biso   1.000  N
  N372     1.0000 0.14520  0.37496  0.20727  Biso   1.000  N
  O373     1.0000 0.53108  0.89198  0.34865  Biso   1.000  O
  O374     1.0000 0.53101  0.85653  0.31310  Biso   1.000  O
  C559     1.0000 0.57836  0.88364  0.28377  Biso   1.000  C
  H187     1.0000 0.56920  0.86730  0.27470  Biso   1.000  H
  C560     1.0000 0.56677  0.89524  0.30997  Biso   1.000  C
  C561     1.0000 0.54084  0.87987  0.32489  Biso   1.000  C
  N373     1.0000 0.64066  0.89405  0.22978  Biso   1.000  N
  N374     1.0000 0.64520  0.87496  0.20727  Biso   1.000  N
  O375     1.0000 0.53108  0.39198  0.84865  Biso   1.000  O
  O376     1.0000 0.53101  0.35653  0.81310  Biso   1.000  O
  C562     1.0000 0.57836  0.38364  0.78377  Biso   1.000  C
  H188     1.0000 0.56920  0.36730  0.77470  Biso   1.000  H
  C563     1.0000 0.56677  0.39524  0.80997  Biso   1.000  C
  C564     1.0000 0.54084  0.37987  0.82489  Biso   1.000  C
  N375     1.0000 0.64066  0.39405  0.72978  Biso   1.000  N
  N376     1.0000 0.64520  0.37496  0.70727  Biso   1.000  N
  O377     1.0000 0.03108  0.10802  0.15135  Biso   1.000  O
  O378     1.0000 0.03101  0.14347  0.18690  Biso   1.000  O
  C565     1.0000 0.07836  0.11636  0.21623  Biso   1.000  C
  H189     1.0000 0.06920  0.13270  0.22530  Biso   1.000  H
  C566     1.0000 0.06677  0.10476  0.19003  Biso   1.000  C
  C567     1.0000 0.04084  0.12013  0.17511  Biso   1.000  C
  N377     1.0000 0.14066  0.10595  0.27022  Biso   1.000  N
  N378     1.0000 0.14520  0.12504  0.29273  Biso   1.000  N
  O379     1.0000 0.03108  0.60802  0.65135  Biso   1.000  O
  O380     1.0000 0.03101  0.64347  0.68690  Biso   1.000  O
  C568     1.0000 0.07836  0.61636  0.71623  Biso   1.000  C
  H190     1.0000 0.06920  0.63270  0.72530  Biso   1.000  H
  C569     1.0000 0.06677  0.60476  0.69003  Biso   1.000  C
  C570     1.0000 0.04084  0.62013  0.67511  Biso   1.000  C
  N379     1.0000 0.14066  0.60595  0.77022  Biso   1.000  N
  N380     1.0000 0.14520  0.62504  0.79273  Biso   1.000  N
  O381     1.0000 0.53108  0.10802  0.65135  Biso   1.000  O
  O382     1.0000 0.53101  0.14347  0.68690  Biso   1.000  O
  C571     1.0000 0.57836  0.11636  0.71623  Biso   1.000  C
  H191     1.0000 0.56920  0.13270  0.72530  Biso   1.000  H
  C572     1.0000 0.56677  0.10476  0.69003  Biso   1.000  C
  C573     1.0000 0.54084  0.12013  0.67511  Biso   1.000  C
  N381     1.0000 0.64066  0.10595  0.77022  Biso   1.000  N
  N382     1.0000 0.64520  0.12504  0.79273  Biso   1.000  N
  O383     1.0000 0.53108  0.60802  0.15135  Biso   1.000  O
  O384     1.0000 0.53101  0.64347  0.18690  Biso   1.000  O
  C574     1.0000 0.57836  0.61636  0.21623  Biso   1.000  C
  H192     1.0000 0.56920  0.63270  0.22530  Biso   1.000  H
  C575     1.0000 0.56677  0.60476  0.19003  Biso   1.000  C
  C576     1.0000 0.54084  0.62013  0.17511  Biso   1.000  C
  N383     1.0000 0.64066  0.60595  0.27022  Biso   1.000  N
  N384     1.0000 0.64520  0.62504  0.29273  Biso   1.000  N
  Cu1      1.0000 0.32380  0.12316  0.17620  Biso   1.000  Cu
  O385     1.0000 0.29350  0.10140  0.20650  Biso   1.000  O
  O386     1.0000 0.34900  0.08720  0.15100  Biso   1.000  O
  O387     1.0000 0.31000  0.08350  0.19000  Biso   1.000  O
  O388     1.0000 0.36550  0.10980  0.13450  Biso   1.000  O
  Cu2      1.0000 0.32380  0.62316  0.67620  Biso   1.000  Cu
  O389     1.0000 0.29350  0.60140  0.70650  Biso   1.000  O
  O390     1.0000 0.34900  0.58720  0.65100  Biso   1.000  O
  O391     1.0000 0.31000  0.58350  0.69000  Biso   1.000  O
  O392     1.0000 0.36550  0.60980  0.63450  Biso   1.000  O
  Cu3      1.0000 0.67620  0.87684  0.17620  Biso   1.000  Cu
  O393     1.0000 0.70650  0.89860  0.20650  Biso   1.000  O
  O394     1.0000 0.65100  0.91280  0.15100  Biso   1.000  O
  O395     1.0000 0.69000  0.91650  0.19000  Biso   1.000  O
  O396     1.0000 0.63450  0.89020  0.13450  Biso   1.000  O
  Cu4      1.0000 0.67620  0.37684  0.67620  Biso   1.000  Cu
  O397     1.0000 0.70650  0.39860  0.70650  Biso   1.000  O
  O398     1.0000 0.65100  0.41280  0.65100  Biso   1.000  O
  O399     1.0000 0.69000  0.41650  0.69000  Biso   1.000  O
  O400     1.0000 0.63450  0.39020  0.63450  Biso   1.000  O
  Cu5      1.0000 0.17620  0.37684  0.17620  Biso   1.000  Cu
  O401     1.0000 0.20650  0.39860  0.20650  Biso   1.000  O
  O402     1.0000 0.15100  0.41280  0.15100  Biso   1.000  O
  O403     1.0000 0.19000  0.41650  0.19000  Biso   1.000  O
  O404     1.0000 0.13450  0.39020  0.13450  Biso   1.000  O
  Cu6      1.0000 0.67620  0.12316  0.82380  Biso   1.000  Cu
  O405     1.0000 0.70650  0.10140  0.79350  Biso   1.000  O
  O406     1.0000 0.65100  0.08720  0.84900  Biso   1.000  O
  O407     1.0000 0.69000  0.08350  0.81000  Biso   1.000  O
  O408     1.0000 0.63450  0.10980  0.86550  Biso   1.000  O
  Cu7      1.0000 0.67620  0.62316  0.32380  Biso   1.000  Cu
  O409     1.0000 0.70650  0.60140  0.29350  Biso   1.000  O
  O410     1.0000 0.65100  0.58720  0.34900  Biso   1.000  O
  O411     1.0000 0.69000  0.58350  0.31000  Biso   1.000  O
  O412     1.0000 0.63450  0.60980  0.36550  Biso   1.000  O
  Cu8      1.0000 0.17620  0.12316  0.32380  Biso   1.000  Cu
  O413     1.0000 0.20650  0.10140  0.29350  Biso   1.000  O
  O414     1.0000 0.15100  0.08720  0.34900  Biso   1.000  O
  O415     1.0000 0.19000  0.08350  0.31000  Biso   1.000  O
  O416     1.0000 0.13450  0.10980  0.36550  Biso   1.000  O
  Cu9      1.0000 0.32380  0.87684  0.82380  Biso   1.000  Cu
  O417     1.0000 0.29350  0.89860  0.79350  Biso   1.000  O
  O418     1.0000 0.34900  0.91280  0.84900  Biso   1.000  O
  O419     1.0000 0.31000  0.91650  0.81000  Biso   1.000  O
  O420     1.0000 0.36550  0.89020  0.86550  Biso   1.000  O
  Cu10     1.0000 0.32380  0.37684  0.32380  Biso   1.000  Cu
  O421     1.0000 0.29350  0.39860  0.29350  Biso   1.000  O
  O422     1.0000 0.34900  0.41280  0.34900  Biso   1.000  O
  O423     1.0000 0.31000  0.41650  0.31000  Biso   1.000  O
  O424     1.0000 0.36550  0.39020  0.36550  Biso   1.000  O
  Cu11     1.0000 0.17620  0.32380  0.12316  Biso   1.000  Cu
  O425     1.0000 0.20650  0.29350  0.10140  Biso   1.000  O
  O426     1.0000 0.15100  0.34900  0.08720  Biso   1.000  O
  O427     1.0000 0.19000  0.31000  0.08350  Biso   1.000  O
  O428     1.0000 0.13450  0.36550  0.10980  Biso   1.000  O
  Cu12     1.0000 0.17620  0.82380  0.62316  Biso   1.000  Cu
  O429     1.0000 0.20650  0.79350  0.60140  Biso   1.000  O
  O430     1.0000 0.15100  0.84900  0.58720  Biso   1.000  O
  O431     1.0000 0.19000  0.81000  0.58350  Biso   1.000  O
  O432     1.0000 0.13450  0.86550  0.60980  Biso   1.000  O
  Cu13     1.0000 0.17620  0.67620  0.87684  Biso   1.000  Cu
  O433     1.0000 0.20650  0.70650  0.89860  Biso   1.000  O
  O434     1.0000 0.15100  0.65100  0.91280  Biso   1.000  O
  O435     1.0000 0.19000  0.69000  0.91650  Biso   1.000  O
  O436     1.0000 0.13450  0.63450  0.89020  Biso   1.000  O
  Cu14     1.0000 0.17620  0.17620  0.37684  Biso   1.000  Cu
  O437     1.0000 0.20650  0.20650  0.39860  Biso   1.000  O
  O438     1.0000 0.15100  0.15100  0.41280  Biso   1.000  O
  O439     1.0000 0.19000  0.19000  0.41650  Biso   1.000  O
  O440     1.0000 0.13450  0.13450  0.39020  Biso   1.000  O
  Cu15     1.0000 0.82380  0.67620  0.12316  Biso   1.000  Cu
  O441     1.0000 0.79350  0.70650  0.10140  Biso   1.000  O
  O442     1.0000 0.84900  0.65100  0.08720  Biso   1.000  O
  O443     1.0000 0.81000  0.69000  0.08350  Biso   1.000  O
  O444     1.0000 0.86550  0.63450  0.10980  Biso   1.000  O
  Cu16     1.0000 0.82380  0.17620  0.62316  Biso   1.000  Cu
  O445     1.0000 0.79350  0.20650  0.60140  Biso   1.000  O
  O446     1.0000 0.84900  0.15100  0.58720  Biso   1.000  O
  O447     1.0000 0.81000  0.19000  0.58350  Biso   1.000  O
  O448     1.0000 0.86550  0.13450  0.60980  Biso   1.000  O
  Cu17     1.0000 0.32380  0.17620  0.12316  Biso   1.000  Cu
  O449     1.0000 0.29350  0.20650  0.10140  Biso   1.000  O
  O450     1.0000 0.34900  0.15100  0.08720  Biso   1.000  O
  O451     1.0000 0.31000  0.19000  0.08350  Biso   1.000  O
  O452     1.0000 0.36550  0.13450  0.10980  Biso   1.000  O
  Cu18     1.0000 0.82380  0.32380  0.87684  Biso   1.000  Cu
  O453     1.0000 0.79350  0.29350  0.89860  Biso   1.000  O
  O454     1.0000 0.84900  0.34900  0.91280  Biso   1.000  O
  O455     1.0000 0.81000  0.31000  0.91650  Biso   1.000  O
  O456     1.0000 0.86550  0.36550  0.89020  Biso   1.000  O
  Cu19     1.0000 0.82380  0.82380  0.37684  Biso   1.000  Cu
  O457     1.0000 0.79350  0.79350  0.39860  Biso   1.000  O
  O458     1.0000 0.84900  0.84900  0.41280  Biso   1.000  O
  O459     1.0000 0.81000  0.81000  0.41650  Biso   1.000  O
  O460     1.0000 0.86550  0.86550  0.39020  Biso   1.000  O
  Cu20     1.0000 0.32380  0.32380  0.37684  Biso   1.000  Cu
  O461     1.0000 0.29350  0.29350  0.39860  Biso   1.000  O
  O462     1.0000 0.34900  0.34900  0.41280  Biso   1.000  O
  O463     1.0000 0.31000  0.31000  0.41650  Biso   1.000  O
  O464     1.0000 0.36550  0.36550  0.39020  Biso   1.000  O
  Cu21     1.0000 0.12316  0.17620  0.32380  Biso   1.000  Cu
  O465     1.0000 0.10140  0.20650  0.29350  Biso   1.000  O
  O466     1.0000 0.08720  0.15100  0.34900  Biso   1.000  O
  O467     1.0000 0.08350  0.19000  0.31000  Biso   1.000  O
  O468     1.0000 0.10980  0.13450  0.36550  Biso   1.000  O
  Cu22     1.0000 0.62316  0.17620  0.82380  Biso   1.000  Cu
  O469     1.0000 0.60140  0.20650  0.79350  Biso   1.000  O
  O470     1.0000 0.58720  0.15100  0.84900  Biso   1.000  O
  O471     1.0000 0.58350  0.19000  0.81000  Biso   1.000  O
  O472     1.0000 0.60980  0.13450  0.86550  Biso   1.000  O
  Cu23     1.0000 0.87684  0.17620  0.67620  Biso   1.000  Cu
  O473     1.0000 0.89860  0.20650  0.70650  Biso   1.000  O
  O474     1.0000 0.91280  0.15100  0.65100  Biso   1.000  O
  O475     1.0000 0.91650  0.19000  0.69000  Biso   1.000  O
  O476     1.0000 0.89020  0.13450  0.63450  Biso   1.000  O
  Cu24     1.0000 0.37684  0.17620  0.17620  Biso   1.000  Cu
  O477     1.0000 0.39860  0.20650  0.20650  Biso   1.000  O
  O478     1.0000 0.41280  0.15100  0.15100  Biso   1.000  O
  O479     1.0000 0.41650  0.19000  0.19000  Biso   1.000  O
  O480     1.0000 0.39020  0.13450  0.13450  Biso   1.000  O
  Cu25     1.0000 0.12316  0.82380  0.67620  Biso   1.000  Cu
  O481     1.0000 0.10140  0.79350  0.70650  Biso   1.000  O
  O482     1.0000 0.08720  0.84900  0.65100  Biso   1.000  O
  O483     1.0000 0.08350  0.81000  0.69000  Biso   1.000  O
  O484     1.0000 0.10980  0.86550  0.63450  Biso   1.000  O
  Cu26     1.0000 0.12316  0.32380  0.17620  Biso   1.000  Cu
  O485     1.0000 0.10140  0.29350  0.20650  Biso   1.000  O
  O486     1.0000 0.08720  0.34900  0.15100  Biso   1.000  O
  O487     1.0000 0.08350  0.31000  0.19000  Biso   1.000  O
  O488     1.0000 0.10980  0.36550  0.13450  Biso   1.000  O
  Cu27     1.0000 0.62316  0.82380  0.17620  Biso   1.000  Cu
  O489     1.0000 0.60140  0.79350  0.20650  Biso   1.000  O
  O490     1.0000 0.58720  0.84900  0.15100  Biso   1.000  O
  O491     1.0000 0.58350  0.81000  0.19000  Biso   1.000  O
  O492     1.0000 0.60980  0.86550  0.13450  Biso   1.000  O
  Cu28     1.0000 0.87684  0.82380  0.32380  Biso   1.000  Cu
  O493     1.0000 0.89860  0.79350  0.29350  Biso   1.000  O
  O494     1.0000 0.91280  0.84900  0.34900  Biso   1.000  O
  O495     1.0000 0.91650  0.81000  0.31000  Biso   1.000  O
  O496     1.0000 0.89020  0.86550  0.36550  Biso   1.000  O
  Cu29     1.0000 0.37684  0.82380  0.82380  Biso   1.000  Cu
  O497     1.0000 0.39860  0.79350  0.79350  Biso   1.000  O
  O498     1.0000 0.41280  0.84900  0.84900  Biso   1.000  O
  O499     1.0000 0.41650  0.81000  0.81000  Biso   1.000  O
  O500     1.0000 0.39020  0.86550  0.86550  Biso   1.000  O
  Cu30     1.0000 0.37684  0.32380  0.32380  Biso   1.000  Cu
  O501     1.0000 0.39860  0.29350  0.29350  Biso   1.000  O
  O502     1.0000 0.41280  0.34900  0.34900  Biso   1.000  O
  O503     1.0000 0.41650  0.31000  0.31000  Biso   1.000  O
  O504     1.0000 0.39020  0.36550  0.36550  Biso   1.000  O
  Cu31     1.0000 0.12316  0.32380  0.82380  Biso   1.000  Cu
  O505     1.0000 0.10140  0.29350  0.79350  Biso   1.000  O
  O506     1.0000 0.08720  0.34900  0.84900  Biso   1.000  O
  O507     1.0000 0.08350  0.31000  0.81000  Biso   1.000  O
  O508     1.0000 0.10980  0.36550  0.86550  Biso   1.000  O
  Cu32     1.0000 0.62316  0.32380  0.32380  Biso   1.000  Cu
  O509     1.0000 0.60140  0.29350  0.29350  Biso   1.000  O
  O510     1.0000 0.58720  0.34900  0.34900  Biso   1.000  O
  O511     1.0000 0.58350  0.31000  0.31000  Biso   1.000  O
  O512     1.0000 0.60980  0.36550  0.36550  Biso   1.000  O
  Cu33     1.0000 0.87684  0.67620  0.82380  Biso   1.000  Cu
  O513     1.0000 0.89860  0.70650  0.79350  Biso   1.000  O
  O514     1.0000 0.91280  0.65100  0.84900  Biso   1.000  O
  O515     1.0000 0.91650  0.69000  0.81000  Biso   1.000  O
  O516     1.0000 0.89020  0.63450  0.86550  Biso   1.000  O
  Cu34     1.0000 0.87684  0.17620  0.32380  Biso   1.000  Cu
  O517     1.0000 0.89860  0.20650  0.29350  Biso   1.000  O
  O518     1.0000 0.91280  0.15100  0.34900  Biso   1.000  O
  O519     1.0000 0.91650  0.19000  0.31000  Biso   1.000  O
  O520     1.0000 0.89020  0.13450  0.36550  Biso   1.000  O
  Cu35     1.0000 0.37684  0.67620  0.32380  Biso   1.000  Cu
  O521     1.0000 0.39860  0.70650  0.29350  Biso   1.000  O
  O522     1.0000 0.41280  0.65100  0.34900  Biso   1.000  O
  O523     1.0000 0.41650  0.69000  0.31000  Biso   1.000  O
  O524     1.0000 0.39020  0.63450  0.36550  Biso   1.000  O
  Cu36     1.0000 0.12316  0.67620  0.17620  Biso   1.000  Cu
  O525     1.0000 0.10140  0.70650  0.20650  Biso   1.000  O
  O526     1.0000 0.08720  0.65100  0.15100  Biso   1.000  O
  O527     1.0000 0.08350  0.69000  0.19000  Biso   1.000  O
  O528     1.0000 0.10980  0.63450  0.13450  Biso   1.000  O
  Cu37     1.0000 0.62316  0.67620  0.67620  Biso   1.000  Cu
  O529     1.0000 0.60140  0.70650  0.70650  Biso   1.000  O
  O530     1.0000 0.58720  0.65100  0.65100  Biso   1.000  O
  O531     1.0000 0.58350  0.69000  0.69000  Biso   1.000  O
  O532     1.0000 0.60980  0.63450  0.63450  Biso   1.000  O
  Cu38     1.0000 0.62316  0.17620  0.17620  Biso   1.000  Cu
  O533     1.0000 0.60140  0.20650  0.20650  Biso   1.000  O
  O534     1.0000 0.58720  0.15100  0.15100  Biso   1.000  O
  O535     1.0000 0.58350  0.19000  0.19000  Biso   1.000  O
  O536     1.0000 0.60980  0.13450  0.13450  Biso   1.000  O
  Cu39     1.0000 0.87684  0.32380  0.17620  Biso   1.000  Cu
  O537     1.0000 0.89860  0.29350  0.20650  Biso   1.000  O
  O538     1.0000 0.91280  0.34900  0.15100  Biso   1.000  O
  O539     1.0000 0.91650  0.31000  0.19000  Biso   1.000  O
  O540     1.0000 0.89020  0.36550  0.13450  Biso   1.000  O
  Cu40     1.0000 0.37684  0.32380  0.67620  Biso   1.000  Cu
  O541     1.0000 0.39860  0.29350  0.70650  Biso   1.000  O
  O542     1.0000 0.41280  0.34900  0.65100  Biso   1.000  O
  O543     1.0000 0.41650  0.31000  0.69000  Biso   1.000  O
  O544     1.0000 0.39020  0.36550  0.63450  Biso   1.000  O
  Cu41     1.0000 0.32380  0.17620  0.87684  Biso   1.000  Cu
  O545     1.0000 0.29350  0.20650  0.89860  Biso   1.000  O
  O546     1.0000 0.34900  0.15100  0.91280  Biso   1.000  O
  O547     1.0000 0.31000  0.19000  0.91650  Biso   1.000  O
  O548     1.0000 0.36550  0.13450  0.89020  Biso   1.000  O
  Cu42     1.0000 0.32380  0.67620  0.37684  Biso   1.000  Cu
  O549     1.0000 0.29350  0.70650  0.39860  Biso   1.000  O
  O550     1.0000 0.34900  0.65100  0.41280  Biso   1.000  O
  O551     1.0000 0.31000  0.69000  0.41650  Biso   1.000  O
  O552     1.0000 0.36550  0.63450  0.39020  Biso   1.000  O
  Cu43     1.0000 0.67620  0.17620  0.12316  Biso   1.000  Cu
  O553     1.0000 0.70650  0.20650  0.10140  Biso   1.000  O
  O554     1.0000 0.65100  0.15100  0.08720  Biso   1.000  O
  O555     1.0000 0.69000  0.19000  0.08350  Biso   1.000  O
  O556     1.0000 0.63450  0.13450  0.10980  Biso   1.000  O
  Cu44     1.0000 0.67620  0.67620  0.62316  Biso   1.000  Cu
  O557     1.0000 0.70650  0.70650  0.60140  Biso   1.000  O
  O558     1.0000 0.65100  0.65100  0.58720  Biso   1.000  O
  O559     1.0000 0.69000  0.69000  0.58350  Biso   1.000  O
  O560     1.0000 0.63450  0.63450  0.60980  Biso   1.000  O
  Cu45     1.0000 0.17620  0.17620  0.62316  Biso   1.000  Cu
  O561     1.0000 0.20650  0.20650  0.60140  Biso   1.000  O
  O562     1.0000 0.15100  0.15100  0.58720  Biso   1.000  O
  O563     1.0000 0.19000  0.19000  0.58350  Biso   1.000  O
  O564     1.0000 0.13450  0.13450  0.60980  Biso   1.000  O
  Cu46     1.0000 0.67620  0.82380  0.87684  Biso   1.000  Cu
  O565     1.0000 0.70650  0.79350  0.89860  Biso   1.000  O
  O566     1.0000 0.65100  0.84900  0.91280  Biso   1.000  O
  O567     1.0000 0.69000  0.81000  0.91650  Biso   1.000  O
  O568     1.0000 0.63450  0.86550  0.89020  Biso   1.000  O
  Cu47     1.0000 0.67620  0.32380  0.37684  Biso   1.000  Cu
  O569     1.0000 0.70650  0.29350  0.39860  Biso   1.000  O
  O570     1.0000 0.65100  0.34900  0.41280  Biso   1.000  O
  O571     1.0000 0.69000  0.31000  0.41650  Biso   1.000  O
  O572     1.0000 0.63450  0.36550  0.39020  Biso   1.000  O
  Cu48     1.0000 0.17620  0.32380  0.87684  Biso   1.000  Cu
  O573     1.0000 0.20650  0.29350  0.89860  Biso   1.000  O
  O574     1.0000 0.15100  0.34900  0.91280  Biso   1.000  O
  O575     1.0000 0.19000  0.31000  0.91650  Biso   1.000  O
  O576     1.0000 0.13450  0.36550  0.89020  Biso   1.000  O
  Cu49     1.0000 0.32380  0.82380  0.12316  Biso   1.000  Cu
  O577     1.0000 0.29350  0.79350  0.10140  Biso   1.000  O
  O578     1.0000 0.34900  0.84900  0.08720  Biso   1.000  O
  O579     1.0000 0.31000  0.81000  0.08350  Biso   1.000  O
  O580     1.0000 0.36550  0.86550  0.10980  Biso   1.000  O
  Cu50     1.0000 0.32380  0.32380  0.62316  Biso   1.000  Cu
  O581     1.0000 0.29350  0.29350  0.60140  Biso   1.000  O
  O582     1.0000 0.34900  0.34900  0.58720  Biso   1.000  O
  O583     1.0000 0.31000  0.31000  0.58350  Biso   1.000  O
  O584     1.0000 0.36550  0.36550  0.60980  Biso   1.000  O
  Cu51     1.0000 0.17620  0.12316  0.67620  Biso   1.000  Cu
  O585     1.0000 0.20650  0.10140  0.70650  Biso   1.000  O
  O586     1.0000 0.15100  0.08720  0.65100  Biso   1.000  O
  O587     1.0000 0.19000  0.08350  0.69000  Biso   1.000  O
  O588     1.0000 0.13450  0.10980  0.63450  Biso   1.000  O
  Cu52     1.0000 0.17620  0.62316  0.17620  Biso   1.000  Cu
  O589     1.0000 0.20650  0.60140  0.20650  Biso   1.000  O
  O590     1.0000 0.15100  0.58720  0.15100  Biso   1.000  O
  O591     1.0000 0.19000  0.58350  0.19000  Biso   1.000  O
  O592     1.0000 0.13450  0.60980  0.13450  Biso   1.000  O
  Cu53     1.0000 0.17620  0.87684  0.32380  Biso   1.000  Cu
  O593     1.0000 0.20650  0.89860  0.29350  Biso   1.000  O
  O594     1.0000 0.15100  0.91280  0.34900  Biso   1.000  O
  O595     1.0000 0.19000  0.91650  0.31000  Biso   1.000  O
  O596     1.0000 0.13450  0.89020  0.36550  Biso   1.000  O
  Cu54     1.0000 0.17620  0.37684  0.82380  Biso   1.000  Cu
  O597     1.0000 0.20650  0.39860  0.79350  Biso   1.000  O
  O598     1.0000 0.15100  0.41280  0.84900  Biso   1.000  O
  O599     1.0000 0.19000  0.41650  0.81000  Biso   1.000  O
  O600     1.0000 0.13450  0.39020  0.86550  Biso   1.000  O
  Cu55     1.0000 0.82380  0.12316  0.32380  Biso   1.000  Cu
  O601     1.0000 0.79350  0.10140  0.29350  Biso   1.000  O
  O602     1.0000 0.84900  0.08720  0.34900  Biso   1.000  O
  O603     1.0000 0.81000  0.08350  0.31000  Biso   1.000  O
  O604     1.0000 0.86550  0.10980  0.36550  Biso   1.000  O
  Cu56     1.0000 0.82380  0.62316  0.82380  Biso   1.000  Cu
  O605     1.0000 0.79350  0.60140  0.79350  Biso   1.000  O
  O606     1.0000 0.84900  0.58720  0.84900  Biso   1.000  O
  O607     1.0000 0.81000  0.58350  0.81000  Biso   1.000  O
  O608     1.0000 0.86550  0.60980  0.86550  Biso   1.000  O
  Cu57     1.0000 0.32380  0.62316  0.32380  Biso   1.000  Cu
  O609     1.0000 0.29350  0.60140  0.29350  Biso   1.000  O
  O610     1.0000 0.34900  0.58720  0.34900  Biso   1.000  O
  O611     1.0000 0.31000  0.58350  0.31000  Biso   1.000  O
  O612     1.0000 0.36550  0.60980  0.36550  Biso   1.000  O
  Cu58     1.0000 0.82380  0.87684  0.67620  Biso   1.000  Cu
  O613     1.0000 0.79350  0.89860  0.70650  Biso   1.000  O
  O614     1.0000 0.84900  0.91280  0.65100  Biso   1.000  O
  O615     1.0000 0.81000  0.91650  0.69000  Biso   1.000  O
  O616     1.0000 0.86550  0.89020  0.63450  Biso   1.000  O
  Cu59     1.0000 0.82380  0.37684  0.17620  Biso   1.000  Cu
  O617     1.0000 0.79350  0.39860  0.20650  Biso   1.000  O
  O618     1.0000 0.84900  0.41280  0.15100  Biso   1.000  O
  O619     1.0000 0.81000  0.41650  0.19000  Biso   1.000  O
  O620     1.0000 0.86550  0.39020  0.13450  Biso   1.000  O
  Cu60     1.0000 0.32380  0.87684  0.17620  Biso   1.000  Cu
  O621     1.0000 0.29350  0.89860  0.20650  Biso   1.000  O
  O622     1.0000 0.34900  0.91280  0.15100  Biso   1.000  O
  O623     1.0000 0.31000  0.91650  0.19000  Biso   1.000  O
  O624     1.0000 0.36550  0.89020  0.13450  Biso   1.000  O
  Cu61     1.0000 0.67620  0.87684  0.82380  Biso   1.000  Cu
  O625     1.0000 0.70650  0.89860  0.79350  Biso   1.000  O
  O626     1.0000 0.65100  0.91280  0.84900  Biso   1.000  O
  O627     1.0000 0.69000  0.91650  0.81000  Biso   1.000  O
  O628     1.0000 0.63450  0.89020  0.86550  Biso   1.000  O
  Cu62     1.0000 0.67620  0.37684  0.32380  Biso   1.000  Cu
  O629     1.0000 0.70650  0.39860  0.29350  Biso   1.000  O
  O630     1.0000 0.65100  0.41280  0.34900  Biso   1.000  O
  O631     1.0000 0.69000  0.41650  0.31000  Biso   1.000  O
  O632     1.0000 0.63450  0.39020  0.36550  Biso   1.000  O
  Cu63     1.0000 0.32380  0.12316  0.82380  Biso   1.000  Cu
  O633     1.0000 0.29350  0.10140  0.79350  Biso   1.000  O
  O634     1.0000 0.34900  0.08720  0.84900  Biso   1.000  O
  O635     1.0000 0.31000  0.08350  0.81000  Biso   1.000  O
  O636     1.0000 0.36550  0.10980  0.86550  Biso   1.000  O
  Cu64     1.0000 0.32380  0.37684  0.67620  Biso   1.000  Cu
  O637     1.0000 0.29350  0.39860  0.70650  Biso   1.000  O
  O638     1.0000 0.34900  0.41280  0.65100  Biso   1.000  O
  O639     1.0000 0.31000  0.41650  0.69000  Biso   1.000  O
  O640     1.0000 0.36550  0.39020  0.63450  Biso   1.000  O
  Cu65     1.0000 0.67620  0.12316  0.17620  Biso   1.000  Cu
  O641     1.0000 0.70650  0.10140  0.20650  Biso   1.000  O
  O642     1.0000 0.65100  0.08720  0.15100  Biso   1.000  O
  O643     1.0000 0.69000  0.08350  0.19000  Biso   1.000  O
  O644     1.0000 0.63450  0.10980  0.13450  Biso   1.000  O
  Cu66     1.0000 0.67620  0.62316  0.67620  Biso   1.000  Cu
  O645     1.0000 0.70650  0.60140  0.70650  Biso   1.000  O
  O646     1.0000 0.65100  0.58720  0.65100  Biso   1.000  O
  O647     1.0000 0.69000  0.58350  0.69000  Biso   1.000  O
  O648     1.0000 0.63450  0.60980  0.63450  Biso   1.000  O
  Cu67     1.0000 0.82380  0.67620  0.87684  Biso   1.000  Cu
  O649     1.0000 0.79350  0.70650  0.89860  Biso   1.000  O
  O650     1.0000 0.84900  0.65100  0.91280  Biso   1.000  O
  O651     1.0000 0.81000  0.69000  0.91650  Biso   1.000  O
  O652     1.0000 0.86550  0.63450  0.89020  Biso   1.000  O
  Cu68     1.0000 0.82380  0.17620  0.37684  Biso   1.000  Cu
  O653     1.0000 0.79350  0.20650  0.39860  Biso   1.000  O
  O654     1.0000 0.84900  0.15100  0.41280  Biso   1.000  O
  O655     1.0000 0.81000  0.19000  0.41650  Biso   1.000  O
  O656     1.0000 0.86550  0.13450  0.39020  Biso   1.000  O
  Cu69     1.0000 0.82380  0.32380  0.12316  Biso   1.000  Cu
  O657     1.0000 0.79350  0.29350  0.10140  Biso   1.000  O
  O658     1.0000 0.84900  0.34900  0.08720  Biso   1.000  O
  O659     1.0000 0.81000  0.31000  0.08350  Biso   1.000  O
  O660     1.0000 0.86550  0.36550  0.10980  Biso   1.000  O
  Cu70     1.0000 0.82380  0.82380  0.62316  Biso   1.000  Cu
  O661     1.0000 0.79350  0.79350  0.60140  Biso   1.000  O
  O662     1.0000 0.84900  0.84900  0.58720  Biso   1.000  O
  O663     1.0000 0.81000  0.81000  0.58350  Biso   1.000  O
  O664     1.0000 0.86550  0.86550  0.60980  Biso   1.000  O
  Cu71     1.0000 0.17620  0.82380  0.37684  Biso   1.000  Cu
  O665     1.0000 0.20650  0.79350  0.39860  Biso   1.000  O
  O666     1.0000 0.15100  0.84900  0.41280  Biso   1.000  O
  O667     1.0000 0.19000  0.81000  0.41650  Biso   1.000  O
  O668     1.0000 0.13450  0.86550  0.39020  Biso   1.000  O
  Cu72     1.0000 0.17620  0.67620  0.12316  Biso   1.000  Cu
  O669     1.0000 0.20650  0.70650  0.10140  Biso   1.000  O
  O670     1.0000 0.15100  0.65100  0.08720  Biso   1.000  O
  O671     1.0000 0.19000  0.69000  0.08350  Biso   1.000  O
  O672     1.0000 0.13450  0.63450  0.10980  Biso   1.000  O
  Cu73     1.0000 0.87684  0.82380  0.67620  Biso   1.000  Cu
  O673     1.0000 0.89860  0.79350  0.70650  Biso   1.000  O
  O674     1.0000 0.91280  0.84900  0.65100  Biso   1.000  O
  O675     1.0000 0.91650  0.81000  0.69000  Biso   1.000  O
  O676     1.0000 0.89020  0.86550  0.63450  Biso   1.000  O
  Cu74     1.0000 0.37684  0.82380  0.17620  Biso   1.000  Cu
  O677     1.0000 0.39860  0.79350  0.20650  Biso   1.000  O
  O678     1.0000 0.41280  0.84900  0.15100  Biso   1.000  O
  O679     1.0000 0.41650  0.81000  0.19000  Biso   1.000  O
  O680     1.0000 0.39020  0.86550  0.13450  Biso   1.000  O
  Cu75     1.0000 0.12316  0.82380  0.32380  Biso   1.000  Cu
  O681     1.0000 0.10140  0.79350  0.29350  Biso   1.000  O
  O682     1.0000 0.08720  0.84900  0.34900  Biso   1.000  O
  O683     1.0000 0.08350  0.81000  0.31000  Biso   1.000  O
  O684     1.0000 0.10980  0.86550  0.36550  Biso   1.000  O
  Cu76     1.0000 0.62316  0.82380  0.82380  Biso   1.000  Cu
  O685     1.0000 0.60140  0.79350  0.79350  Biso   1.000  O
  O686     1.0000 0.58720  0.84900  0.84900  Biso   1.000  O
  O687     1.0000 0.58350  0.81000  0.81000  Biso   1.000  O
  O688     1.0000 0.60980  0.86550  0.86550  Biso   1.000  O
  Cu77     1.0000 0.37684  0.17620  0.82380  Biso   1.000  Cu
  O689     1.0000 0.39860  0.20650  0.79350  Biso   1.000  O
  O690     1.0000 0.41280  0.15100  0.84900  Biso   1.000  O
  O691     1.0000 0.41650  0.19000  0.81000  Biso   1.000  O
  O692     1.0000 0.39020  0.13450  0.86550  Biso   1.000  O
  Cu78     1.0000 0.12316  0.17620  0.67620  Biso   1.000  Cu
  O693     1.0000 0.10140  0.20650  0.70650  Biso   1.000  O
  O694     1.0000 0.08720  0.15100  0.65100  Biso   1.000  O
  O695     1.0000 0.08350  0.19000  0.69000  Biso   1.000  O
  O696     1.0000 0.10980  0.13450  0.63450  Biso   1.000  O
  Cu79     1.0000 0.87684  0.67620  0.17620  Biso   1.000  Cu
  O697     1.0000 0.89860  0.70650  0.20650  Biso   1.000  O
  O698     1.0000 0.91280  0.65100  0.15100  Biso   1.000  O
  O699     1.0000 0.91650  0.69000  0.19000  Biso   1.000  O
  O700     1.0000 0.89020  0.63450  0.13450  Biso   1.000  O
  Cu80     1.0000 0.37684  0.67620  0.67620  Biso   1.000  Cu
  O701     1.0000 0.39860  0.70650  0.70650  Biso   1.000  O
  O702     1.0000 0.41280  0.65100  0.65100  Biso   1.000  O
  O703     1.0000 0.41650  0.69000  0.69000  Biso   1.000  O
  O704     1.0000 0.39020  0.63450  0.63450  Biso   1.000  O
  Cu81     1.0000 0.62316  0.32380  0.67620  Biso   1.000  Cu
  O705     1.0000 0.60140  0.29350  0.70650  Biso   1.000  O
  O706     1.0000 0.58720  0.34900  0.65100  Biso   1.000  O
  O707     1.0000 0.58350  0.31000  0.69000  Biso   1.000  O
  O708     1.0000 0.60980  0.36550  0.63450  Biso   1.000  O
  Cu82     1.0000 0.87684  0.32380  0.82380  Biso   1.000  Cu
  O709     1.0000 0.89860  0.29350  0.79350  Biso   1.000  O
  O710     1.0000 0.91280  0.34900  0.84900  Biso   1.000  O
  O711     1.0000 0.91650  0.31000  0.81000  Biso   1.000  O
  O712     1.0000 0.89020  0.36550  0.86550  Biso   1.000  O
  Cu83     1.0000 0.12316  0.67620  0.82380  Biso   1.000  Cu
  O713     1.0000 0.10140  0.70650  0.79350  Biso   1.000  O
  O714     1.0000 0.08720  0.65100  0.84900  Biso   1.000  O
  O715     1.0000 0.08350  0.69000  0.81000  Biso   1.000  O
  O716     1.0000 0.10980  0.63450  0.86550  Biso   1.000  O
  Cu84     1.0000 0.62316  0.67620  0.32380  Biso   1.000  Cu
  O717     1.0000 0.60140  0.70650  0.29350  Biso   1.000  O
  O718     1.0000 0.58720  0.65100  0.34900  Biso   1.000  O
  O719     1.0000 0.58350  0.69000  0.31000  Biso   1.000  O
  O720     1.0000 0.60980  0.63450  0.36550  Biso   1.000  O
  Cu85     1.0000 0.67620  0.82380  0.12316  Biso   1.000  Cu
  O721     1.0000 0.70650  0.79350  0.10140  Biso   1.000  O
  O722     1.0000 0.65100  0.84900  0.08720  Biso   1.000  O
  O723     1.0000 0.69000  0.81000  0.08350  Biso   1.000  O
  O724     1.0000 0.63450  0.86550  0.10980  Biso   1.000  O
  Cu86     1.0000 0.67620  0.32380  0.62316  Biso   1.000  Cu
  O725     1.0000 0.70650  0.29350  0.60140  Biso   1.000  O
  O726     1.0000 0.65100  0.34900  0.58720  Biso   1.000  O
  O727     1.0000 0.69000  0.31000  0.58350  Biso   1.000  O
  O728     1.0000 0.63450  0.36550  0.60980  Biso   1.000  O
  Cu87     1.0000 0.32380  0.82380  0.87684  Biso   1.000  Cu
  O729     1.0000 0.29350  0.79350  0.89860  Biso   1.000  O
  O730     1.0000 0.34900  0.84900  0.91280  Biso   1.000  O
  O731     1.0000 0.31000  0.81000  0.91650  Biso   1.000  O
  O732     1.0000 0.36550  0.86550  0.89020  Biso   1.000  O
  Cu88     1.0000 0.32380  0.67620  0.62316  Biso   1.000  Cu
  O733     1.0000 0.29350  0.70650  0.60140  Biso   1.000  O
  O734     1.0000 0.34900  0.65100  0.58720  Biso   1.000  O
  O735     1.0000 0.31000  0.69000  0.58350  Biso   1.000  O
  O736     1.0000 0.36550  0.63450  0.60980  Biso   1.000  O
  Cu89     1.0000 0.67620  0.17620  0.87684  Biso   1.000  Cu
  O737     1.0000 0.70650  0.20650  0.89860  Biso   1.000  O
  O738     1.0000 0.65100  0.15100  0.91280  Biso   1.000  O
  O739     1.0000 0.69000  0.19000  0.91650  Biso   1.000  O
  O740     1.0000 0.63450  0.13450  0.89020  Biso   1.000  O
  Cu90     1.0000 0.67620  0.67620  0.37684  Biso   1.000  Cu
  O741     1.0000 0.70650  0.70650  0.39860  Biso   1.000  O
  O742     1.0000 0.65100  0.65100  0.41280  Biso   1.000  O
  O743     1.0000 0.69000  0.69000  0.41650  Biso   1.000  O
  O744     1.0000 0.63450  0.63450  0.39020  Biso   1.000  O
  Cu91     1.0000 0.82380  0.87684  0.32380  Biso   1.000  Cu
  O745     1.0000 0.79350  0.89860  0.29350  Biso   1.000  O
  O746     1.0000 0.84900  0.91280  0.34900  Biso   1.000  O
  O747     1.0000 0.81000  0.91650  0.31000  Biso   1.000  O
  O748     1.0000 0.86550  0.89020  0.36550  Biso   1.000  O
  Cu92     1.0000 0.82380  0.37684  0.82380  Biso   1.000  Cu
  O749     1.0000 0.79350  0.39860  0.79350  Biso   1.000  O
  O750     1.0000 0.84900  0.41280  0.84900  Biso   1.000  O
  O751     1.0000 0.81000  0.41650  0.81000  Biso   1.000  O
  O752     1.0000 0.86550  0.39020  0.86550  Biso   1.000  O
  Cu93     1.0000 0.82380  0.12316  0.67620  Biso   1.000  Cu
  O753     1.0000 0.79350  0.10140  0.70650  Biso   1.000  O
  O754     1.0000 0.84900  0.08720  0.65100  Biso   1.000  O
  O755     1.0000 0.81000  0.08350  0.69000  Biso   1.000  O
  O756     1.0000 0.86550  0.10980  0.63450  Biso   1.000  O
  Cu94     1.0000 0.82380  0.62316  0.17620  Biso   1.000  Cu
  O757     1.0000 0.79350  0.60140  0.20650  Biso   1.000  O
  O758     1.0000 0.84900  0.58720  0.15100  Biso   1.000  O
  O759     1.0000 0.81000  0.58350  0.19000  Biso   1.000  O
  O760     1.0000 0.86550  0.60980  0.13450  Biso   1.000  O
  Cu95     1.0000 0.17620  0.87684  0.67620  Biso   1.000  Cu
  O761     1.0000 0.20650  0.89860  0.70650  Biso   1.000  O
  O762     1.0000 0.15100  0.91280  0.65100  Biso   1.000  O
  O763     1.0000 0.19000  0.91650  0.69000  Biso   1.000  O
  O764     1.0000 0.13450  0.89020  0.63450  Biso   1.000  O
  Cu96     1.0000 0.17620  0.62316  0.82380  Biso   1.000  Cu
  O765     1.0000 0.20650  0.60140  0.79350  Biso   1.000  O
  O766     1.0000 0.15100  0.58720  0.84900  Biso   1.000  O
  O767     1.0000 0.19000  0.58350  0.81000  Biso   1.000  O
  O768     1.0000 0.13450  0.60980  0.86550  Biso   1.000  O
  O769     1.0000 0.33480  0.16520  0.16520  Biso   1.000  O
  O770     1.0000 0.33480  0.66520  0.66520  Biso   1.000  O
  O771     1.0000 0.66520  0.83480  0.16520  Biso   1.000  O
  O772     1.0000 0.66520  0.33480  0.66520  Biso   1.000  O
  O773     1.0000 0.16520  0.33480  0.16520  Biso   1.000  O
  O774     1.0000 0.66520  0.16520  0.83480  Biso   1.000  O
  O775     1.0000 0.66520  0.66520  0.33480  Biso   1.000  O
  O776     1.0000 0.16520  0.16520  0.33480  Biso   1.000  O
  O777     1.0000 0.33480  0.83480  0.83480  Biso   1.000  O
  O778     1.0000 0.33480  0.33480  0.33480  Biso   1.000  O
  O779     1.0000 0.16520  0.66520  0.83480  Biso   1.000  O
  O780     1.0000 0.83480  0.66520  0.16520  Biso   1.000  O
  O781     1.0000 0.83480  0.33480  0.83480  Biso   1.000  O
  O782     1.0000 0.83480  0.16520  0.66520  Biso   1.000  O
  O783     1.0000 0.16520  0.83480  0.66520  Biso   1.000  O
  O784     1.0000 0.83480  0.83480  0.33480  Biso   1.000  O
  O785     1.0000 0.16520  0.33480  0.83480  Biso   1.000  O
  O786     1.0000 0.83480  0.66520  0.83480  Biso   1.000  O
  O787     1.0000 0.83480  0.16520  0.33480  Biso   1.000  O
  O788     1.0000 0.33480  0.16520  0.83480  Biso   1.000  O
  O789     1.0000 0.16520  0.66520  0.16520  Biso   1.000  O
  O790     1.0000 0.83480  0.33480  0.16520  Biso   1.000  O
  O791     1.0000 0.33480  0.33480  0.66520  Biso   1.000  O
  O792     1.0000 0.33480  0.66520  0.33480  Biso   1.000  O
  O793     1.0000 0.66520  0.16520  0.16520  Biso   1.000  O
  O794     1.0000 0.66520  0.66520  0.66520  Biso   1.000  O
  O795     1.0000 0.66520  0.83480  0.83480  Biso   1.000  O
  O796     1.0000 0.66520  0.33480  0.33480  Biso   1.000  O
  O797     1.0000 0.16520  0.83480  0.33480  Biso   1.000  O
  O798     1.0000 0.33480  0.83480  0.16520  Biso   1.000  O
  O799     1.0000 0.16520  0.16520  0.66520  Biso   1.000  O
  O800     1.0000 0.83480  0.83480  0.66520  Biso   1.000  O
  Cu97     1.0000 0.16854  0.16854  0.00000  Biso   1.000  Cu
  Cu98     1.0000 0.12652  0.12652  0.00000  Biso   1.000  Cu
  Cu99     1.0000 0.16854  0.66854  0.50000  Biso   1.000  Cu
  Cu100    1.0000 0.12652  0.62652  0.50000  Biso   1.000  Cu
  Cu101    1.0000 0.66854  0.16854  0.50000  Biso   1.000  Cu
  Cu102    1.0000 0.62652  0.12652  0.50000  Biso   1.000  Cu
  Cu103    1.0000 0.66854  0.66854  0.00000  Biso   1.000  Cu
  Cu104    1.0000 0.62652  0.62652  0.00000  Biso   1.000  Cu
  Cu105    1.0000 0.83146  0.83146  0.00000  Biso   1.000  Cu
  Cu106    1.0000 0.87348  0.87348  0.00000  Biso   1.000  Cu
  Cu107    1.0000 0.83146  0.33146  0.50000  Biso   1.000  Cu
  Cu108    1.0000 0.87348  0.37348  0.50000  Biso   1.000  Cu
  Cu109    1.0000 0.33146  0.83146  0.50000  Biso   1.000  Cu
  Cu110    1.0000 0.37348  0.87348  0.50000  Biso   1.000  Cu
  Cu111    1.0000 0.33146  0.33146  0.00000  Biso   1.000  Cu
  Cu112    1.0000 0.37348  0.37348  0.00000  Biso   1.000  Cu
  Cu113    1.0000 0.83146  0.16854  0.00000  Biso   1.000  Cu
  Cu114    1.0000 0.87348  0.12652  0.00000  Biso   1.000  Cu
  Cu115    1.0000 0.83146  0.66854  0.50000  Biso   1.000  Cu
  Cu116    1.0000 0.87348  0.62652  0.50000  Biso   1.000  Cu
  Cu117    1.0000 0.33146  0.16854  0.50000  Biso   1.000  Cu
  Cu118    1.0000 0.37348  0.12652  0.50000  Biso   1.000  Cu
  Cu119    1.0000 0.33146  0.66854  0.00000  Biso   1.000  Cu
  Cu120    1.0000 0.37348  0.62652  0.00000  Biso   1.000  Cu
  Cu121    1.0000 0.16854  0.83146  0.00000  Biso   1.000  Cu
  Cu122    1.0000 0.12652  0.87348  0.00000  Biso   1.000  Cu
  Cu123    1.0000 0.16854  0.33146  0.50000  Biso   1.000  Cu
  Cu124    1.0000 0.12652  0.37348  0.50000  Biso   1.000  Cu
  Cu125    1.0000 0.66854  0.83146  0.50000  Biso   1.000  Cu
  Cu126    1.0000 0.62652  0.87348  0.50000  Biso   1.000  Cu
  Cu127    1.0000 0.66854  0.33146  0.00000  Biso   1.000  Cu
  Cu128    1.0000 0.62652  0.37348  0.00000  Biso   1.000  Cu
  Cu129    1.0000 0.00000  0.16854  0.16854  Biso   1.000  Cu
  Cu130    1.0000 0.00000  0.12652  0.12652  Biso   1.000  Cu
  Cu131    1.0000 0.00000  0.66854  0.66854  Biso   1.000  Cu
  Cu132    1.0000 0.00000  0.62652  0.62652  Biso   1.000  Cu
  Cu133    1.0000 0.50000  0.16854  0.66854  Biso   1.000  Cu
  Cu134    1.0000 0.50000  0.12652  0.62652  Biso   1.000  Cu
  Cu135    1.0000 0.50000  0.66854  0.16854  Biso   1.000  Cu
  Cu136    1.0000 0.50000  0.62652  0.12652  Biso   1.000  Cu
  Cu137    1.0000 0.00000  0.83146  0.83146  Biso   1.000  Cu
  Cu138    1.0000 0.00000  0.87348  0.87348  Biso   1.000  Cu
  Cu139    1.0000 0.00000  0.33146  0.33146  Biso   1.000  Cu
  Cu140    1.0000 0.00000  0.37348  0.37348  Biso   1.000  Cu
  Cu141    1.0000 0.50000  0.83146  0.33146  Biso   1.000  Cu
  Cu142    1.0000 0.50000  0.87348  0.37348  Biso   1.000  Cu
  Cu143    1.0000 0.50000  0.33146  0.83146  Biso   1.000  Cu
  Cu144    1.0000 0.50000  0.37348  0.87348  Biso   1.000  Cu
  Cu145    1.0000 0.00000  0.83146  0.16854  Biso   1.000  Cu
  Cu146    1.0000 0.00000  0.87348  0.12652  Biso   1.000  Cu
  Cu147    1.0000 0.00000  0.33146  0.66854  Biso   1.000  Cu
  Cu148    1.0000 0.00000  0.37348  0.62652  Biso   1.000  Cu
  Cu149    1.0000 0.50000  0.83146  0.66854  Biso   1.000  Cu
  Cu150    1.0000 0.50000  0.87348  0.62652  Biso   1.000  Cu
  Cu151    1.0000 0.50000  0.33146  0.16854  Biso   1.000  Cu
  Cu152    1.0000 0.50000  0.37348  0.12652  Biso   1.000  Cu
  Cu153    1.0000 0.00000  0.16854  0.83146  Biso   1.000  Cu
  Cu154    1.0000 0.00000  0.12652  0.87348  Biso   1.000  Cu
  Cu155    1.0000 0.00000  0.66854  0.33146  Biso   1.000  Cu
  Cu156    1.0000 0.00000  0.62652  0.37348  Biso   1.000  Cu
  Cu157    1.0000 0.50000  0.16854  0.33146  Biso   1.000  Cu
  Cu158    1.0000 0.50000  0.12652  0.37348  Biso   1.000  Cu
  Cu159    1.0000 0.50000  0.66854  0.83146  Biso   1.000  Cu
  Cu160    1.0000 0.50000  0.62652  0.87348  Biso   1.000  Cu
  Cu161    1.0000 0.16854  0.00000  0.16854  Biso   1.000  Cu
  Cu162    1.0000 0.12652  0.00000  0.12652  Biso   1.000  Cu
  Cu163    1.0000 0.16854  0.50000  0.66854  Biso   1.000  Cu
  Cu164    1.0000 0.12652  0.50000  0.62652  Biso   1.000  Cu
  Cu165    1.0000 0.66854  0.00000  0.66854  Biso   1.000  Cu
  Cu166    1.0000 0.62652  0.00000  0.62652  Biso   1.000  Cu
  Cu167    1.0000 0.66854  0.50000  0.16854  Biso   1.000  Cu
  Cu168    1.0000 0.62652  0.50000  0.12652  Biso   1.000  Cu
  Cu169    1.0000 0.83146  0.00000  0.83146  Biso   1.000  Cu
  Cu170    1.0000 0.87348  0.00000  0.87348  Biso   1.000  Cu
  Cu171    1.0000 0.83146  0.50000  0.33146  Biso   1.000  Cu
  Cu172    1.0000 0.87348  0.50000  0.37348  Biso   1.000  Cu
  Cu173    1.0000 0.33146  0.00000  0.33146  Biso   1.000  Cu
  Cu174    1.0000 0.37348  0.00000  0.37348  Biso   1.000  Cu
  Cu175    1.0000 0.33146  0.50000  0.83146  Biso   1.000  Cu
  Cu176    1.0000 0.37348  0.50000  0.87348  Biso   1.000  Cu
  Cu177    1.0000 0.16854  0.00000  0.83146  Biso   1.000  Cu
  Cu178    1.0000 0.12652  0.00000  0.87348  Biso   1.000  Cu
  Cu179    1.0000 0.16854  0.50000  0.33146  Biso   1.000  Cu
  Cu180    1.0000 0.12652  0.50000  0.37348  Biso   1.000  Cu
  Cu181    1.0000 0.66854  0.00000  0.33146  Biso   1.000  Cu
  Cu182    1.0000 0.62652  0.00000  0.37348  Biso   1.000  Cu
  Cu183    1.0000 0.66854  0.50000  0.83146  Biso   1.000  Cu
  Cu184    1.0000 0.62652  0.50000  0.87348  Biso   1.000  Cu
  Cu185    1.0000 0.83146  0.00000  0.16854  Biso   1.000  Cu
  Cu186    1.0000 0.87348  0.00000  0.12652  Biso   1.000  Cu
  Cu187    1.0000 0.83146  0.50000  0.66854  Biso   1.000  Cu
  Cu188    1.0000 0.87348  0.50000  0.62652  Biso   1.000  Cu
  Cu189    1.0000 0.33146  0.00000  0.66854  Biso   1.000  Cu
  Cu190    1.0000 0.37348  0.00000  0.62652  Biso   1.000  Cu
  Cu191    1.0000 0.33146  0.50000  0.16854  Biso   1.000  Cu
  Cu192    1.0000 0.37348  0.50000  0.12652  Biso   1.000  Cu
  C577     1.0000 0.25710  0.11680  0.11680  Biso   1.000  C
  C578     1.0000 0.22913  0.10368  0.10368  Biso   1.000  C
  C579     1.0000 0.17726  0.07999  0.07999  Biso   1.000  C
  H193     1.0000 0.15970  0.07210  0.07210  Biso   1.000  H
  C580     1.0000 0.25710  0.61680  0.61680  Biso   1.000  C
  C581     1.0000 0.22913  0.60368  0.60368  Biso   1.000  C
  C582     1.0000 0.17726  0.57999  0.57999  Biso   1.000  C
  H194     1.0000 0.15970  0.57210  0.57210  Biso   1.000  H
  C583     1.0000 0.75710  0.11680  0.61680  Biso   1.000  C
  C584     1.0000 0.72913  0.10368  0.60368  Biso   1.000  C
  C585     1.0000 0.67726  0.07999  0.57999  Biso   1.000  C
  H195     1.0000 0.65970  0.07210  0.57210  Biso   1.000  H
  C586     1.0000 0.75710  0.61680  0.11680  Biso   1.000  C
  C587     1.0000 0.72913  0.60368  0.10368  Biso   1.000  C
  C588     1.0000 0.67726  0.57999  0.07999  Biso   1.000  C
  H196     1.0000 0.65970  0.57210  0.07210  Biso   1.000  H
  C589     1.0000 0.74290  0.88320  0.11680  Biso   1.000  C
  C590     1.0000 0.77087  0.89632  0.10368  Biso   1.000  C
  C591     1.0000 0.82274  0.92001  0.07999  Biso   1.000  C
  H197     1.0000 0.84030  0.92790  0.07210  Biso   1.000  H
  C592     1.0000 0.74290  0.38320  0.61680  Biso   1.000  C
  C593     1.0000 0.77087  0.39632  0.60368  Biso   1.000  C
  C594     1.0000 0.82274  0.42001  0.57999  Biso   1.000  C
  H198     1.0000 0.84030  0.42790  0.57210  Biso   1.000  H
  C595     1.0000 0.24290  0.88320  0.61680  Biso   1.000  C
  C596     1.0000 0.27087  0.89632  0.60368  Biso   1.000  C
  C597     1.0000 0.32274  0.92001  0.57999  Biso   1.000  C
  H199     1.0000 0.34030  0.92790  0.57210  Biso   1.000  H
  C598     1.0000 0.24290  0.38320  0.11680  Biso   1.000  C
  C599     1.0000 0.27087  0.39632  0.10368  Biso   1.000  C
  C600     1.0000 0.32274  0.42001  0.07999  Biso   1.000  C
  H200     1.0000 0.34030  0.42790  0.07210  Biso   1.000  H
  C601     1.0000 0.74290  0.11680  0.88320  Biso   1.000  C
  C602     1.0000 0.77087  0.10368  0.89632  Biso   1.000  C
  C603     1.0000 0.82274  0.07999  0.92001  Biso   1.000  C
  H201     1.0000 0.84030  0.07210  0.92790  Biso   1.000  H
  C604     1.0000 0.74290  0.61680  0.38320  Biso   1.000  C
  C605     1.0000 0.77087  0.60368  0.39632  Biso   1.000  C
  C606     1.0000 0.82274  0.57999  0.42001  Biso   1.000  C
  H202     1.0000 0.84030  0.57210  0.42790  Biso   1.000  H
  C607     1.0000 0.24290  0.11680  0.38320  Biso   1.000  C
  C608     1.0000 0.27087  0.10368  0.39632  Biso   1.000  C
  C609     1.0000 0.32274  0.07999  0.42001  Biso   1.000  C
  H203     1.0000 0.34030  0.07210  0.42790  Biso   1.000  H
  C610     1.0000 0.24290  0.61680  0.88320  Biso   1.000  C
  C611     1.0000 0.27087  0.60368  0.89632  Biso   1.000  C
  C612     1.0000 0.32274  0.57999  0.92001  Biso   1.000  C
  H204     1.0000 0.34030  0.57210  0.92790  Biso   1.000  H
  C613     1.0000 0.25710  0.88320  0.88320  Biso   1.000  C
  C614     1.0000 0.22913  0.89632  0.89632  Biso   1.000  C
  C615     1.0000 0.17726  0.92001  0.92001  Biso   1.000  C
  H205     1.0000 0.15970  0.92790  0.92790  Biso   1.000  H
  C616     1.0000 0.25710  0.38320  0.38320  Biso   1.000  C
  C617     1.0000 0.22913  0.39632  0.39632  Biso   1.000  C
  C618     1.0000 0.17726  0.42001  0.42001  Biso   1.000  C
  H206     1.0000 0.15970  0.42790  0.42790  Biso   1.000  H
  C619     1.0000 0.75710  0.88320  0.38320  Biso   1.000  C
  C620     1.0000 0.72913  0.89632  0.39632  Biso   1.000  C
  C621     1.0000 0.67726  0.92001  0.42001  Biso   1.000  C
  H207     1.0000 0.65970  0.92790  0.42790  Biso   1.000  H
  C622     1.0000 0.75710  0.38320  0.88320  Biso   1.000  C
  C623     1.0000 0.72913  0.39632  0.89632  Biso   1.000  C
  C624     1.0000 0.67726  0.42001  0.92001  Biso   1.000  C
  H208     1.0000 0.65970  0.42790  0.92790  Biso   1.000  H
  C625     1.0000 0.11680  0.25710  0.11680  Biso   1.000  C
  C626     1.0000 0.10368  0.22913  0.10368  Biso   1.000  C
  C627     1.0000 0.07999  0.17726  0.07999  Biso   1.000  C
  H209     1.0000 0.07210  0.15970  0.07210  Biso   1.000  H
  C628     1.0000 0.11680  0.75710  0.61680  Biso   1.000  C
  C629     1.0000 0.10368  0.72913  0.60368  Biso   1.000  C
  C630     1.0000 0.07999  0.67726  0.57999  Biso   1.000  C
  H210     1.0000 0.07210  0.65970  0.57210  Biso   1.000  H
  C631     1.0000 0.61680  0.25710  0.61680  Biso   1.000  C
  C632     1.0000 0.60368  0.22913  0.60368  Biso   1.000  C
  C633     1.0000 0.57999  0.17726  0.57999  Biso   1.000  C
  H211     1.0000 0.57210  0.15970  0.57210  Biso   1.000  H
  C634     1.0000 0.61680  0.75710  0.11680  Biso   1.000  C
  C635     1.0000 0.60368  0.72913  0.10368  Biso   1.000  C
  C636     1.0000 0.57999  0.67726  0.07999  Biso   1.000  C
  H212     1.0000 0.57210  0.65970  0.07210  Biso   1.000  H
  C637     1.0000 0.11680  0.74290  0.88320  Biso   1.000  C
  C638     1.0000 0.10368  0.77087  0.89632  Biso   1.000  C
  C639     1.0000 0.07999  0.82274  0.92001  Biso   1.000  C
  H213     1.0000 0.07210  0.84030  0.92790  Biso   1.000  H
  C640     1.0000 0.11680  0.24290  0.38320  Biso   1.000  C
  C641     1.0000 0.10368  0.27087  0.39632  Biso   1.000  C
  C642     1.0000 0.07999  0.32274  0.42001  Biso   1.000  C
  H214     1.0000 0.07210  0.34030  0.42790  Biso   1.000  H
  C643     1.0000 0.61680  0.74290  0.38320  Biso   1.000  C
  C644     1.0000 0.60368  0.77087  0.39632  Biso   1.000  C
  C645     1.0000 0.57999  0.82274  0.42001  Biso   1.000  C
  H215     1.0000 0.57210  0.84030  0.42790  Biso   1.000  H
  C646     1.0000 0.61680  0.24290  0.88320  Biso   1.000  C
  C647     1.0000 0.60368  0.27087  0.89632  Biso   1.000  C
  C648     1.0000 0.57999  0.32274  0.92001  Biso   1.000  C
  H216     1.0000 0.57210  0.34030  0.92790  Biso   1.000  H
  C649     1.0000 0.88320  0.74290  0.11680  Biso   1.000  C
  C650     1.0000 0.89632  0.77087  0.10368  Biso   1.000  C
  C651     1.0000 0.92001  0.82274  0.07999  Biso   1.000  C
  H217     1.0000 0.92790  0.84030  0.07210  Biso   1.000  H
  C652     1.0000 0.88320  0.24290  0.61680  Biso   1.000  C
  C653     1.0000 0.89632  0.27087  0.60368  Biso   1.000  C
  C654     1.0000 0.92001  0.32274  0.57999  Biso   1.000  C
  H218     1.0000 0.92790  0.34030  0.57210  Biso   1.000  H
  C655     1.0000 0.38320  0.74290  0.61680  Biso   1.000  C
  C656     1.0000 0.39632  0.77087  0.60368  Biso   1.000  C
  C657     1.0000 0.42001  0.82274  0.57999  Biso   1.000  C
  H219     1.0000 0.42790  0.84030  0.57210  Biso   1.000  H
  C658     1.0000 0.38320  0.24290  0.11680  Biso   1.000  C
  C659     1.0000 0.39632  0.27087  0.10368  Biso   1.000  C
  C660     1.0000 0.42001  0.32274  0.07999  Biso   1.000  C
  H220     1.0000 0.42790  0.34030  0.07210  Biso   1.000  H
  C661     1.0000 0.88320  0.25710  0.88320  Biso   1.000  C
  C662     1.0000 0.89632  0.22913  0.89632  Biso   1.000  C
  C663     1.0000 0.92001  0.17726  0.92001  Biso   1.000  C
  H221     1.0000 0.92790  0.15970  0.92790  Biso   1.000  H
  C664     1.0000 0.88320  0.75710  0.38320  Biso   1.000  C
  C665     1.0000 0.89632  0.72913  0.39632  Biso   1.000  C
  C666     1.0000 0.92001  0.67726  0.42001  Biso   1.000  C
  H222     1.0000 0.92790  0.65970  0.42790  Biso   1.000  H
  C667     1.0000 0.38320  0.25710  0.38320  Biso   1.000  C
  C668     1.0000 0.39632  0.22913  0.39632  Biso   1.000  C
  C669     1.0000 0.42001  0.17726  0.42001  Biso   1.000  C
  H223     1.0000 0.42790  0.15970  0.42790  Biso   1.000  H
  C670     1.0000 0.38320  0.75710  0.88320  Biso   1.000  C
  C671     1.0000 0.39632  0.72913  0.89632  Biso   1.000  C
  C672     1.0000 0.42001  0.67726  0.92001  Biso   1.000  C
  H224     1.0000 0.42790  0.65970  0.92790  Biso   1.000  H
  C673     1.0000 0.11680  0.11680  0.25710  Biso   1.000  C
  C674     1.0000 0.10368  0.10368  0.22913  Biso   1.000  C
  C675     1.0000 0.07999  0.07999  0.17726  Biso   1.000  C
  H225     1.0000 0.07210  0.07210  0.15970  Biso   1.000  H
  C676     1.0000 0.11680  0.61680  0.75710  Biso   1.000  C
  C677     1.0000 0.10368  0.60368  0.72913  Biso   1.000  C
  C678     1.0000 0.07999  0.57999  0.67726  Biso   1.000  C
  H226     1.0000 0.07210  0.57210  0.65970  Biso   1.000  H
  C679     1.0000 0.61680  0.11680  0.75710  Biso   1.000  C
  C680     1.0000 0.60368  0.10368  0.72913  Biso   1.000  C
  C681     1.0000 0.57999  0.07999  0.67726  Biso   1.000  C
  H227     1.0000 0.57210  0.07210  0.65970  Biso   1.000  H
  C682     1.0000 0.61680  0.61680  0.25710  Biso   1.000  C
  C683     1.0000 0.60368  0.60368  0.22913  Biso   1.000  C
  C684     1.0000 0.57999  0.57999  0.17726  Biso   1.000  C
  H228     1.0000 0.57210  0.57210  0.15970  Biso   1.000  H
  C685     1.0000 0.88320  0.11680  0.74290  Biso   1.000  C
  C686     1.0000 0.89632  0.10368  0.77087  Biso   1.000  C
  C687     1.0000 0.92001  0.07999  0.82274  Biso   1.000  C
  H229     1.0000 0.92790  0.07210  0.84030  Biso   1.000  H
  C688     1.0000 0.88320  0.61680  0.24290  Biso   1.000  C
  C689     1.0000 0.89632  0.60368  0.27087  Biso   1.000  C
  C690     1.0000 0.92001  0.57999  0.32274  Biso   1.000  C
  H230     1.0000 0.92790  0.57210  0.34030  Biso   1.000  H
  C691     1.0000 0.38320  0.11680  0.24290  Biso   1.000  C
  C692     1.0000 0.39632  0.10368  0.27087  Biso   1.000  C
  C693     1.0000 0.42001  0.07999  0.32274  Biso   1.000  C
  H231     1.0000 0.42790  0.07210  0.34030  Biso   1.000  H
  C694     1.0000 0.38320  0.61680  0.74290  Biso   1.000  C
  C695     1.0000 0.39632  0.60368  0.77087  Biso   1.000  C
  C696     1.0000 0.42001  0.57999  0.82274  Biso   1.000  C
  H232     1.0000 0.42790  0.57210  0.84030  Biso   1.000  H
  C697     1.0000 0.11680  0.88320  0.74290  Biso   1.000  C
  C698     1.0000 0.10368  0.89632  0.77087  Biso   1.000  C
  C699     1.0000 0.07999  0.92001  0.82274  Biso   1.000  C
  H233     1.0000 0.07210  0.92790  0.84030  Biso   1.000  H
  C700     1.0000 0.11680  0.38320  0.24290  Biso   1.000  C
  C701     1.0000 0.10368  0.39632  0.27087  Biso   1.000  C
  C702     1.0000 0.07999  0.42001  0.32274  Biso   1.000  C
  H234     1.0000 0.07210  0.42790  0.34030  Biso   1.000  H
  C703     1.0000 0.61680  0.88320  0.24290  Biso   1.000  C
  C704     1.0000 0.60368  0.89632  0.27087  Biso   1.000  C
  C705     1.0000 0.57999  0.92001  0.32274  Biso   1.000  C
  H235     1.0000 0.57210  0.92790  0.34030  Biso   1.000  H
  C706     1.0000 0.61680  0.38320  0.74290  Biso   1.000  C
  C707     1.0000 0.60368  0.39632  0.77087  Biso   1.000  C
  C708     1.0000 0.57999  0.42001  0.82274  Biso   1.000  C
  H236     1.0000 0.57210  0.42790  0.84030  Biso   1.000  H
  C709     1.0000 0.88320  0.88320  0.25710  Biso   1.000  C
  C710     1.0000 0.89632  0.89632  0.22913  Biso   1.000  C
  C711     1.0000 0.92001  0.92001  0.17726  Biso   1.000  C
  H237     1.0000 0.92790  0.92790  0.15970  Biso   1.000  H
  C712     1.0000 0.88320  0.38320  0.75710  Biso   1.000  C
  C713     1.0000 0.89632  0.39632  0.72913  Biso   1.000  C
  C714     1.0000 0.92001  0.42001  0.67726  Biso   1.000  C
  H238     1.0000 0.92790  0.42790  0.65970  Biso   1.000  H
  C715     1.0000 0.38320  0.88320  0.75710  Biso   1.000  C
  C716     1.0000 0.39632  0.89632  0.72913  Biso   1.000  C
  C717     1.0000 0.42001  0.92001  0.67726  Biso   1.000  C
  H239     1.0000 0.42790  0.92790  0.65970  Biso   1.000  H
  C718     1.0000 0.38320  0.38320  0.25710  Biso   1.000  C
  C719     1.0000 0.39632  0.39632  0.22913  Biso   1.000  C
  C720     1.0000 0.42001  0.42001  0.17726  Biso   1.000  C
  H240     1.0000 0.42790  0.42790  0.15970  Biso   1.000  H
  C721     1.0000 0.11680  0.25710  0.88320  Biso   1.000  C
  C722     1.0000 0.10368  0.22913  0.89632  Biso   1.000  C
  C723     1.0000 0.07999  0.17726  0.92001  Biso   1.000  C
  H241     1.0000 0.07210  0.15970  0.92790  Biso   1.000  H
  C724     1.0000 0.11680  0.75710  0.38320  Biso   1.000  C
  C725     1.0000 0.10368  0.72913  0.39632  Biso   1.000  C
  C726     1.0000 0.07999  0.67726  0.42001  Biso   1.000  C
  H242     1.0000 0.07210  0.65970  0.42790  Biso   1.000  H
  C727     1.0000 0.61680  0.25710  0.38320  Biso   1.000  C
  C728     1.0000 0.60368  0.22913  0.39632  Biso   1.000  C
  C729     1.0000 0.57999  0.17726  0.42001  Biso   1.000  C
  H243     1.0000 0.57210  0.15970  0.42790  Biso   1.000  H
  C730     1.0000 0.61680  0.75710  0.88320  Biso   1.000  C
  C731     1.0000 0.60368  0.72913  0.89632  Biso   1.000  C
  C732     1.0000 0.57999  0.67726  0.92001  Biso   1.000  C
  H244     1.0000 0.57210  0.65970  0.92790  Biso   1.000  H
  C733     1.0000 0.88320  0.74290  0.88320  Biso   1.000  C
  C734     1.0000 0.89632  0.77087  0.89632  Biso   1.000  C
  C735     1.0000 0.92001  0.82274  0.92001  Biso   1.000  C
  H245     1.0000 0.92790  0.84030  0.92790  Biso   1.000  H
  C736     1.0000 0.88320  0.24290  0.38320  Biso   1.000  C
  C737     1.0000 0.89632  0.27087  0.39632  Biso   1.000  C
  C738     1.0000 0.92001  0.32274  0.42001  Biso   1.000  C
  H246     1.0000 0.92790  0.34030  0.42790  Biso   1.000  H
  C739     1.0000 0.38320  0.74290  0.38320  Biso   1.000  C
  C740     1.0000 0.39632  0.77087  0.39632  Biso   1.000  C
  C741     1.0000 0.42001  0.82274  0.42001  Biso   1.000  C
  H247     1.0000 0.42790  0.84030  0.42790  Biso   1.000  H
  C742     1.0000 0.38320  0.24290  0.88320  Biso   1.000  C
  C743     1.0000 0.39632  0.27087  0.89632  Biso   1.000  C
  C744     1.0000 0.42001  0.32274  0.92001  Biso   1.000  C
  H248     1.0000 0.42790  0.34030  0.92790  Biso   1.000  H
  C745     1.0000 0.11680  0.74290  0.11680  Biso   1.000  C
  C746     1.0000 0.10368  0.77087  0.10368  Biso   1.000  C
  C747     1.0000 0.07999  0.82274  0.07999  Biso   1.000  C
  H249     1.0000 0.07210  0.84030  0.07210  Biso   1.000  H
  C748     1.0000 0.11680  0.24290  0.61680  Biso   1.000  C
  C749     1.0000 0.10368  0.27087  0.60368  Biso   1.000  C
  C750     1.0000 0.07999  0.32274  0.57999  Biso   1.000  C
  H250     1.0000 0.07210  0.34030  0.57210  Biso   1.000  H
  C751     1.0000 0.61680  0.74290  0.61680  Biso   1.000  C
  C752     1.0000 0.60368  0.77087  0.60368  Biso   1.000  C
  C753     1.0000 0.57999  0.82274  0.57999  Biso   1.000  C
  H251     1.0000 0.57210  0.84030  0.57210  Biso   1.000  H
  C754     1.0000 0.61680  0.24290  0.11680  Biso   1.000  C
  C755     1.0000 0.60368  0.27087  0.10368  Biso   1.000  C
  C756     1.0000 0.57999  0.32274  0.07999  Biso   1.000  C
  H252     1.0000 0.57210  0.34030  0.07210  Biso   1.000  H
  C757     1.0000 0.88320  0.25710  0.11680  Biso   1.000  C
  C758     1.0000 0.89632  0.22913  0.10368  Biso   1.000  C
  C759     1.0000 0.92001  0.17726  0.07999  Biso   1.000  C
  H253     1.0000 0.92790  0.15970  0.07210  Biso   1.000  H
  C760     1.0000 0.88320  0.75710  0.61680  Biso   1.000  C
  C761     1.0000 0.89632  0.72913  0.60368  Biso   1.000  C
  C762     1.0000 0.92001  0.67726  0.57999  Biso   1.000  C
  H254     1.0000 0.92790  0.65970  0.57210  Biso   1.000  H
  C763     1.0000 0.38320  0.25710  0.61680  Biso   1.000  C
  C764     1.0000 0.39632  0.22913  0.60368  Biso   1.000  C
  C765     1.0000 0.42001  0.17726  0.57999  Biso   1.000  C
  H255     1.0000 0.42790  0.15970  0.57210  Biso   1.000  H
  C766     1.0000 0.38320  0.75710  0.11680  Biso   1.000  C
  C767     1.0000 0.39632  0.72913  0.10368  Biso   1.000  C
  C768     1.0000 0.42001  0.67726  0.07999  Biso   1.000  C
  H256     1.0000 0.42790  0.65970  0.07210  Biso   1.000  H
  C769     1.0000 0.25710  0.11680  0.88320  Biso   1.000  C
  C770     1.0000 0.22913  0.10368  0.89632  Biso   1.000  C
  C771     1.0000 0.17726  0.07999  0.92001  Biso   1.000  C
  H257     1.0000 0.15970  0.07210  0.92790  Biso   1.000  H
  C772     1.0000 0.25710  0.61680  0.38320  Biso   1.000  C
  C773     1.0000 0.22913  0.60368  0.39632  Biso   1.000  C
  C774     1.0000 0.17726  0.57999  0.42001  Biso   1.000  C
  H258     1.0000 0.15970  0.57210  0.42790  Biso   1.000  H
  C775     1.0000 0.75710  0.11680  0.38320  Biso   1.000  C
  C776     1.0000 0.72913  0.10368  0.39632  Biso   1.000  C
  C777     1.0000 0.67726  0.07999  0.42001  Biso   1.000  C
  H259     1.0000 0.65970  0.07210  0.42790  Biso   1.000  H
  C778     1.0000 0.75710  0.61680  0.88320  Biso   1.000  C
  C779     1.0000 0.72913  0.60368  0.89632  Biso   1.000  C
  C780     1.0000 0.67726  0.57999  0.92001  Biso   1.000  C
  H260     1.0000 0.65970  0.57210  0.92790  Biso   1.000  H
  C781     1.0000 0.74290  0.11680  0.11680  Biso   1.000  C
  C782     1.0000 0.77087  0.10368  0.10368  Biso   1.000  C
  C783     1.0000 0.82274  0.07999  0.07999  Biso   1.000  C
  H261     1.0000 0.84030  0.07210  0.07210  Biso   1.000  H
  C784     1.0000 0.74290  0.61680  0.61680  Biso   1.000  C
  C785     1.0000 0.77087  0.60368  0.60368  Biso   1.000  C
  C786     1.0000 0.82274  0.57999  0.57999  Biso   1.000  C
  H262     1.0000 0.84030  0.57210  0.57210  Biso   1.000  H
  C787     1.0000 0.24290  0.11680  0.61680  Biso   1.000  C
  C788     1.0000 0.27087  0.10368  0.60368  Biso   1.000  C
  C789     1.0000 0.32274  0.07999  0.57999  Biso   1.000  C
  H263     1.0000 0.34030  0.07210  0.57210  Biso   1.000  H
  C790     1.0000 0.24290  0.61680  0.11680  Biso   1.000  C
  C791     1.0000 0.27087  0.60368  0.10368  Biso   1.000  C
  C792     1.0000 0.32274  0.57999  0.07999  Biso   1.000  C
  H264     1.0000 0.34030  0.57210  0.07210  Biso   1.000  H
  C793     1.0000 0.74290  0.88320  0.88320  Biso   1.000  C
  C794     1.0000 0.77087  0.89632  0.89632  Biso   1.000  C
  C795     1.0000 0.82274  0.92001  0.92001  Biso   1.000  C
  H265     1.0000 0.84030  0.92790  0.92790  Biso   1.000  H
  C796     1.0000 0.74290  0.38320  0.38320  Biso   1.000  C
  C797     1.0000 0.77087  0.39632  0.39632  Biso   1.000  C
  C798     1.0000 0.82274  0.42001  0.42001  Biso   1.000  C
  H266     1.0000 0.84030  0.42790  0.42790  Biso   1.000  H
  C799     1.0000 0.24290  0.88320  0.38320  Biso   1.000  C
  C800     1.0000 0.27087  0.89632  0.39632  Biso   1.000  C
  C801     1.0000 0.32274  0.92001  0.42001  Biso   1.000  C
  H267     1.0000 0.34030  0.92790  0.42790  Biso   1.000  H
  C802     1.0000 0.24290  0.38320  0.88320  Biso   1.000  C
  C803     1.0000 0.27087  0.39632  0.89632  Biso   1.000  C
  C804     1.0000 0.32274  0.42001  0.92001  Biso   1.000  C
  H268     1.0000 0.34030  0.42790  0.92790  Biso   1.000  H
  C805     1.0000 0.25710  0.88320  0.11680  Biso   1.000  C
  C806     1.0000 0.22913  0.89632  0.10368  Biso   1.000  C
  C807     1.0000 0.17726  0.92001  0.07999  Biso   1.000  C
  H269     1.0000 0.15970  0.92790  0.07210  Biso   1.000  H
  C808     1.0000 0.25710  0.38320  0.61680  Biso   1.000  C
  C809     1.0000 0.22913  0.39632  0.60368  Biso   1.000  C
  C810     1.0000 0.17726  0.42001  0.57999  Biso   1.000  C
  H270     1.0000 0.15970  0.42790  0.57210  Biso   1.000  H
  C811     1.0000 0.75710  0.88320  0.61680  Biso   1.000  C
  C812     1.0000 0.72913  0.89632  0.60368  Biso   1.000  C
  C813     1.0000 0.67726  0.92001  0.57999  Biso   1.000  C
  H271     1.0000 0.65970  0.92790  0.57210  Biso   1.000  H
  C814     1.0000 0.75710  0.38320  0.11680  Biso   1.000  C
  C815     1.0000 0.72913  0.39632  0.10368  Biso   1.000  C
  C816     1.0000 0.67726  0.42001  0.07999  Biso   1.000  C
  H272     1.0000 0.65970  0.42790  0.07210  Biso   1.000  H
  C817     1.0000 0.11680  0.11680  0.74290  Biso   1.000  C
  C818     1.0000 0.10368  0.10368  0.77087  Biso   1.000  C
  C819     1.0000 0.07999  0.07999  0.82274  Biso   1.000  C
  H273     1.0000 0.07210  0.07210  0.84030  Biso   1.000  H
  C820     1.0000 0.11680  0.61680  0.24290  Biso   1.000  C
  C821     1.0000 0.10368  0.60368  0.27087  Biso   1.000  C
  C822     1.0000 0.07999  0.57999  0.32274  Biso   1.000  C
  H274     1.0000 0.07210  0.57210  0.34030  Biso   1.000  H
  C823     1.0000 0.61680  0.11680  0.24290  Biso   1.000  C
  C824     1.0000 0.60368  0.10368  0.27087  Biso   1.000  C
  C825     1.0000 0.57999  0.07999  0.32274  Biso   1.000  C
  H275     1.0000 0.57210  0.07210  0.34030  Biso   1.000  H
  C826     1.0000 0.61680  0.61680  0.74290  Biso   1.000  C
  C827     1.0000 0.60368  0.60368  0.77087  Biso   1.000  C
  C828     1.0000 0.57999  0.57999  0.82274  Biso   1.000  C
  H276     1.0000 0.57210  0.57210  0.84030  Biso   1.000  H
  C829     1.0000 0.11680  0.88320  0.25710  Biso   1.000  C
  C830     1.0000 0.10368  0.89632  0.22913  Biso   1.000  C
  C831     1.0000 0.07999  0.92001  0.17726  Biso   1.000  C
  H277     1.0000 0.07210  0.92790  0.15970  Biso   1.000  H
  C832     1.0000 0.11680  0.38320  0.75710  Biso   1.000  C
  C833     1.0000 0.10368  0.39632  0.72913  Biso   1.000  C
  C834     1.0000 0.07999  0.42001  0.67726  Biso   1.000  C
  H278     1.0000 0.07210  0.42790  0.65970  Biso   1.000  H
  C835     1.0000 0.61680  0.88320  0.75710  Biso   1.000  C
  C836     1.0000 0.60368  0.89632  0.72913  Biso   1.000  C
  C837     1.0000 0.57999  0.92001  0.67726  Biso   1.000  C
  H279     1.0000 0.57210  0.92790  0.65970  Biso   1.000  H
  C838     1.0000 0.61680  0.38320  0.25710  Biso   1.000  C
  C839     1.0000 0.60368  0.39632  0.22913  Biso   1.000  C
  C840     1.0000 0.57999  0.42001  0.17726  Biso   1.000  C
  H280     1.0000 0.57210  0.42790  0.15970  Biso   1.000  H
  C841     1.0000 0.88320  0.11680  0.25710  Biso   1.000  C
  C842     1.0000 0.89632  0.10368  0.22913  Biso   1.000  C
  C843     1.0000 0.92001  0.07999  0.17726  Biso   1.000  C
  H281     1.0000 0.92790  0.07210  0.15970  Biso   1.000  H
  C844     1.0000 0.88320  0.61680  0.75710  Biso   1.000  C
  C845     1.0000 0.89632  0.60368  0.72913  Biso   1.000  C
  C846     1.0000 0.92001  0.57999  0.67726  Biso   1.000  C
  H282     1.0000 0.92790  0.57210  0.65970  Biso   1.000  H
  C847     1.0000 0.38320  0.11680  0.75710  Biso   1.000  C
  C848     1.0000 0.39632  0.10368  0.72913  Biso   1.000  C
  C849     1.0000 0.42001  0.07999  0.67726  Biso   1.000  C
  H283     1.0000 0.42790  0.07210  0.65970  Biso   1.000  H
  C850     1.0000 0.38320  0.61680  0.25710  Biso   1.000  C
  C851     1.0000 0.39632  0.60368  0.22913  Biso   1.000  C
  C852     1.0000 0.42001  0.57999  0.17726  Biso   1.000  C
  H284     1.0000 0.42790  0.57210  0.15970  Biso   1.000  H
  C853     1.0000 0.88320  0.88320  0.74290  Biso   1.000  C
  C854     1.0000 0.89632  0.89632  0.77087  Biso   1.000  C
  C855     1.0000 0.92001  0.92001  0.82274  Biso   1.000  C
  H285     1.0000 0.92790  0.92790  0.84030  Biso   1.000  H
  C856     1.0000 0.88320  0.38320  0.24290  Biso   1.000  C
  C857     1.0000 0.89632  0.39632  0.27087  Biso   1.000  C
  C858     1.0000 0.92001  0.42001  0.32274  Biso   1.000  C
  H286     1.0000 0.92790  0.42790  0.34030  Biso   1.000  H
  C859     1.0000 0.38320  0.88320  0.24290  Biso   1.000  C
  C860     1.0000 0.39632  0.89632  0.27087  Biso   1.000  C
  C861     1.0000 0.42001  0.92001  0.32274  Biso   1.000  C
  H287     1.0000 0.42790  0.92790  0.34030  Biso   1.000  H
  C862     1.0000 0.38320  0.38320  0.74290  Biso   1.000  C
  C863     1.0000 0.39632  0.39632  0.77087  Biso   1.000  C
  C864     1.0000 0.42001  0.42001  0.82274  Biso   1.000  C
  H288     1.0000 0.42790  0.42790  0.84030  Biso   1.000  H
