data_image0
_cell_length_a       44.4742
_cell_length_b       44.4742
_cell_length_c       44.4742
_cell_angle_alpha    90
_cell_angle_beta     90
_cell_angle_gamma    90

_symmetry_space_group_name_H-M    "P 1"
_symmetry_int_tables_number       1

loop_
  _symmetry_equiv_pos_as_xyz
  'x, y, z'

loop_
  _atom_site_label
  _atom_site_occupancy
  _atom_site_fract_x
  _atom_site_fract_y
  _atom_site_fract_z
  _atom_site_thermal_displace_type
  _atom_site_B_iso_or_equiv
  _atom_site_type_symbol
  O1       1.0000 0.15180  0.10747  0.03080  Biso   1.000  O
  O2       1.0000 0.18716  0.14352  0.03059  Biso   1.000  O
  N1       1.0000 0.27094  0.13891  0.10352  Biso   1.000  N
  N2       1.0000 0.29256  0.14567  0.12575  Biso   1.000  N
  C1       1.0000 0.21645  0.11625  0.07728  Biso   1.000  C
  H1       1.0000 0.22654  0.13161  0.06731  Biso   1.000  H
  C2       1.0000 0.19021  0.10528  0.06648  Biso   1.000  C
  C3       1.0000 0.17482  0.12091  0.04004  Biso   1.000  C
  O3       1.0000 0.15180  0.60747  0.53080  Biso   1.000  O
  O4       1.0000 0.18716  0.64352  0.53059  Biso   1.000  O
  N3       1.0000 0.27094  0.63891  0.60352  Biso   1.000  N
  N4       1.0000 0.29256  0.64567  0.62575  Biso   1.000  N
  C4       1.0000 0.21645  0.61625  0.57728  Biso   1.000  C
  H2       1.0000 0.22654  0.63161  0.56731  Biso   1.000  H
  C5       1.0000 0.19021  0.60528  0.56648  Biso   1.000  C
  C6       1.0000 0.17482  0.62091  0.54004  Biso   1.000  C
  O5       1.0000 0.65180  0.10747  0.53080  Biso   1.000  O
  O6       1.0000 0.68716  0.14352  0.53059  Biso   1.000  O
  N5       1.0000 0.77094  0.13891  0.60352  Biso   1.000  N
  N6       1.0000 0.79256  0.14567  0.62575  Biso   1.000  N
  C7       1.0000 0.71645  0.11625  0.57728  Biso   1.000  C
  H3       1.0000 0.72654  0.13161  0.56731  Biso   1.000  H
  C8       1.0000 0.69021  0.10528  0.56648  Biso   1.000  C
  C9       1.0000 0.67482  0.12091  0.54004  Biso   1.000  C
  O7       1.0000 0.65180  0.60747  0.03080  Biso   1.000  O
  O8       1.0000 0.68716  0.64352  0.03059  Biso   1.000  O
  N7       1.0000 0.77094  0.63891  0.10352  Biso   1.000  N
  N8       1.0000 0.79256  0.64567  0.12575  Biso   1.000  N
  C10      1.0000 0.71645  0.61625  0.07728  Biso   1.000  C
  H4       1.0000 0.72654  0.63161  0.06731  Biso   1.000  H
  C11      1.0000 0.69021  0.60528  0.06648  Biso   1.000  C
  C12      1.0000 0.67482  0.62091  0.04004  Biso   1.000  C
  O9       1.0000 0.84820  0.89253  0.03080  Biso   1.000  O
  O10      1.0000 0.81284  0.85648  0.03059  Biso   1.000  O
  N9       1.0000 0.72906  0.86109  0.10352  Biso   1.000  N
  N10      1.0000 0.70744  0.85433  0.12575  Biso   1.000  N
  C13      1.0000 0.78355  0.88375  0.07728  Biso   1.000  C
  H5       1.0000 0.77346  0.86839  0.06731  Biso   1.000  H
  C14      1.0000 0.80979  0.89472  0.06648  Biso   1.000  C
  C15      1.0000 0.82518  0.87909  0.04004  Biso   1.000  C
  O11      1.0000 0.84820  0.39253  0.53080  Biso   1.000  O
  O12      1.0000 0.81284  0.35648  0.53059  Biso   1.000  O
  N11      1.0000 0.72906  0.36109  0.60352  Biso   1.000  N
  N12      1.0000 0.70744  0.35433  0.62575  Biso   1.000  N
  C16      1.0000 0.78355  0.38375  0.57728  Biso   1.000  C
  H6       1.0000 0.77346  0.36839  0.56731  Biso   1.000  H
  C17      1.0000 0.80979  0.39472  0.56648  Biso   1.000  C
  C18      1.0000 0.82518  0.37909  0.54004  Biso   1.000  C
  O13      1.0000 0.34820  0.89253  0.53080  Biso   1.000  O
  O14      1.0000 0.31284  0.85648  0.53059  Biso   1.000  O
  N13      1.0000 0.22906  0.86109  0.60352  Biso   1.000  N
  N14      1.0000 0.20744  0.85433  0.62575  Biso   1.000  N
  C19      1.0000 0.28355  0.88375  0.57728  Biso   1.000  C
  H7       1.0000 0.27346  0.86839  0.56731  Biso   1.000  H
  C20      1.0000 0.30979  0.89472  0.56648  Biso   1.000  C
  C21      1.0000 0.32518  0.87909  0.54004  Biso   1.000  C
  O15      1.0000 0.34820  0.39253  0.03080  Biso   1.000  O
  O16      1.0000 0.31284  0.35648  0.03059  Biso   1.000  O
  N15      1.0000 0.22906  0.36109  0.10352  Biso   1.000  N
  N16      1.0000 0.20744  0.35433  0.12575  Biso   1.000  N
  C22      1.0000 0.28355  0.38375  0.07728  Biso   1.000  C
  H8       1.0000 0.27346  0.36839  0.06731  Biso   1.000  H
  C23      1.0000 0.30979  0.39472  0.06648  Biso   1.000  C
  C24      1.0000 0.32518  0.37909  0.04004  Biso   1.000  C
  O17      1.0000 0.84820  0.10747  0.96920  Biso   1.000  O
  O18      1.0000 0.81284  0.14352  0.96941  Biso   1.000  O
  N17      1.0000 0.72906  0.13891  0.89648  Biso   1.000  N
  N18      1.0000 0.70744  0.14567  0.87425  Biso   1.000  N
  C25      1.0000 0.78355  0.11625  0.92272  Biso   1.000  C
  H9       1.0000 0.77346  0.13161  0.93269  Biso   1.000  H
  C26      1.0000 0.80979  0.10528  0.93352  Biso   1.000  C
  C27      1.0000 0.82518  0.12091  0.95996  Biso   1.000  C
  O19      1.0000 0.84820  0.60747  0.46920  Biso   1.000  O
  O20      1.0000 0.81284  0.64352  0.46941  Biso   1.000  O
  N19      1.0000 0.72906  0.63891  0.39648  Biso   1.000  N
  N20      1.0000 0.70744  0.64567  0.37425  Biso   1.000  N
  C28      1.0000 0.78355  0.61625  0.42272  Biso   1.000  C
  H10      1.0000 0.77346  0.63161  0.43269  Biso   1.000  H
  C29      1.0000 0.80979  0.60528  0.43352  Biso   1.000  C
  C30      1.0000 0.82518  0.62091  0.45996  Biso   1.000  C
  O21      1.0000 0.34820  0.10747  0.46920  Biso   1.000  O
  O22      1.0000 0.31284  0.14352  0.46941  Biso   1.000  O
  N21      1.0000 0.22906  0.13891  0.39648  Biso   1.000  N
  N22      1.0000 0.20744  0.14567  0.37425  Biso   1.000  N
  C31      1.0000 0.28355  0.11625  0.42272  Biso   1.000  C
  H11      1.0000 0.27346  0.13161  0.43269  Biso   1.000  H
  C32      1.0000 0.30979  0.10528  0.43352  Biso   1.000  C
  C33      1.0000 0.32518  0.12091  0.45996  Biso   1.000  C
  O23      1.0000 0.34820  0.60747  0.96920  Biso   1.000  O
  O24      1.0000 0.31284  0.64352  0.96941  Biso   1.000  O
  N23      1.0000 0.22906  0.63891  0.89648  Biso   1.000  N
  N24      1.0000 0.20744  0.64567  0.87425  Biso   1.000  N
  C34      1.0000 0.28355  0.61625  0.92272  Biso   1.000  C
  H12      1.0000 0.27346  0.63161  0.93269  Biso   1.000  H
  C35      1.0000 0.30979  0.60528  0.93352  Biso   1.000  C
  C36      1.0000 0.32518  0.62091  0.95996  Biso   1.000  C
  O25      1.0000 0.15180  0.89253  0.96920  Biso   1.000  O
  O26      1.0000 0.18716  0.85648  0.96941  Biso   1.000  O
  N25      1.0000 0.27094  0.86109  0.89648  Biso   1.000  N
  N26      1.0000 0.29256  0.85433  0.87425  Biso   1.000  N
  C37      1.0000 0.21645  0.88375  0.92272  Biso   1.000  C
  H13      1.0000 0.22654  0.86839  0.93269  Biso   1.000  H
  C38      1.0000 0.19021  0.89472  0.93352  Biso   1.000  C
  C39      1.0000 0.17482  0.87909  0.95996  Biso   1.000  C
  O27      1.0000 0.15180  0.39253  0.46920  Biso   1.000  O
  O28      1.0000 0.18716  0.35648  0.46941  Biso   1.000  O
  N27      1.0000 0.27094  0.36109  0.39648  Biso   1.000  N
  N28      1.0000 0.29256  0.35433  0.37425  Biso   1.000  N
  C40      1.0000 0.21645  0.38375  0.42272  Biso   1.000  C
  H14      1.0000 0.22654  0.36839  0.43269  Biso   1.000  H
  C41      1.0000 0.19021  0.39472  0.43352  Biso   1.000  C
  C42      1.0000 0.17482  0.37909  0.45996  Biso   1.000  C
  O29      1.0000 0.65180  0.89253  0.46920  Biso   1.000  O
  O30      1.0000 0.68716  0.85648  0.46941  Biso   1.000  O
  N29      1.0000 0.77094  0.86109  0.39648  Biso   1.000  N
  N30      1.0000 0.79256  0.85433  0.37425  Biso   1.000  N
  C43      1.0000 0.71645  0.88375  0.42272  Biso   1.000  C
  H15      1.0000 0.72654  0.86839  0.43269  Biso   1.000  H
  C44      1.0000 0.69021  0.89472  0.43352  Biso   1.000  C
  C45      1.0000 0.67482  0.87909  0.45996  Biso   1.000  C
  O31      1.0000 0.65180  0.39253  0.96920  Biso   1.000  O
  O32      1.0000 0.68716  0.35648  0.96941  Biso   1.000  O
  N31      1.0000 0.77094  0.36109  0.89648  Biso   1.000  N
  N32      1.0000 0.79256  0.35433  0.87425  Biso   1.000  N
  C46      1.0000 0.71645  0.38375  0.92272  Biso   1.000  C
  H16      1.0000 0.72654  0.36839  0.93269  Biso   1.000  H
  C47      1.0000 0.69021  0.39472  0.93352  Biso   1.000  C
  C48      1.0000 0.67482  0.37909  0.95996  Biso   1.000  C
  O33      1.0000 0.03080  0.15180  0.10747  Biso   1.000  O
  O34      1.0000 0.03059  0.18716  0.14352  Biso   1.000  O
  N33      1.0000 0.10352  0.27094  0.13891  Biso   1.000  N
  N34      1.0000 0.12575  0.29256  0.14567  Biso   1.000  N
  C49      1.0000 0.07728  0.21645  0.11625  Biso   1.000  C
  H17      1.0000 0.06731  0.22654  0.13161  Biso   1.000  H
  C50      1.0000 0.06648  0.19021  0.10528  Biso   1.000  C
  C51      1.0000 0.04004  0.17482  0.12091  Biso   1.000  C
  O35      1.0000 0.03080  0.65180  0.60747  Biso   1.000  O
  O36      1.0000 0.03059  0.68716  0.64352  Biso   1.000  O
  N35      1.0000 0.10352  0.77094  0.63891  Biso   1.000  N
  N36      1.0000 0.12575  0.79256  0.64567  Biso   1.000  N
  C52      1.0000 0.07728  0.71645  0.61625  Biso   1.000  C
  H18      1.0000 0.06731  0.72654  0.63161  Biso   1.000  H
  C53      1.0000 0.06648  0.69021  0.60528  Biso   1.000  C
  C54      1.0000 0.04004  0.67482  0.62091  Biso   1.000  C
  O37      1.0000 0.53080  0.15180  0.60747  Biso   1.000  O
  O38      1.0000 0.53059  0.18716  0.64352  Biso   1.000  O
  N37      1.0000 0.60352  0.27094  0.63891  Biso   1.000  N
  N38      1.0000 0.62575  0.29256  0.64567  Biso   1.000  N
  C55      1.0000 0.57728  0.21645  0.61625  Biso   1.000  C
  H19      1.0000 0.56731  0.22654  0.63161  Biso   1.000  H
  C56      1.0000 0.56648  0.19021  0.60528  Biso   1.000  C
  C57      1.0000 0.54004  0.17482  0.62091  Biso   1.000  C
  O39      1.0000 0.53080  0.65180  0.10747  Biso   1.000  O
  O40      1.0000 0.53059  0.68716  0.14352  Biso   1.000  O
  N39      1.0000 0.60352  0.77094  0.13891  Biso   1.000  N
  N40      1.0000 0.62575  0.79256  0.14567  Biso   1.000  N
  C58      1.0000 0.57728  0.71645  0.11625  Biso   1.000  C
  H20      1.0000 0.56731  0.72654  0.13161  Biso   1.000  H
  C59      1.0000 0.56648  0.69021  0.10528  Biso   1.000  C
  C60      1.0000 0.54004  0.67482  0.12091  Biso   1.000  C
  O41      1.0000 0.03080  0.84820  0.89253  Biso   1.000  O
  O42      1.0000 0.03059  0.81284  0.85648  Biso   1.000  O
  N41      1.0000 0.10352  0.72906  0.86109  Biso   1.000  N
  N42      1.0000 0.12575  0.70744  0.85433  Biso   1.000  N
  C61      1.0000 0.07728  0.78355  0.88375  Biso   1.000  C
  H21      1.0000 0.06731  0.77346  0.86839  Biso   1.000  H
  C62      1.0000 0.06648  0.80979  0.89472  Biso   1.000  C
  C63      1.0000 0.04004  0.82518  0.87909  Biso   1.000  C
  O43      1.0000 0.03080  0.34820  0.39253  Biso   1.000  O
  O44      1.0000 0.03059  0.31284  0.35648  Biso   1.000  O
  N43      1.0000 0.10352  0.22906  0.36109  Biso   1.000  N
  N44      1.0000 0.12575  0.20744  0.35433  Biso   1.000  N
  C64      1.0000 0.07728  0.28355  0.38375  Biso   1.000  C
  H22      1.0000 0.06731  0.27346  0.36839  Biso   1.000  H
  C65      1.0000 0.06648  0.30979  0.39472  Biso   1.000  C
  C66      1.0000 0.04004  0.32518  0.37909  Biso   1.000  C
  O45      1.0000 0.53080  0.84820  0.39253  Biso   1.000  O
  O46      1.0000 0.53059  0.81284  0.35648  Biso   1.000  O
  N45      1.0000 0.60352  0.72906  0.36109  Biso   1.000  N
  N46      1.0000 0.62575  0.70744  0.35433  Biso   1.000  N
  C67      1.0000 0.57728  0.78355  0.38375  Biso   1.000  C
  H23      1.0000 0.56731  0.77346  0.36839  Biso   1.000  H
  C68      1.0000 0.56648  0.80979  0.39472  Biso   1.000  C
  C69      1.0000 0.54004  0.82518  0.37909  Biso   1.000  C
  O47      1.0000 0.53080  0.34820  0.89253  Biso   1.000  O
  O48      1.0000 0.53059  0.31284  0.85648  Biso   1.000  O
  N47      1.0000 0.60352  0.22906  0.86109  Biso   1.000  N
  N48      1.0000 0.62575  0.20744  0.85433  Biso   1.000  N
  C70      1.0000 0.57728  0.28355  0.88375  Biso   1.000  C
  H24      1.0000 0.56731  0.27346  0.86839  Biso   1.000  H
  C71      1.0000 0.56648  0.30979  0.89472  Biso   1.000  C
  C72      1.0000 0.54004  0.32518  0.87909  Biso   1.000  C
  O49      1.0000 0.96920  0.84820  0.10747  Biso   1.000  O
  O50      1.0000 0.96941  0.81284  0.14352  Biso   1.000  O
  N49      1.0000 0.89648  0.72906  0.13891  Biso   1.000  N
  N50      1.0000 0.87425  0.70744  0.14567  Biso   1.000  N
  C73      1.0000 0.92272  0.78355  0.11625  Biso   1.000  C
  H25      1.0000 0.93269  0.77346  0.13161  Biso   1.000  H
  C74      1.0000 0.93352  0.80979  0.10528  Biso   1.000  C
  C75      1.0000 0.95996  0.82518  0.12091  Biso   1.000  C
  O51      1.0000 0.96920  0.34820  0.60747  Biso   1.000  O
  O52      1.0000 0.96941  0.31284  0.64352  Biso   1.000  O
  N51      1.0000 0.89648  0.22906  0.63891  Biso   1.000  N
  N52      1.0000 0.87425  0.20744  0.64567  Biso   1.000  N
  C76      1.0000 0.92272  0.28355  0.61625  Biso   1.000  C
  H26      1.0000 0.93269  0.27346  0.63161  Biso   1.000  H
  C77      1.0000 0.93352  0.30979  0.60528  Biso   1.000  C
  C78      1.0000 0.95996  0.32518  0.62091  Biso   1.000  C
  O53      1.0000 0.46920  0.84820  0.60747  Biso   1.000  O
  O54      1.0000 0.46941  0.81284  0.64352  Biso   1.000  O
  N53      1.0000 0.39648  0.72906  0.63891  Biso   1.000  N
  N54      1.0000 0.37425  0.70744  0.64567  Biso   1.000  N
  C79      1.0000 0.42272  0.78355  0.61625  Biso   1.000  C
  H27      1.0000 0.43269  0.77346  0.63161  Biso   1.000  H
  C80      1.0000 0.43352  0.80979  0.60528  Biso   1.000  C
  C81      1.0000 0.45996  0.82518  0.62091  Biso   1.000  C
  O55      1.0000 0.46920  0.34820  0.10747  Biso   1.000  O
  O56      1.0000 0.46941  0.31284  0.14352  Biso   1.000  O
  N55      1.0000 0.39648  0.22906  0.13891  Biso   1.000  N
  N56      1.0000 0.37425  0.20744  0.14567  Biso   1.000  N
  C82      1.0000 0.42272  0.28355  0.11625  Biso   1.000  C
  H28      1.0000 0.43269  0.27346  0.13161  Biso   1.000  H
  C83      1.0000 0.43352  0.30979  0.10528  Biso   1.000  C
  C84      1.0000 0.45996  0.32518  0.12091  Biso   1.000  C
  O57      1.0000 0.96920  0.15180  0.89253  Biso   1.000  O
  O58      1.0000 0.96941  0.18716  0.85648  Biso   1.000  O
  N57      1.0000 0.89648  0.27094  0.86109  Biso   1.000  N
  N58      1.0000 0.87425  0.29256  0.85433  Biso   1.000  N
  C85      1.0000 0.92272  0.21645  0.88375  Biso   1.000  C
  H29      1.0000 0.93269  0.22654  0.86839  Biso   1.000  H
  C86      1.0000 0.93352  0.19021  0.89472  Biso   1.000  C
  C87      1.0000 0.95996  0.17482  0.87909  Biso   1.000  C
  O59      1.0000 0.96920  0.65180  0.39253  Biso   1.000  O
  O60      1.0000 0.96941  0.68716  0.35648  Biso   1.000  O
  N59      1.0000 0.89648  0.77094  0.36109  Biso   1.000  N
  N60      1.0000 0.87425  0.79256  0.35433  Biso   1.000  N
  C88      1.0000 0.92272  0.71645  0.38375  Biso   1.000  C
  H30      1.0000 0.93269  0.72654  0.36839  Biso   1.000  H
  C89      1.0000 0.93352  0.69021  0.39472  Biso   1.000  C
  C90      1.0000 0.95996  0.67482  0.37909  Biso   1.000  C
  O61      1.0000 0.46920  0.15180  0.39253  Biso   1.000  O
  O62      1.0000 0.46941  0.18716  0.35648  Biso   1.000  O
  N61      1.0000 0.39648  0.27094  0.36109  Biso   1.000  N
  N62      1.0000 0.37425  0.29256  0.35433  Biso   1.000  N
  C91      1.0000 0.42272  0.21645  0.38375  Biso   1.000  C
  H31      1.0000 0.43269  0.22654  0.36839  Biso   1.000  H
  C92      1.0000 0.43352  0.19021  0.39472  Biso   1.000  C
  C93      1.0000 0.45996  0.17482  0.37909  Biso   1.000  C
  O63      1.0000 0.46920  0.65180  0.89253  Biso   1.000  O
  O64      1.0000 0.46941  0.68716  0.85648  Biso   1.000  O
  N63      1.0000 0.39648  0.77094  0.86109  Biso   1.000  N
  N64      1.0000 0.37425  0.79256  0.85433  Biso   1.000  N
  C94      1.0000 0.42272  0.71645  0.88375  Biso   1.000  C
  H32      1.0000 0.43269  0.72654  0.86839  Biso   1.000  H
  C95      1.0000 0.43352  0.69021  0.89472  Biso   1.000  C
  C96      1.0000 0.45996  0.67482  0.87909  Biso   1.000  C
  O65      1.0000 0.10747  0.03080  0.15180  Biso   1.000  O
  O66      1.0000 0.14352  0.03059  0.18716  Biso   1.000  O
  N65      1.0000 0.13891  0.10352  0.27094  Biso   1.000  N
  N66      1.0000 0.14567  0.12575  0.29256  Biso   1.000  N
  C97      1.0000 0.11625  0.07728  0.21645  Biso   1.000  C
  H33      1.0000 0.13161  0.06731  0.22654  Biso   1.000  H
  C98      1.0000 0.10528  0.06648  0.19021  Biso   1.000  C
  C99      1.0000 0.12091  0.04004  0.17482  Biso   1.000  C
  O67      1.0000 0.10747  0.53080  0.65180  Biso   1.000  O
  O68      1.0000 0.14352  0.53059  0.68716  Biso   1.000  O
  N67      1.0000 0.13891  0.60352  0.77094  Biso   1.000  N
  N68      1.0000 0.14567  0.62575  0.79256  Biso   1.000  N
  C100     1.0000 0.11625  0.57728  0.71645  Biso   1.000  C
  H34      1.0000 0.13161  0.56731  0.72654  Biso   1.000  H
  C101     1.0000 0.10528  0.56648  0.69021  Biso   1.000  C
  C102     1.0000 0.12091  0.54004  0.67482  Biso   1.000  C
  O69      1.0000 0.60747  0.03080  0.65180  Biso   1.000  O
  O70      1.0000 0.64352  0.03059  0.68716  Biso   1.000  O
  N69      1.0000 0.63891  0.10352  0.77094  Biso   1.000  N
  N70      1.0000 0.64567  0.12575  0.79256  Biso   1.000  N
  C103     1.0000 0.61625  0.07728  0.71645  Biso   1.000  C
  H35      1.0000 0.63161  0.06731  0.72654  Biso   1.000  H
  C104     1.0000 0.60528  0.06648  0.69021  Biso   1.000  C
  C105     1.0000 0.62091  0.04004  0.67482  Biso   1.000  C
  O71      1.0000 0.60747  0.53080  0.15180  Biso   1.000  O
  O72      1.0000 0.64352  0.53059  0.18716  Biso   1.000  O
  N71      1.0000 0.63891  0.60352  0.27094  Biso   1.000  N
  N72      1.0000 0.64567  0.62575  0.29256  Biso   1.000  N
  C106     1.0000 0.61625  0.57728  0.21645  Biso   1.000  C
  H36      1.0000 0.63161  0.56731  0.22654  Biso   1.000  H
  C107     1.0000 0.60528  0.56648  0.19021  Biso   1.000  C
  C108     1.0000 0.62091  0.54004  0.17482  Biso   1.000  C
  O73      1.0000 0.89253  0.03080  0.84820  Biso   1.000  O
  O74      1.0000 0.85648  0.03059  0.81284  Biso   1.000  O
  N73      1.0000 0.86109  0.10352  0.72906  Biso   1.000  N
  N74      1.0000 0.85433  0.12575  0.70744  Biso   1.000  N
  C109     1.0000 0.88375  0.07728  0.78355  Biso   1.000  C
  H37      1.0000 0.86839  0.06731  0.77346  Biso   1.000  H
  C110     1.0000 0.89472  0.06648  0.80979  Biso   1.000  C
  C111     1.0000 0.87909  0.04004  0.82518  Biso   1.000  C
  O75      1.0000 0.89253  0.53080  0.34820  Biso   1.000  O
  O76      1.0000 0.85648  0.53059  0.31284  Biso   1.000  O
  N75      1.0000 0.86109  0.60352  0.22906  Biso   1.000  N
  N76      1.0000 0.85433  0.62575  0.20744  Biso   1.000  N
  C112     1.0000 0.88375  0.57728  0.28355  Biso   1.000  C
  H38      1.0000 0.86839  0.56731  0.27346  Biso   1.000  H
  C113     1.0000 0.89472  0.56648  0.30979  Biso   1.000  C
  C114     1.0000 0.87909  0.54004  0.32518  Biso   1.000  C
  O77      1.0000 0.39253  0.03080  0.34820  Biso   1.000  O
  O78      1.0000 0.35648  0.03059  0.31284  Biso   1.000  O
  N77      1.0000 0.36109  0.10352  0.22906  Biso   1.000  N
  N78      1.0000 0.35433  0.12575  0.20744  Biso   1.000  N
  C115     1.0000 0.38375  0.07728  0.28355  Biso   1.000  C
  H39      1.0000 0.36839  0.06731  0.27346  Biso   1.000  H
  C116     1.0000 0.39472  0.06648  0.30979  Biso   1.000  C
  C117     1.0000 0.37909  0.04004  0.32518  Biso   1.000  C
  O79      1.0000 0.39253  0.53080  0.84820  Biso   1.000  O
  O80      1.0000 0.35648  0.53059  0.81284  Biso   1.000  O
  N79      1.0000 0.36109  0.60352  0.72906  Biso   1.000  N
  N80      1.0000 0.35433  0.62575  0.70744  Biso   1.000  N
  C118     1.0000 0.38375  0.57728  0.78355  Biso   1.000  C
  H40      1.0000 0.36839  0.56731  0.77346  Biso   1.000  H
  C119     1.0000 0.39472  0.56648  0.80979  Biso   1.000  C
  C120     1.0000 0.37909  0.54004  0.82518  Biso   1.000  C
  O81      1.0000 0.10747  0.96920  0.84820  Biso   1.000  O
  O82      1.0000 0.14352  0.96941  0.81284  Biso   1.000  O
  N81      1.0000 0.13891  0.89648  0.72906  Biso   1.000  N
  N82      1.0000 0.14567  0.87425  0.70744  Biso   1.000  N
  C121     1.0000 0.11625  0.92272  0.78355  Biso   1.000  C
  H41      1.0000 0.13161  0.93269  0.77346  Biso   1.000  H
  C122     1.0000 0.10528  0.93352  0.80979  Biso   1.000  C
  C123     1.0000 0.12091  0.95996  0.82518  Biso   1.000  C
  O83      1.0000 0.10747  0.46920  0.34820  Biso   1.000  O
  O84      1.0000 0.14352  0.46941  0.31284  Biso   1.000  O
  N83      1.0000 0.13891  0.39648  0.22906  Biso   1.000  N
  N84      1.0000 0.14567  0.37425  0.20744  Biso   1.000  N
  C124     1.0000 0.11625  0.42272  0.28355  Biso   1.000  C
  H42      1.0000 0.13161  0.43269  0.27346  Biso   1.000  H
  C125     1.0000 0.10528  0.43352  0.30979  Biso   1.000  C
  C126     1.0000 0.12091  0.45996  0.32518  Biso   1.000  C
  O85      1.0000 0.60747  0.96920  0.34820  Biso   1.000  O
  O86      1.0000 0.64352  0.96941  0.31284  Biso   1.000  O
  N85      1.0000 0.63891  0.89648  0.22906  Biso   1.000  N
  N86      1.0000 0.64567  0.87425  0.20744  Biso   1.000  N
  C127     1.0000 0.61625  0.92272  0.28355  Biso   1.000  C
  H43      1.0000 0.63161  0.93269  0.27346  Biso   1.000  H
  C128     1.0000 0.60528  0.93352  0.30979  Biso   1.000  C
  C129     1.0000 0.62091  0.95996  0.32518  Biso   1.000  C
  O87      1.0000 0.60747  0.46920  0.84820  Biso   1.000  O
  O88      1.0000 0.64352  0.46941  0.81284  Biso   1.000  O
  N87      1.0000 0.63891  0.39648  0.72906  Biso   1.000  N
  N88      1.0000 0.64567  0.37425  0.70744  Biso   1.000  N
  C130     1.0000 0.61625  0.42272  0.78355  Biso   1.000  C
  H44      1.0000 0.63161  0.43269  0.77346  Biso   1.000  H
  C131     1.0000 0.60528  0.43352  0.80979  Biso   1.000  C
  C132     1.0000 0.62091  0.45996  0.82518  Biso   1.000  C
  O89      1.0000 0.89253  0.96920  0.15180  Biso   1.000  O
  O90      1.0000 0.85648  0.96941  0.18716  Biso   1.000  O
  N89      1.0000 0.86109  0.89648  0.27094  Biso   1.000  N
  N90      1.0000 0.85433  0.87425  0.29256  Biso   1.000  N
  C133     1.0000 0.88375  0.92272  0.21645  Biso   1.000  C
  H45      1.0000 0.86839  0.93269  0.22654  Biso   1.000  H
  C134     1.0000 0.89472  0.93352  0.19021  Biso   1.000  C
  C135     1.0000 0.87909  0.95996  0.17482  Biso   1.000  C
  O91      1.0000 0.89253  0.46920  0.65180  Biso   1.000  O
  O92      1.0000 0.85648  0.46941  0.68716  Biso   1.000  O
  N91      1.0000 0.86109  0.39648  0.77094  Biso   1.000  N
  N92      1.0000 0.85433  0.37425  0.79256  Biso   1.000  N
  C136     1.0000 0.88375  0.42272  0.71645  Biso   1.000  C
  H46      1.0000 0.86839  0.43269  0.72654  Biso   1.000  H
  C137     1.0000 0.89472  0.43352  0.69021  Biso   1.000  C
  C138     1.0000 0.87909  0.45996  0.67482  Biso   1.000  C
  O93      1.0000 0.39253  0.96920  0.65180  Biso   1.000  O
  O94      1.0000 0.35648  0.96941  0.68716  Biso   1.000  O
  N93      1.0000 0.36109  0.89648  0.77094  Biso   1.000  N
  N94      1.0000 0.35433  0.87425  0.79256  Biso   1.000  N
  C139     1.0000 0.38375  0.92272  0.71645  Biso   1.000  C
  H47      1.0000 0.36839  0.93269  0.72654  Biso   1.000  H
  C140     1.0000 0.39472  0.93352  0.69021  Biso   1.000  C
  C141     1.0000 0.37909  0.95996  0.67482  Biso   1.000  C
  O95      1.0000 0.39253  0.46920  0.15180  Biso   1.000  O
  O96      1.0000 0.35648  0.46941  0.18716  Biso   1.000  O
  N95      1.0000 0.36109  0.39648  0.27094  Biso   1.000  N
  N96      1.0000 0.35433  0.37425  0.29256  Biso   1.000  N
  C142     1.0000 0.38375  0.42272  0.21645  Biso   1.000  C
  H48      1.0000 0.36839  0.43269  0.22654  Biso   1.000  H
  C143     1.0000 0.39472  0.43352  0.19021  Biso   1.000  C
  C144     1.0000 0.37909  0.45996  0.17482  Biso   1.000  C
  O97      1.0000 0.10747  0.15180  0.96920  Biso   1.000  O
  O98      1.0000 0.14352  0.18716  0.96941  Biso   1.000  O
  N97      1.0000 0.13891  0.27094  0.89648  Biso   1.000  N
  N98      1.0000 0.14567  0.29256  0.87425  Biso   1.000  N
  C145     1.0000 0.11625  0.21645  0.92272  Biso   1.000  C
  H49      1.0000 0.13161  0.22654  0.93269  Biso   1.000  H
  C146     1.0000 0.10528  0.19021  0.93352  Biso   1.000  C
  C147     1.0000 0.12091  0.17482  0.95996  Biso   1.000  C
  O99      1.0000 0.10747  0.65180  0.46920  Biso   1.000  O
  O100     1.0000 0.14352  0.68716  0.46941  Biso   1.000  O
  N99      1.0000 0.13891  0.77094  0.39648  Biso   1.000  N
  N100     1.0000 0.14567  0.79256  0.37425  Biso   1.000  N
  C148     1.0000 0.11625  0.71645  0.42272  Biso   1.000  C
  H50      1.0000 0.13161  0.72654  0.43269  Biso   1.000  H
  C149     1.0000 0.10528  0.69021  0.43352  Biso   1.000  C
  C150     1.0000 0.12091  0.67482  0.45996  Biso   1.000  C
  O101     1.0000 0.60747  0.15180  0.46920  Biso   1.000  O
  O102     1.0000 0.64352  0.18716  0.46941  Biso   1.000  O
  N101     1.0000 0.63891  0.27094  0.39648  Biso   1.000  N
  N102     1.0000 0.64567  0.29256  0.37425  Biso   1.000  N
  C151     1.0000 0.61625  0.21645  0.42272  Biso   1.000  C
  H51      1.0000 0.63161  0.22654  0.43269  Biso   1.000  H
  C152     1.0000 0.60528  0.19021  0.43352  Biso   1.000  C
  C153     1.0000 0.62091  0.17482  0.45996  Biso   1.000  C
  O103     1.0000 0.60747  0.65180  0.96920  Biso   1.000  O
  O104     1.0000 0.64352  0.68716  0.96941  Biso   1.000  O
  N103     1.0000 0.63891  0.77094  0.89648  Biso   1.000  N
  N104     1.0000 0.64567  0.79256  0.87425  Biso   1.000  N
  C154     1.0000 0.61625  0.71645  0.92272  Biso   1.000  C
  H52      1.0000 0.63161  0.72654  0.93269  Biso   1.000  H
  C155     1.0000 0.60528  0.69021  0.93352  Biso   1.000  C
  C156     1.0000 0.62091  0.67482  0.95996  Biso   1.000  C
  O105     1.0000 0.89253  0.84820  0.96920  Biso   1.000  O
  O106     1.0000 0.85648  0.81284  0.96941  Biso   1.000  O
  N105     1.0000 0.86109  0.72906  0.89648  Biso   1.000  N
  N106     1.0000 0.85433  0.70744  0.87425  Biso   1.000  N
  C157     1.0000 0.88375  0.78355  0.92272  Biso   1.000  C
  H53      1.0000 0.86839  0.77346  0.93269  Biso   1.000  H
  C158     1.0000 0.89472  0.80979  0.93352  Biso   1.000  C
  C159     1.0000 0.87909  0.82518  0.95996  Biso   1.000  C
  O107     1.0000 0.89253  0.34820  0.46920  Biso   1.000  O
  O108     1.0000 0.85648  0.31284  0.46941  Biso   1.000  O
  N107     1.0000 0.86109  0.22906  0.39648  Biso   1.000  N
  N108     1.0000 0.85433  0.20744  0.37425  Biso   1.000  N
  C160     1.0000 0.88375  0.28355  0.42272  Biso   1.000  C
  H54      1.0000 0.86839  0.27346  0.43269  Biso   1.000  H
  C161     1.0000 0.89472  0.30979  0.43352  Biso   1.000  C
  C162     1.0000 0.87909  0.32518  0.45996  Biso   1.000  C
  O109     1.0000 0.39253  0.84820  0.46920  Biso   1.000  O
  O110     1.0000 0.35648  0.81284  0.46941  Biso   1.000  O
  N109     1.0000 0.36109  0.72906  0.39648  Biso   1.000  N
  N110     1.0000 0.35433  0.70744  0.37425  Biso   1.000  N
  C163     1.0000 0.38375  0.78355  0.42272  Biso   1.000  C
  H55      1.0000 0.36839  0.77346  0.43269  Biso   1.000  H
  C164     1.0000 0.39472  0.80979  0.43352  Biso   1.000  C
  C165     1.0000 0.37909  0.82518  0.45996  Biso   1.000  C
  O111     1.0000 0.39253  0.34820  0.96920  Biso   1.000  O
  O112     1.0000 0.35648  0.31284  0.96941  Biso   1.000  O
  N111     1.0000 0.36109  0.22906  0.89648  Biso   1.000  N
  N112     1.0000 0.35433  0.20744  0.87425  Biso   1.000  N
  C166     1.0000 0.38375  0.28355  0.92272  Biso   1.000  C
  H56      1.0000 0.36839  0.27346  0.93269  Biso   1.000  H
  C167     1.0000 0.39472  0.30979  0.93352  Biso   1.000  C
  C168     1.0000 0.37909  0.32518  0.95996  Biso   1.000  C
  O113     1.0000 0.10747  0.84820  0.03080  Biso   1.000  O
  O114     1.0000 0.14352  0.81284  0.03059  Biso   1.000  O
  N113     1.0000 0.13891  0.72906  0.10352  Biso   1.000  N
  N114     1.0000 0.14567  0.70744  0.12575  Biso   1.000  N
  C169     1.0000 0.11625  0.78355  0.07728  Biso   1.000  C
  H57      1.0000 0.13161  0.77346  0.06731  Biso   1.000  H
  C170     1.0000 0.10528  0.80979  0.06648  Biso   1.000  C
  C171     1.0000 0.12091  0.82518  0.04004  Biso   1.000  C
  O115     1.0000 0.10747  0.34820  0.53080  Biso   1.000  O
  O116     1.0000 0.14352  0.31284  0.53059  Biso   1.000  O
  N115     1.0000 0.13891  0.22906  0.60352  Biso   1.000  N
  N116     1.0000 0.14567  0.20744  0.62575  Biso   1.000  N
  C172     1.0000 0.11625  0.28355  0.57728  Biso   1.000  C
  H58      1.0000 0.13161  0.27346  0.56731  Biso   1.000  H
  C173     1.0000 0.10528  0.30979  0.56648  Biso   1.000  C
  C174     1.0000 0.12091  0.32518  0.54004  Biso   1.000  C
  O117     1.0000 0.60747  0.84820  0.53080  Biso   1.000  O
  O118     1.0000 0.64352  0.81284  0.53059  Biso   1.000  O
  N117     1.0000 0.63891  0.72906  0.60352  Biso   1.000  N
  N118     1.0000 0.64567  0.70744  0.62575  Biso   1.000  N
  C175     1.0000 0.61625  0.78355  0.57728  Biso   1.000  C
  H59      1.0000 0.63161  0.77346  0.56731  Biso   1.000  H
  C176     1.0000 0.60528  0.80979  0.56648  Biso   1.000  C
  C177     1.0000 0.62091  0.82518  0.54004  Biso   1.000  C
  O119     1.0000 0.60747  0.34820  0.03080  Biso   1.000  O
  O120     1.0000 0.64352  0.31284  0.03059  Biso   1.000  O
  N119     1.0000 0.63891  0.22906  0.10352  Biso   1.000  N
  N120     1.0000 0.64567  0.20744  0.12575  Biso   1.000  N
  C178     1.0000 0.61625  0.28355  0.07728  Biso   1.000  C
  H60      1.0000 0.63161  0.27346  0.06731  Biso   1.000  H
  C179     1.0000 0.60528  0.30979  0.06648  Biso   1.000  C
  C180     1.0000 0.62091  0.32518  0.04004  Biso   1.000  C
  O121     1.0000 0.89253  0.15180  0.03080  Biso   1.000  O
  O122     1.0000 0.85648  0.18716  0.03059  Biso   1.000  O
  N121     1.0000 0.86109  0.27094  0.10352  Biso   1.000  N
  N122     1.0000 0.85433  0.29256  0.12575  Biso   1.000  N
  C181     1.0000 0.88375  0.21645  0.07728  Biso   1.000  C
  H61      1.0000 0.86839  0.22654  0.06731  Biso   1.000  H
  C182     1.0000 0.89472  0.19021  0.06648  Biso   1.000  C
  C183     1.0000 0.87909  0.17482  0.04004  Biso   1.000  C
  O123     1.0000 0.89253  0.65180  0.53080  Biso   1.000  O
  O124     1.0000 0.85648  0.68716  0.53059  Biso   1.000  O
  N123     1.0000 0.86109  0.77094  0.60352  Biso   1.000  N
  N124     1.0000 0.85433  0.79256  0.62575  Biso   1.000  N
  C184     1.0000 0.88375  0.71645  0.57728  Biso   1.000  C
  H62      1.0000 0.86839  0.72654  0.56731  Biso   1.000  H
  C185     1.0000 0.89472  0.69021  0.56648  Biso   1.000  C
  C186     1.0000 0.87909  0.67482  0.54004  Biso   1.000  C
  O125     1.0000 0.39253  0.15180  0.53080  Biso   1.000  O
  O126     1.0000 0.35648  0.18716  0.53059  Biso   1.000  O
  N125     1.0000 0.36109  0.27094  0.60352  Biso   1.000  N
  N126     1.0000 0.35433  0.29256  0.62575  Biso   1.000  N
  C187     1.0000 0.38375  0.21645  0.57728  Biso   1.000  C
  H63      1.0000 0.36839  0.22654  0.56731  Biso   1.000  H
  C188     1.0000 0.39472  0.19021  0.56648  Biso   1.000  C
  C189     1.0000 0.37909  0.17482  0.54004  Biso   1.000  C
  O127     1.0000 0.39253  0.65180  0.03080  Biso   1.000  O
  O128     1.0000 0.35648  0.68716  0.03059  Biso   1.000  O
  N127     1.0000 0.36109  0.77094  0.10352  Biso   1.000  N
  N128     1.0000 0.35433  0.79256  0.12575  Biso   1.000  N
  C190     1.0000 0.38375  0.71645  0.07728  Biso   1.000  C
  H64      1.0000 0.36839  0.72654  0.06731  Biso   1.000  H
  C191     1.0000 0.39472  0.69021  0.06648  Biso   1.000  C
  C192     1.0000 0.37909  0.67482  0.04004  Biso   1.000  C
  O129     1.0000 0.15180  0.03080  0.89253  Biso   1.000  O
  O130     1.0000 0.18716  0.03059  0.85648  Biso   1.000  O
  N129     1.0000 0.27094  0.10352  0.86109  Biso   1.000  N
  N130     1.0000 0.29256  0.12575  0.85433  Biso   1.000  N
  C193     1.0000 0.21645  0.07728  0.88375  Biso   1.000  C
  H65      1.0000 0.22654  0.06731  0.86839  Biso   1.000  H
  C194     1.0000 0.19021  0.06648  0.89472  Biso   1.000  C
  C195     1.0000 0.17482  0.04004  0.87909  Biso   1.000  C
  O131     1.0000 0.15180  0.53080  0.39253  Biso   1.000  O
  O132     1.0000 0.18716  0.53059  0.35648  Biso   1.000  O
  N131     1.0000 0.27094  0.60352  0.36109  Biso   1.000  N
  N132     1.0000 0.29256  0.62575  0.35433  Biso   1.000  N
  C196     1.0000 0.21645  0.57728  0.38375  Biso   1.000  C
  H66      1.0000 0.22654  0.56731  0.36839  Biso   1.000  H
  C197     1.0000 0.19021  0.56648  0.39472  Biso   1.000  C
  C198     1.0000 0.17482  0.54004  0.37909  Biso   1.000  C
  O133     1.0000 0.65180  0.03080  0.39253  Biso   1.000  O
  O134     1.0000 0.68716  0.03059  0.35648  Biso   1.000  O
  N133     1.0000 0.77094  0.10352  0.36109  Biso   1.000  N
  N134     1.0000 0.79256  0.12575  0.35433  Biso   1.000  N
  C199     1.0000 0.71645  0.07728  0.38375  Biso   1.000  C
  H67      1.0000 0.72654  0.06731  0.36839  Biso   1.000  H
  C200     1.0000 0.69021  0.06648  0.39472  Biso   1.000  C
  C201     1.0000 0.67482  0.04004  0.37909  Biso   1.000  C
  O135     1.0000 0.65180  0.53080  0.89253  Biso   1.000  O
  O136     1.0000 0.68716  0.53059  0.85648  Biso   1.000  O
  N135     1.0000 0.77094  0.60352  0.86109  Biso   1.000  N
  N136     1.0000 0.79256  0.62575  0.85433  Biso   1.000  N
  C202     1.0000 0.71645  0.57728  0.88375  Biso   1.000  C
  H68      1.0000 0.72654  0.56731  0.86839  Biso   1.000  H
  C203     1.0000 0.69021  0.56648  0.89472  Biso   1.000  C
  C204     1.0000 0.67482  0.54004  0.87909  Biso   1.000  C
  O137     1.0000 0.84820  0.03080  0.10747  Biso   1.000  O
  O138     1.0000 0.81284  0.03059  0.14352  Biso   1.000  O
  N137     1.0000 0.72906  0.10352  0.13891  Biso   1.000  N
  N138     1.0000 0.70744  0.12575  0.14567  Biso   1.000  N
  C205     1.0000 0.78355  0.07728  0.11625  Biso   1.000  C
  H69      1.0000 0.77346  0.06731  0.13161  Biso   1.000  H
  C206     1.0000 0.80979  0.06648  0.10528  Biso   1.000  C
  C207     1.0000 0.82518  0.04004  0.12091  Biso   1.000  C
  O139     1.0000 0.84820  0.53080  0.60747  Biso   1.000  O
  O140     1.0000 0.81284  0.53059  0.64352  Biso   1.000  O
  N139     1.0000 0.72906  0.60352  0.63891  Biso   1.000  N
  N140     1.0000 0.70744  0.62575  0.64567  Biso   1.000  N
  C208     1.0000 0.78355  0.57728  0.61625  Biso   1.000  C
  H70      1.0000 0.77346  0.56731  0.63161  Biso   1.000  H
  C209     1.0000 0.80979  0.56648  0.60528  Biso   1.000  C
  C210     1.0000 0.82518  0.54004  0.62091  Biso   1.000  C
  O141     1.0000 0.34820  0.03080  0.60747  Biso   1.000  O
  O142     1.0000 0.31284  0.03059  0.64352  Biso   1.000  O
  N141     1.0000 0.22906  0.10352  0.63891  Biso   1.000  N
  N142     1.0000 0.20744  0.12575  0.64567  Biso   1.000  N
  C211     1.0000 0.28355  0.07728  0.61625  Biso   1.000  C
  H71      1.0000 0.27346  0.06731  0.63161  Biso   1.000  H
  C212     1.0000 0.30979  0.06648  0.60528  Biso   1.000  C
  C213     1.0000 0.32518  0.04004  0.62091  Biso   1.000  C
  O143     1.0000 0.34820  0.53080  0.10747  Biso   1.000  O
  O144     1.0000 0.31284  0.53059  0.14352  Biso   1.000  O
  N143     1.0000 0.22906  0.60352  0.13891  Biso   1.000  N
  N144     1.0000 0.20744  0.62575  0.14567  Biso   1.000  N
  C214     1.0000 0.28355  0.57728  0.11625  Biso   1.000  C
  H72      1.0000 0.27346  0.56731  0.13161  Biso   1.000  H
  C215     1.0000 0.30979  0.56648  0.10528  Biso   1.000  C
  C216     1.0000 0.32518  0.54004  0.12091  Biso   1.000  C
  O145     1.0000 0.84820  0.96920  0.89253  Biso   1.000  O
  O146     1.0000 0.81284  0.96941  0.85648  Biso   1.000  O
  N145     1.0000 0.72906  0.89648  0.86109  Biso   1.000  N
  N146     1.0000 0.70744  0.87425  0.85433  Biso   1.000  N
  C217     1.0000 0.78355  0.92272  0.88375  Biso   1.000  C
  H73      1.0000 0.77346  0.93269  0.86839  Biso   1.000  H
  C218     1.0000 0.80979  0.93352  0.89472  Biso   1.000  C
  C219     1.0000 0.82518  0.95996  0.87909  Biso   1.000  C
  O147     1.0000 0.84820  0.46920  0.39253  Biso   1.000  O
  O148     1.0000 0.81284  0.46941  0.35648  Biso   1.000  O
  N147     1.0000 0.72906  0.39648  0.36109  Biso   1.000  N
  N148     1.0000 0.70744  0.37425  0.35433  Biso   1.000  N
  C220     1.0000 0.78355  0.42272  0.38375  Biso   1.000  C
  H74      1.0000 0.77346  0.43269  0.36839  Biso   1.000  H
  C221     1.0000 0.80979  0.43352  0.39472  Biso   1.000  C
  C222     1.0000 0.82518  0.45996  0.37909  Biso   1.000  C
  O149     1.0000 0.34820  0.96920  0.39253  Biso   1.000  O
  O150     1.0000 0.31284  0.96941  0.35648  Biso   1.000  O
  N149     1.0000 0.22906  0.89648  0.36109  Biso   1.000  N
  N150     1.0000 0.20744  0.87425  0.35433  Biso   1.000  N
  C223     1.0000 0.28355  0.92272  0.38375  Biso   1.000  C
  H75      1.0000 0.27346  0.93269  0.36839  Biso   1.000  H
  C224     1.0000 0.30979  0.93352  0.39472  Biso   1.000  C
  C225     1.0000 0.32518  0.95996  0.37909  Biso   1.000  C
  O151     1.0000 0.34820  0.46920  0.89253  Biso   1.000  O
  O152     1.0000 0.31284  0.46941  0.85648  Biso   1.000  O
  N151     1.0000 0.22906  0.39648  0.86109  Biso   1.000  N
  N152     1.0000 0.20744  0.37425  0.85433  Biso   1.000  N
  C226     1.0000 0.28355  0.42272  0.88375  Biso   1.000  C
  H76      1.0000 0.27346  0.43269  0.86839  Biso   1.000  H
  C227     1.0000 0.30979  0.43352  0.89472  Biso   1.000  C
  C228     1.0000 0.32518  0.45996  0.87909  Biso   1.000  C
  O153     1.0000 0.15180  0.96920  0.10747  Biso   1.000  O
  O154     1.0000 0.18716  0.96941  0.14352  Biso   1.000  O
  N153     1.0000 0.27094  0.89648  0.13891  Biso   1.000  N
  N154     1.0000 0.29256  0.87425  0.14567  Biso   1.000  N
  C229     1.0000 0.21645  0.92272  0.11625  Biso   1.000  C
  H77      1.0000 0.22654  0.93269  0.13161  Biso   1.000  H
  C230     1.0000 0.19021  0.93352  0.10528  Biso   1.000  C
  C231     1.0000 0.17482  0.95996  0.12091  Biso   1.000  C
  O155     1.0000 0.15180  0.46920  0.60747  Biso   1.000  O
  O156     1.0000 0.18716  0.46941  0.64352  Biso   1.000  O
  N155     1.0000 0.27094  0.39648  0.63891  Biso   1.000  N
  N156     1.0000 0.29256  0.37425  0.64567  Biso   1.000  N
  C232     1.0000 0.21645  0.42272  0.61625  Biso   1.000  C
  H78      1.0000 0.22654  0.43269  0.63161  Biso   1.000  H
  C233     1.0000 0.19021  0.43352  0.60528  Biso   1.000  C
  C234     1.0000 0.17482  0.45996  0.62091  Biso   1.000  C
  O157     1.0000 0.65180  0.96920  0.60747  Biso   1.000  O
  O158     1.0000 0.68716  0.96941  0.64352  Biso   1.000  O
  N157     1.0000 0.77094  0.89648  0.63891  Biso   1.000  N
  N158     1.0000 0.79256  0.87425  0.64567  Biso   1.000  N
  C235     1.0000 0.71645  0.92272  0.61625  Biso   1.000  C
  H79      1.0000 0.72654  0.93269  0.63161  Biso   1.000  H
  C236     1.0000 0.69021  0.93352  0.60528  Biso   1.000  C
  C237     1.0000 0.67482  0.95996  0.62091  Biso   1.000  C
  O159     1.0000 0.65180  0.46920  0.10747  Biso   1.000  O
  O160     1.0000 0.68716  0.46941  0.14352  Biso   1.000  O
  N159     1.0000 0.77094  0.39648  0.13891  Biso   1.000  N
  N160     1.0000 0.79256  0.37425  0.14567  Biso   1.000  N
  C238     1.0000 0.71645  0.42272  0.11625  Biso   1.000  C
  H80      1.0000 0.72654  0.43269  0.13161  Biso   1.000  H
  C239     1.0000 0.69021  0.43352  0.10528  Biso   1.000  C
  C240     1.0000 0.67482  0.45996  0.12091  Biso   1.000  C
  O161     1.0000 0.03080  0.10747  0.84820  Biso   1.000  O
  O162     1.0000 0.03059  0.14352  0.81284  Biso   1.000  O
  N161     1.0000 0.10352  0.13891  0.72906  Biso   1.000  N
  N162     1.0000 0.12575  0.14567  0.70744  Biso   1.000  N
  C241     1.0000 0.07728  0.11625  0.78355  Biso   1.000  C
  H81      1.0000 0.06731  0.13161  0.77346  Biso   1.000  H
  C242     1.0000 0.06648  0.10528  0.80979  Biso   1.000  C
  C243     1.0000 0.04004  0.12091  0.82518  Biso   1.000  C
  O163     1.0000 0.03080  0.60747  0.34820  Biso   1.000  O
  O164     1.0000 0.03059  0.64352  0.31284  Biso   1.000  O
  N163     1.0000 0.10352  0.63891  0.22906  Biso   1.000  N
  N164     1.0000 0.12575  0.64567  0.20744  Biso   1.000  N
  C244     1.0000 0.07728  0.61625  0.28355  Biso   1.000  C
  H82      1.0000 0.06731  0.63161  0.27346  Biso   1.000  H
  C245     1.0000 0.06648  0.60528  0.30979  Biso   1.000  C
  C246     1.0000 0.04004  0.62091  0.32518  Biso   1.000  C
  O165     1.0000 0.53080  0.10747  0.34820  Biso   1.000  O
  O166     1.0000 0.53059  0.14352  0.31284  Biso   1.000  O
  N165     1.0000 0.60352  0.13891  0.22906  Biso   1.000  N
  N166     1.0000 0.62575  0.14567  0.20744  Biso   1.000  N
  C247     1.0000 0.57728  0.11625  0.28355  Biso   1.000  C
  H83      1.0000 0.56731  0.13161  0.27346  Biso   1.000  H
  C248     1.0000 0.56648  0.10528  0.30979  Biso   1.000  C
  C249     1.0000 0.54004  0.12091  0.32518  Biso   1.000  C
  O167     1.0000 0.53080  0.60747  0.84820  Biso   1.000  O
  O168     1.0000 0.53059  0.64352  0.81284  Biso   1.000  O
  N167     1.0000 0.60352  0.63891  0.72906  Biso   1.000  N
  N168     1.0000 0.62575  0.64567  0.70744  Biso   1.000  N
  C250     1.0000 0.57728  0.61625  0.78355  Biso   1.000  C
  H84      1.0000 0.56731  0.63161  0.77346  Biso   1.000  H
  C251     1.0000 0.56648  0.60528  0.80979  Biso   1.000  C
  C252     1.0000 0.54004  0.62091  0.82518  Biso   1.000  C
  O169     1.0000 0.03080  0.89253  0.15180  Biso   1.000  O
  O170     1.0000 0.03059  0.85648  0.18716  Biso   1.000  O
  N169     1.0000 0.10352  0.86109  0.27094  Biso   1.000  N
  N170     1.0000 0.12575  0.85433  0.29256  Biso   1.000  N
  C253     1.0000 0.07728  0.88375  0.21645  Biso   1.000  C
  H85      1.0000 0.06731  0.86839  0.22654  Biso   1.000  H
  C254     1.0000 0.06648  0.89472  0.19021  Biso   1.000  C
  C255     1.0000 0.04004  0.87909  0.17482  Biso   1.000  C
  O171     1.0000 0.03080  0.39253  0.65180  Biso   1.000  O
  O172     1.0000 0.03059  0.35648  0.68716  Biso   1.000  O
  N171     1.0000 0.10352  0.36109  0.77094  Biso   1.000  N
  N172     1.0000 0.12575  0.35433  0.79256  Biso   1.000  N
  C256     1.0000 0.07728  0.38375  0.71645  Biso   1.000  C
  H86      1.0000 0.06731  0.36839  0.72654  Biso   1.000  H
  C257     1.0000 0.06648  0.39472  0.69021  Biso   1.000  C
  C258     1.0000 0.04004  0.37909  0.67482  Biso   1.000  C
  O173     1.0000 0.53080  0.89253  0.65180  Biso   1.000  O
  O174     1.0000 0.53059  0.85648  0.68716  Biso   1.000  O
  N173     1.0000 0.60352  0.86109  0.77094  Biso   1.000  N
  N174     1.0000 0.62575  0.85433  0.79256  Biso   1.000  N
  C259     1.0000 0.57728  0.88375  0.71645  Biso   1.000  C
  H87      1.0000 0.56731  0.86839  0.72654  Biso   1.000  H
  C260     1.0000 0.56648  0.89472  0.69021  Biso   1.000  C
  C261     1.0000 0.54004  0.87909  0.67482  Biso   1.000  C
  O175     1.0000 0.53080  0.39253  0.15180  Biso   1.000  O
  O176     1.0000 0.53059  0.35648  0.18716  Biso   1.000  O
  N175     1.0000 0.60352  0.36109  0.27094  Biso   1.000  N
  N176     1.0000 0.62575  0.35433  0.29256  Biso   1.000  N
  C262     1.0000 0.57728  0.38375  0.21645  Biso   1.000  C
  H88      1.0000 0.56731  0.36839  0.22654  Biso   1.000  H
  C263     1.0000 0.56648  0.39472  0.19021  Biso   1.000  C
  C264     1.0000 0.54004  0.37909  0.17482  Biso   1.000  C
  O177     1.0000 0.96920  0.10747  0.15180  Biso   1.000  O
  O178     1.0000 0.96941  0.14352  0.18716  Biso   1.000  O
  N177     1.0000 0.89648  0.13891  0.27094  Biso   1.000  N
  N178     1.0000 0.87425  0.14567  0.29256  Biso   1.000  N
  C265     1.0000 0.92272  0.11625  0.21645  Biso   1.000  C
  H89      1.0000 0.93269  0.13161  0.22654  Biso   1.000  H
  C266     1.0000 0.93352  0.10528  0.19021  Biso   1.000  C
  C267     1.0000 0.95996  0.12091  0.17482  Biso   1.000  C
  O179     1.0000 0.96920  0.60747  0.65180  Biso   1.000  O
  O180     1.0000 0.96941  0.64352  0.68716  Biso   1.000  O
  N179     1.0000 0.89648  0.63891  0.77094  Biso   1.000  N
  N180     1.0000 0.87425  0.64567  0.79256  Biso   1.000  N
  C268     1.0000 0.92272  0.61625  0.71645  Biso   1.000  C
  H90      1.0000 0.93269  0.63161  0.72654  Biso   1.000  H
  C269     1.0000 0.93352  0.60528  0.69021  Biso   1.000  C
  C270     1.0000 0.95996  0.62091  0.67482  Biso   1.000  C
  O181     1.0000 0.46920  0.10747  0.65180  Biso   1.000  O
  O182     1.0000 0.46941  0.14352  0.68716  Biso   1.000  O
  N181     1.0000 0.39648  0.13891  0.77094  Biso   1.000  N
  N182     1.0000 0.37425  0.14567  0.79256  Biso   1.000  N
  C271     1.0000 0.42272  0.11625  0.71645  Biso   1.000  C
  H91      1.0000 0.43269  0.13161  0.72654  Biso   1.000  H
  C272     1.0000 0.43352  0.10528  0.69021  Biso   1.000  C
  C273     1.0000 0.45996  0.12091  0.67482  Biso   1.000  C
  O183     1.0000 0.46920  0.60747  0.15180  Biso   1.000  O
  O184     1.0000 0.46941  0.64352  0.18716  Biso   1.000  O
  N183     1.0000 0.39648  0.63891  0.27094  Biso   1.000  N
  N184     1.0000 0.37425  0.64567  0.29256  Biso   1.000  N
  C274     1.0000 0.42272  0.61625  0.21645  Biso   1.000  C
  H92      1.0000 0.43269  0.63161  0.22654  Biso   1.000  H
  C275     1.0000 0.43352  0.60528  0.19021  Biso   1.000  C
  C276     1.0000 0.45996  0.62091  0.17482  Biso   1.000  C
  O185     1.0000 0.96920  0.89253  0.84820  Biso   1.000  O
  O186     1.0000 0.96941  0.85648  0.81284  Biso   1.000  O
  N185     1.0000 0.89648  0.86109  0.72906  Biso   1.000  N
  N186     1.0000 0.87425  0.85433  0.70744  Biso   1.000  N
  C277     1.0000 0.92272  0.88375  0.78355  Biso   1.000  C
  H93      1.0000 0.93269  0.86839  0.77346  Biso   1.000  H
  C278     1.0000 0.93352  0.89472  0.80979  Biso   1.000  C
  C279     1.0000 0.95996  0.87909  0.82518  Biso   1.000  C
  O187     1.0000 0.96920  0.39253  0.34820  Biso   1.000  O
  O188     1.0000 0.96941  0.35648  0.31284  Biso   1.000  O
  N187     1.0000 0.89648  0.36109  0.22906  Biso   1.000  N
  N188     1.0000 0.87425  0.35433  0.20744  Biso   1.000  N
  C280     1.0000 0.92272  0.38375  0.28355  Biso   1.000  C
  H94      1.0000 0.93269  0.36839  0.27346  Biso   1.000  H
  C281     1.0000 0.93352  0.39472  0.30979  Biso   1.000  C
  C282     1.0000 0.95996  0.37909  0.32518  Biso   1.000  C
  O189     1.0000 0.46920  0.89253  0.34820  Biso   1.000  O
  O190     1.0000 0.46941  0.85648  0.31284  Biso   1.000  O
  N189     1.0000 0.39648  0.86109  0.22906  Biso   1.000  N
  N190     1.0000 0.37425  0.85433  0.20744  Biso   1.000  N
  C283     1.0000 0.42272  0.88375  0.28355  Biso   1.000  C
  H95      1.0000 0.43269  0.86839  0.27346  Biso   1.000  H
  C284     1.0000 0.43352  0.89472  0.30979  Biso   1.000  C
  C285     1.0000 0.45996  0.87909  0.32518  Biso   1.000  C
  O191     1.0000 0.46920  0.39253  0.84820  Biso   1.000  O
  O192     1.0000 0.46941  0.35648  0.81284  Biso   1.000  O
  N191     1.0000 0.39648  0.36109  0.72906  Biso   1.000  N
  N192     1.0000 0.37425  0.35433  0.70744  Biso   1.000  N
  C286     1.0000 0.42272  0.38375  0.78355  Biso   1.000  C
  H96      1.0000 0.43269  0.36839  0.77346  Biso   1.000  H
  C287     1.0000 0.43352  0.39472  0.80979  Biso   1.000  C
  C288     1.0000 0.45996  0.37909  0.82518  Biso   1.000  C
  O193     1.0000 0.84820  0.89253  0.96920  Biso   1.000  O
  O194     1.0000 0.81284  0.85648  0.96941  Biso   1.000  O
  N193     1.0000 0.72906  0.86109  0.89648  Biso   1.000  N
  N194     1.0000 0.70744  0.85433  0.87425  Biso   1.000  N
  C289     1.0000 0.78355  0.88375  0.92272  Biso   1.000  C
  H97      1.0000 0.77346  0.86839  0.93269  Biso   1.000  H
  C290     1.0000 0.80979  0.89472  0.93352  Biso   1.000  C
  C291     1.0000 0.82518  0.87909  0.95996  Biso   1.000  C
  O195     1.0000 0.84820  0.39253  0.46920  Biso   1.000  O
  O196     1.0000 0.81284  0.35648  0.46941  Biso   1.000  O
  N195     1.0000 0.72906  0.36109  0.39648  Biso   1.000  N
  N196     1.0000 0.70744  0.35433  0.37425  Biso   1.000  N
  C292     1.0000 0.78355  0.38375  0.42272  Biso   1.000  C
  H98      1.0000 0.77346  0.36839  0.43269  Biso   1.000  H
  C293     1.0000 0.80979  0.39472  0.43352  Biso   1.000  C
  C294     1.0000 0.82518  0.37909  0.45996  Biso   1.000  C
  O197     1.0000 0.34820  0.89253  0.46920  Biso   1.000  O
  O198     1.0000 0.31284  0.85648  0.46941  Biso   1.000  O
  N197     1.0000 0.22906  0.86109  0.39648  Biso   1.000  N
  N198     1.0000 0.20744  0.85433  0.37425  Biso   1.000  N
  C295     1.0000 0.28355  0.88375  0.42272  Biso   1.000  C
  H99      1.0000 0.27346  0.86839  0.43269  Biso   1.000  H
  C296     1.0000 0.30979  0.89472  0.43352  Biso   1.000  C
  C297     1.0000 0.32518  0.87909  0.45996  Biso   1.000  C
  O199     1.0000 0.34820  0.39253  0.96920  Biso   1.000  O
  O200     1.0000 0.31284  0.35648  0.96941  Biso   1.000  O
  N199     1.0000 0.22906  0.36109  0.89648  Biso   1.000  N
  N200     1.0000 0.20744  0.35433  0.87425  Biso   1.000  N
  C298     1.0000 0.28355  0.38375  0.92272  Biso   1.000  C
  H100     1.0000 0.27346  0.36839  0.93269  Biso   1.000  H
  C299     1.0000 0.30979  0.39472  0.93352  Biso   1.000  C
  C300     1.0000 0.32518  0.37909  0.95996  Biso   1.000  C
  O201     1.0000 0.15180  0.10747  0.96920  Biso   1.000  O
  O202     1.0000 0.18716  0.14352  0.96941  Biso   1.000  O
  N201     1.0000 0.27094  0.13891  0.89648  Biso   1.000  N
  N202     1.0000 0.29256  0.14567  0.87425  Biso   1.000  N
  C301     1.0000 0.21645  0.11625  0.92272  Biso   1.000  C
  H101     1.0000 0.22654  0.13161  0.93269  Biso   1.000  H
  C302     1.0000 0.19021  0.10528  0.93352  Biso   1.000  C
  C303     1.0000 0.17482  0.12091  0.95996  Biso   1.000  C
  O203     1.0000 0.15180  0.60747  0.46920  Biso   1.000  O
  O204     1.0000 0.18716  0.64352  0.46941  Biso   1.000  O
  N203     1.0000 0.27094  0.63891  0.39648  Biso   1.000  N
  N204     1.0000 0.29256  0.64567  0.37425  Biso   1.000  N
  C304     1.0000 0.21645  0.61625  0.42272  Biso   1.000  C
  H102     1.0000 0.22654  0.63161  0.43269  Biso   1.000  H
  C305     1.0000 0.19021  0.60528  0.43352  Biso   1.000  C
  C306     1.0000 0.17482  0.62091  0.45996  Biso   1.000  C
  O205     1.0000 0.65180  0.10747  0.46920  Biso   1.000  O
  O206     1.0000 0.68716  0.14352  0.46941  Biso   1.000  O
  N205     1.0000 0.77094  0.13891  0.39648  Biso   1.000  N
  N206     1.0000 0.79256  0.14567  0.37425  Biso   1.000  N
  C307     1.0000 0.71645  0.11625  0.42272  Biso   1.000  C
  H103     1.0000 0.72654  0.13161  0.43269  Biso   1.000  H
  C308     1.0000 0.69021  0.10528  0.43352  Biso   1.000  C
  C309     1.0000 0.67482  0.12091  0.45996  Biso   1.000  C
  O207     1.0000 0.65180  0.60747  0.96920  Biso   1.000  O
  O208     1.0000 0.68716  0.64352  0.96941  Biso   1.000  O
  N207     1.0000 0.77094  0.63891  0.89648  Biso   1.000  N
  N208     1.0000 0.79256  0.64567  0.87425  Biso   1.000  N
  C310     1.0000 0.71645  0.61625  0.92272  Biso   1.000  C
  H104     1.0000 0.72654  0.63161  0.93269  Biso   1.000  H
  C311     1.0000 0.69021  0.60528  0.93352  Biso   1.000  C
  C312     1.0000 0.67482  0.62091  0.95996  Biso   1.000  C
  O209     1.0000 0.15180  0.89253  0.03080  Biso   1.000  O
  O210     1.0000 0.18716  0.85648  0.03059  Biso   1.000  O
  N209     1.0000 0.27094  0.86109  0.10352  Biso   1.000  N
  N210     1.0000 0.29256  0.85433  0.12575  Biso   1.000  N
  C313     1.0000 0.21645  0.88375  0.07728  Biso   1.000  C
  H105     1.0000 0.22654  0.86839  0.06731  Biso   1.000  H
  C314     1.0000 0.19021  0.89472  0.06648  Biso   1.000  C
  C315     1.0000 0.17482  0.87909  0.04004  Biso   1.000  C
  O211     1.0000 0.15180  0.39253  0.53080  Biso   1.000  O
  O212     1.0000 0.18716  0.35648  0.53059  Biso   1.000  O
  N211     1.0000 0.27094  0.36109  0.60352  Biso   1.000  N
  N212     1.0000 0.29256  0.35433  0.62575  Biso   1.000  N
  C316     1.0000 0.21645  0.38375  0.57728  Biso   1.000  C
  H106     1.0000 0.22654  0.36839  0.56731  Biso   1.000  H
  C317     1.0000 0.19021  0.39472  0.56648  Biso   1.000  C
  C318     1.0000 0.17482  0.37909  0.54004  Biso   1.000  C
  O213     1.0000 0.65180  0.89253  0.53080  Biso   1.000  O
  O214     1.0000 0.68716  0.85648  0.53059  Biso   1.000  O
  N213     1.0000 0.77094  0.86109  0.60352  Biso   1.000  N
  N214     1.0000 0.79256  0.85433  0.62575  Biso   1.000  N
  C319     1.0000 0.71645  0.88375  0.57728  Biso   1.000  C
  H107     1.0000 0.72654  0.86839  0.56731  Biso   1.000  H
  C320     1.0000 0.69021  0.89472  0.56648  Biso   1.000  C
  C321     1.0000 0.67482  0.87909  0.54004  Biso   1.000  C
  O215     1.0000 0.65180  0.39253  0.03080  Biso   1.000  O
  O216     1.0000 0.68716  0.35648  0.03059  Biso   1.000  O
  N215     1.0000 0.77094  0.36109  0.10352  Biso   1.000  N
  N216     1.0000 0.79256  0.35433  0.12575  Biso   1.000  N
  C322     1.0000 0.71645  0.38375  0.07728  Biso   1.000  C
  H108     1.0000 0.72654  0.36839  0.06731  Biso   1.000  H
  C323     1.0000 0.69021  0.39472  0.06648  Biso   1.000  C
  C324     1.0000 0.67482  0.37909  0.04004  Biso   1.000  C
  O217     1.0000 0.84820  0.10747  0.03080  Biso   1.000  O
  O218     1.0000 0.81284  0.14352  0.03059  Biso   1.000  O
  N217     1.0000 0.72906  0.13891  0.10352  Biso   1.000  N
  N218     1.0000 0.70744  0.14567  0.12575  Biso   1.000  N
  C325     1.0000 0.78355  0.11625  0.07728  Biso   1.000  C
  H109     1.0000 0.77346  0.13161  0.06731  Biso   1.000  H
  C326     1.0000 0.80979  0.10528  0.06648  Biso   1.000  C
  C327     1.0000 0.82518  0.12091  0.04004  Biso   1.000  C
  O219     1.0000 0.84820  0.60747  0.53080  Biso   1.000  O
  O220     1.0000 0.81284  0.64352  0.53059  Biso   1.000  O
  N219     1.0000 0.72906  0.63891  0.60352  Biso   1.000  N
  N220     1.0000 0.70744  0.64567  0.62575  Biso   1.000  N
  C328     1.0000 0.78355  0.61625  0.57728  Biso   1.000  C
  H110     1.0000 0.77346  0.63161  0.56731  Biso   1.000  H
  C329     1.0000 0.80979  0.60528  0.56648  Biso   1.000  C
  C330     1.0000 0.82518  0.62091  0.54004  Biso   1.000  C
  O221     1.0000 0.34820  0.10747  0.53080  Biso   1.000  O
  O222     1.0000 0.31284  0.14352  0.53059  Biso   1.000  O
  N221     1.0000 0.22906  0.13891  0.60352  Biso   1.000  N
  N222     1.0000 0.20744  0.14567  0.62575  Biso   1.000  N
  C331     1.0000 0.28355  0.11625  0.57728  Biso   1.000  C
  H111     1.0000 0.27346  0.13161  0.56731  Biso   1.000  H
  C332     1.0000 0.30979  0.10528  0.56648  Biso   1.000  C
  C333     1.0000 0.32518  0.12091  0.54004  Biso   1.000  C
  O223     1.0000 0.34820  0.60747  0.03080  Biso   1.000  O
  O224     1.0000 0.31284  0.64352  0.03059  Biso   1.000  O
  N223     1.0000 0.22906  0.63891  0.10352  Biso   1.000  N
  N224     1.0000 0.20744  0.64567  0.12575  Biso   1.000  N
  C334     1.0000 0.28355  0.61625  0.07728  Biso   1.000  C
  H112     1.0000 0.27346  0.63161  0.06731  Biso   1.000  H
  C335     1.0000 0.30979  0.60528  0.06648  Biso   1.000  C
  C336     1.0000 0.32518  0.62091  0.04004  Biso   1.000  C
  O225     1.0000 0.96920  0.84820  0.89253  Biso   1.000  O
  O226     1.0000 0.96941  0.81284  0.85648  Biso   1.000  O
  N225     1.0000 0.89648  0.72906  0.86109  Biso   1.000  N
  N226     1.0000 0.87425  0.70744  0.85433  Biso   1.000  N
  C337     1.0000 0.92272  0.78355  0.88375  Biso   1.000  C
  H113     1.0000 0.93269  0.77346  0.86839  Biso   1.000  H
  C338     1.0000 0.93352  0.80979  0.89472  Biso   1.000  C
  C339     1.0000 0.95996  0.82518  0.87909  Biso   1.000  C
  O227     1.0000 0.96920  0.34820  0.39253  Biso   1.000  O
  O228     1.0000 0.96941  0.31284  0.35648  Biso   1.000  O
  N227     1.0000 0.89648  0.22906  0.36109  Biso   1.000  N
  N228     1.0000 0.87425  0.20744  0.35433  Biso   1.000  N
  C340     1.0000 0.92272  0.28355  0.38375  Biso   1.000  C
  H114     1.0000 0.93269  0.27346  0.36839  Biso   1.000  H
  C341     1.0000 0.93352  0.30979  0.39472  Biso   1.000  C
  C342     1.0000 0.95996  0.32518  0.37909  Biso   1.000  C
  O229     1.0000 0.46920  0.84820  0.39253  Biso   1.000  O
  O230     1.0000 0.46941  0.81284  0.35648  Biso   1.000  O
  N229     1.0000 0.39648  0.72906  0.36109  Biso   1.000  N
  N230     1.0000 0.37425  0.70744  0.35433  Biso   1.000  N
  C343     1.0000 0.42272  0.78355  0.38375  Biso   1.000  C
  H115     1.0000 0.43269  0.77346  0.36839  Biso   1.000  H
  C344     1.0000 0.43352  0.80979  0.39472  Biso   1.000  C
  C345     1.0000 0.45996  0.82518  0.37909  Biso   1.000  C
  O231     1.0000 0.46920  0.34820  0.89253  Biso   1.000  O
  O232     1.0000 0.46941  0.31284  0.85648  Biso   1.000  O
  N231     1.0000 0.39648  0.22906  0.86109  Biso   1.000  N
  N232     1.0000 0.37425  0.20744  0.85433  Biso   1.000  N
  C346     1.0000 0.42272  0.28355  0.88375  Biso   1.000  C
  H116     1.0000 0.43269  0.27346  0.86839  Biso   1.000  H
  C347     1.0000 0.43352  0.30979  0.89472  Biso   1.000  C
  C348     1.0000 0.45996  0.32518  0.87909  Biso   1.000  C
  O233     1.0000 0.96920  0.15180  0.10747  Biso   1.000  O
  O234     1.0000 0.96941  0.18716  0.14352  Biso   1.000  O
  N233     1.0000 0.89648  0.27094  0.13891  Biso   1.000  N
  N234     1.0000 0.87425  0.29256  0.14567  Biso   1.000  N
  C349     1.0000 0.92272  0.21645  0.11625  Biso   1.000  C
  H117     1.0000 0.93269  0.22654  0.13161  Biso   1.000  H
  C350     1.0000 0.93352  0.19021  0.10528  Biso   1.000  C
  C351     1.0000 0.95996  0.17482  0.12091  Biso   1.000  C
  O235     1.0000 0.96920  0.65180  0.60747  Biso   1.000  O
  O236     1.0000 0.96941  0.68716  0.64352  Biso   1.000  O
  N235     1.0000 0.89648  0.77094  0.63891  Biso   1.000  N
  N236     1.0000 0.87425  0.79256  0.64567  Biso   1.000  N
  C352     1.0000 0.92272  0.71645  0.61625  Biso   1.000  C
  H118     1.0000 0.93269  0.72654  0.63161  Biso   1.000  H
  C353     1.0000 0.93352  0.69021  0.60528  Biso   1.000  C
  C354     1.0000 0.95996  0.67482  0.62091  Biso   1.000  C
  O237     1.0000 0.46920  0.15180  0.60747  Biso   1.000  O
  O238     1.0000 0.46941  0.18716  0.64352  Biso   1.000  O
  N237     1.0000 0.39648  0.27094  0.63891  Biso   1.000  N
  N238     1.0000 0.37425  0.29256  0.64567  Biso   1.000  N
  C355     1.0000 0.42272  0.21645  0.61625  Biso   1.000  C
  H119     1.0000 0.43269  0.22654  0.63161  Biso   1.000  H
  C356     1.0000 0.43352  0.19021  0.60528  Biso   1.000  C
  C357     1.0000 0.45996  0.17482  0.62091  Biso   1.000  C
  O239     1.0000 0.46920  0.65180  0.10747  Biso   1.000  O
  O240     1.0000 0.46941  0.68716  0.14352  Biso   1.000  O
  N239     1.0000 0.39648  0.77094  0.13891  Biso   1.000  N
  N240     1.0000 0.37425  0.79256  0.14567  Biso   1.000  N
  C358     1.0000 0.42272  0.71645  0.11625  Biso   1.000  C
  H120     1.0000 0.43269  0.72654  0.13161  Biso   1.000  H
  C359     1.0000 0.43352  0.69021  0.10528  Biso   1.000  C
  C360     1.0000 0.45996  0.67482  0.12091  Biso   1.000  C
  O241     1.0000 0.03080  0.15180  0.89253  Biso   1.000  O
  O242     1.0000 0.03059  0.18716  0.85648  Biso   1.000  O
  N241     1.0000 0.10352  0.27094  0.86109  Biso   1.000  N
  N242     1.0000 0.12575  0.29256  0.85433  Biso   1.000  N
  C361     1.0000 0.07728  0.21645  0.88375  Biso   1.000  C
  H121     1.0000 0.06731  0.22654  0.86839  Biso   1.000  H
  C362     1.0000 0.06648  0.19021  0.89472  Biso   1.000  C
  C363     1.0000 0.04004  0.17482  0.87909  Biso   1.000  C
  O243     1.0000 0.03080  0.65180  0.39253  Biso   1.000  O
  O244     1.0000 0.03059  0.68716  0.35648  Biso   1.000  O
  N243     1.0000 0.10352  0.77094  0.36109  Biso   1.000  N
  N244     1.0000 0.12575  0.79256  0.35433  Biso   1.000  N
  C364     1.0000 0.07728  0.71645  0.38375  Biso   1.000  C
  H122     1.0000 0.06731  0.72654  0.36839  Biso   1.000  H
  C365     1.0000 0.06648  0.69021  0.39472  Biso   1.000  C
  C366     1.0000 0.04004  0.67482  0.37909  Biso   1.000  C
  O245     1.0000 0.53080  0.15180  0.39253  Biso   1.000  O
  O246     1.0000 0.53059  0.18716  0.35648  Biso   1.000  O
  N245     1.0000 0.60352  0.27094  0.36109  Biso   1.000  N
  N246     1.0000 0.62575  0.29256  0.35433  Biso   1.000  N
  C367     1.0000 0.57728  0.21645  0.38375  Biso   1.000  C
  H123     1.0000 0.56731  0.22654  0.36839  Biso   1.000  H
  C368     1.0000 0.56648  0.19021  0.39472  Biso   1.000  C
  C369     1.0000 0.54004  0.17482  0.37909  Biso   1.000  C
  O247     1.0000 0.53080  0.65180  0.89253  Biso   1.000  O
  O248     1.0000 0.53059  0.68716  0.85648  Biso   1.000  O
  N247     1.0000 0.60352  0.77094  0.86109  Biso   1.000  N
  N248     1.0000 0.62575  0.79256  0.85433  Biso   1.000  N
  C370     1.0000 0.57728  0.71645  0.88375  Biso   1.000  C
  H124     1.0000 0.56731  0.72654  0.86839  Biso   1.000  H
  C371     1.0000 0.56648  0.69021  0.89472  Biso   1.000  C
  C372     1.0000 0.54004  0.67482  0.87909  Biso   1.000  C
  O249     1.0000 0.03080  0.84820  0.10747  Biso   1.000  O
  O250     1.0000 0.03059  0.81284  0.14352  Biso   1.000  O
  N249     1.0000 0.10352  0.72906  0.13891  Biso   1.000  N
  N250     1.0000 0.12575  0.70744  0.14567  Biso   1.000  N
  C373     1.0000 0.07728  0.78355  0.11625  Biso   1.000  C
  H125     1.0000 0.06731  0.77346  0.13161  Biso   1.000  H
  C374     1.0000 0.06648  0.80979  0.10528  Biso   1.000  C
  C375     1.0000 0.04004  0.82518  0.12091  Biso   1.000  C
  O251     1.0000 0.03080  0.34820  0.60747  Biso   1.000  O
  O252     1.0000 0.03059  0.31284  0.64352  Biso   1.000  O
  N251     1.0000 0.10352  0.22906  0.63891  Biso   1.000  N
  N252     1.0000 0.12575  0.20744  0.64567  Biso   1.000  N
  C376     1.0000 0.07728  0.28355  0.61625  Biso   1.000  C
  H126     1.0000 0.06731  0.27346  0.63161  Biso   1.000  H
  C377     1.0000 0.06648  0.30979  0.60528  Biso   1.000  C
  C378     1.0000 0.04004  0.32518  0.62091  Biso   1.000  C
  O253     1.0000 0.53080  0.84820  0.60747  Biso   1.000  O
  O254     1.0000 0.53059  0.81284  0.64352  Biso   1.000  O
  N253     1.0000 0.60352  0.72906  0.63891  Biso   1.000  N
  N254     1.0000 0.62575  0.70744  0.64567  Biso   1.000  N
  C379     1.0000 0.57728  0.78355  0.61625  Biso   1.000  C
  H127     1.0000 0.56731  0.77346  0.63161  Biso   1.000  H
  C380     1.0000 0.56648  0.80979  0.60528  Biso   1.000  C
  C381     1.0000 0.54004  0.82518  0.62091  Biso   1.000  C
  O255     1.0000 0.53080  0.34820  0.10747  Biso   1.000  O
  O256     1.0000 0.53059  0.31284  0.14352  Biso   1.000  O
  N255     1.0000 0.60352  0.22906  0.13891  Biso   1.000  N
  N256     1.0000 0.62575  0.20744  0.14567  Biso   1.000  N
  C382     1.0000 0.57728  0.28355  0.11625  Biso   1.000  C
  H128     1.0000 0.56731  0.27346  0.13161  Biso   1.000  H
  C383     1.0000 0.56648  0.30979  0.10528  Biso   1.000  C
  C384     1.0000 0.54004  0.32518  0.12091  Biso   1.000  C
  O257     1.0000 0.89253  0.96920  0.84820  Biso   1.000  O
  O258     1.0000 0.85648  0.96941  0.81284  Biso   1.000  O
  N257     1.0000 0.86109  0.89648  0.72906  Biso   1.000  N
  N258     1.0000 0.85433  0.87425  0.70744  Biso   1.000  N
  C385     1.0000 0.88375  0.92272  0.78355  Biso   1.000  C
  H129     1.0000 0.86839  0.93269  0.77346  Biso   1.000  H
  C386     1.0000 0.89472  0.93352  0.80979  Biso   1.000  C
  C387     1.0000 0.87909  0.95996  0.82518  Biso   1.000  C
  O259     1.0000 0.89253  0.46920  0.34820  Biso   1.000  O
  O260     1.0000 0.85648  0.46941  0.31284  Biso   1.000  O
  N259     1.0000 0.86109  0.39648  0.22906  Biso   1.000  N
  N260     1.0000 0.85433  0.37425  0.20744  Biso   1.000  N
  C388     1.0000 0.88375  0.42272  0.28355  Biso   1.000  C
  H130     1.0000 0.86839  0.43269  0.27346  Biso   1.000  H
  C389     1.0000 0.89472  0.43352  0.30979  Biso   1.000  C
  C390     1.0000 0.87909  0.45996  0.32518  Biso   1.000  C
  O261     1.0000 0.39253  0.96920  0.34820  Biso   1.000  O
  O262     1.0000 0.35648  0.96941  0.31284  Biso   1.000  O
  N261     1.0000 0.36109  0.89648  0.22906  Biso   1.000  N
  N262     1.0000 0.35433  0.87425  0.20744  Biso   1.000  N
  C391     1.0000 0.38375  0.92272  0.28355  Biso   1.000  C
  H131     1.0000 0.36839  0.93269  0.27346  Biso   1.000  H
  C392     1.0000 0.39472  0.93352  0.30979  Biso   1.000  C
  C393     1.0000 0.37909  0.95996  0.32518  Biso   1.000  C
  O263     1.0000 0.39253  0.46920  0.84820  Biso   1.000  O
  O264     1.0000 0.35648  0.46941  0.81284  Biso   1.000  O
  N263     1.0000 0.36109  0.39648  0.72906  Biso   1.000  N
  N264     1.0000 0.35433  0.37425  0.70744  Biso   1.000  N
  C394     1.0000 0.38375  0.42272  0.78355  Biso   1.000  C
  H132     1.0000 0.36839  0.43269  0.77346  Biso   1.000  H
  C395     1.0000 0.39472  0.43352  0.80979  Biso   1.000  C
  C396     1.0000 0.37909  0.45996  0.82518  Biso   1.000  C
  O265     1.0000 0.10747  0.96920  0.15180  Biso   1.000  O
  O266     1.0000 0.14352  0.96941  0.18716  Biso   1.000  O
  N265     1.0000 0.13891  0.89648  0.27094  Biso   1.000  N
  N266     1.0000 0.14567  0.87425  0.29256  Biso   1.000  N
  C397     1.0000 0.11625  0.92272  0.21645  Biso   1.000  C
  H133     1.0000 0.13161  0.93269  0.22654  Biso   1.000  H
  C398     1.0000 0.10528  0.93352  0.19021  Biso   1.000  C
  C399     1.0000 0.12091  0.95996  0.17482  Biso   1.000  C
  O267     1.0000 0.10747  0.46920  0.65180  Biso   1.000  O
  O268     1.0000 0.14352  0.46941  0.68716  Biso   1.000  O
  N267     1.0000 0.13891  0.39648  0.77094  Biso   1.000  N
  N268     1.0000 0.14567  0.37425  0.79256  Biso   1.000  N
  C400     1.0000 0.11625  0.42272  0.71645  Biso   1.000  C
  H134     1.0000 0.13161  0.43269  0.72654  Biso   1.000  H
  C401     1.0000 0.10528  0.43352  0.69021  Biso   1.000  C
  C402     1.0000 0.12091  0.45996  0.67482  Biso   1.000  C
  O269     1.0000 0.60747  0.96920  0.65180  Biso   1.000  O
  O270     1.0000 0.64352  0.96941  0.68716  Biso   1.000  O
  N269     1.0000 0.63891  0.89648  0.77094  Biso   1.000  N
  N270     1.0000 0.64567  0.87425  0.79256  Biso   1.000  N
  C403     1.0000 0.61625  0.92272  0.71645  Biso   1.000  C
  H135     1.0000 0.63161  0.93269  0.72654  Biso   1.000  H
  C404     1.0000 0.60528  0.93352  0.69021  Biso   1.000  C
  C405     1.0000 0.62091  0.95996  0.67482  Biso   1.000  C
  O271     1.0000 0.60747  0.46920  0.15180  Biso   1.000  O
  O272     1.0000 0.64352  0.46941  0.18716  Biso   1.000  O
  N271     1.0000 0.63891  0.39648  0.27094  Biso   1.000  N
  N272     1.0000 0.64567  0.37425  0.29256  Biso   1.000  N
  C406     1.0000 0.61625  0.42272  0.21645  Biso   1.000  C
  H136     1.0000 0.63161  0.43269  0.22654  Biso   1.000  H
  C407     1.0000 0.60528  0.43352  0.19021  Biso   1.000  C
  C408     1.0000 0.62091  0.45996  0.17482  Biso   1.000  C
  O273     1.0000 0.89253  0.03080  0.15180  Biso   1.000  O
  O274     1.0000 0.85648  0.03059  0.18716  Biso   1.000  O
  N273     1.0000 0.86109  0.10352  0.27094  Biso   1.000  N
  N274     1.0000 0.85433  0.12575  0.29256  Biso   1.000  N
  C409     1.0000 0.88375  0.07728  0.21645  Biso   1.000  C
  H137     1.0000 0.86839  0.06731  0.22654  Biso   1.000  H
  C410     1.0000 0.89472  0.06648  0.19021  Biso   1.000  C
  C411     1.0000 0.87909  0.04004  0.17482  Biso   1.000  C
  O275     1.0000 0.89253  0.53080  0.65180  Biso   1.000  O
  O276     1.0000 0.85648  0.53059  0.68716  Biso   1.000  O
  N275     1.0000 0.86109  0.60352  0.77094  Biso   1.000  N
  N276     1.0000 0.85433  0.62575  0.79256  Biso   1.000  N
  C412     1.0000 0.88375  0.57728  0.71645  Biso   1.000  C
  H138     1.0000 0.86839  0.56731  0.72654  Biso   1.000  H
  C413     1.0000 0.89472  0.56648  0.69021  Biso   1.000  C
  C414     1.0000 0.87909  0.54004  0.67482  Biso   1.000  C
  O277     1.0000 0.39253  0.03080  0.65180  Biso   1.000  O
  O278     1.0000 0.35648  0.03059  0.68716  Biso   1.000  O
  N277     1.0000 0.36109  0.10352  0.77094  Biso   1.000  N
  N278     1.0000 0.35433  0.12575  0.79256  Biso   1.000  N
  C415     1.0000 0.38375  0.07728  0.71645  Biso   1.000  C
  H139     1.0000 0.36839  0.06731  0.72654  Biso   1.000  H
  C416     1.0000 0.39472  0.06648  0.69021  Biso   1.000  C
  C417     1.0000 0.37909  0.04004  0.67482  Biso   1.000  C
  O279     1.0000 0.39253  0.53080  0.15180  Biso   1.000  O
  O280     1.0000 0.35648  0.53059  0.18716  Biso   1.000  O
  N279     1.0000 0.36109  0.60352  0.27094  Biso   1.000  N
  N280     1.0000 0.35433  0.62575  0.29256  Biso   1.000  N
  C418     1.0000 0.38375  0.57728  0.21645  Biso   1.000  C
  H140     1.0000 0.36839  0.56731  0.22654  Biso   1.000  H
  C419     1.0000 0.39472  0.56648  0.19021  Biso   1.000  C
  C420     1.0000 0.37909  0.54004  0.17482  Biso   1.000  C
  O281     1.0000 0.10747  0.03080  0.84820  Biso   1.000  O
  O282     1.0000 0.14352  0.03059  0.81284  Biso   1.000  O
  N281     1.0000 0.13891  0.10352  0.72906  Biso   1.000  N
  N282     1.0000 0.14567  0.12575  0.70744  Biso   1.000  N
  C421     1.0000 0.11625  0.07728  0.78355  Biso   1.000  C
  H141     1.0000 0.13161  0.06731  0.77346  Biso   1.000  H
  C422     1.0000 0.10528  0.06648  0.80979  Biso   1.000  C
  C423     1.0000 0.12091  0.04004  0.82518  Biso   1.000  C
  O283     1.0000 0.10747  0.53080  0.34820  Biso   1.000  O
  O284     1.0000 0.14352  0.53059  0.31284  Biso   1.000  O
  N283     1.0000 0.13891  0.60352  0.22906  Biso   1.000  N
  N284     1.0000 0.14567  0.62575  0.20744  Biso   1.000  N
  C424     1.0000 0.11625  0.57728  0.28355  Biso   1.000  C
  H142     1.0000 0.13161  0.56731  0.27346  Biso   1.000  H
  C425     1.0000 0.10528  0.56648  0.30979  Biso   1.000  C
  C426     1.0000 0.12091  0.54004  0.32518  Biso   1.000  C
  O285     1.0000 0.60747  0.03080  0.34820  Biso   1.000  O
  O286     1.0000 0.64352  0.03059  0.31284  Biso   1.000  O
  N285     1.0000 0.63891  0.10352  0.22906  Biso   1.000  N
  N286     1.0000 0.64567  0.12575  0.20744  Biso   1.000  N
  C427     1.0000 0.61625  0.07728  0.28355  Biso   1.000  C
  H143     1.0000 0.63161  0.06731  0.27346  Biso   1.000  H
  C428     1.0000 0.60528  0.06648  0.30979  Biso   1.000  C
  C429     1.0000 0.62091  0.04004  0.32518  Biso   1.000  C
  O287     1.0000 0.60747  0.53080  0.84820  Biso   1.000  O
  O288     1.0000 0.64352  0.53059  0.81284  Biso   1.000  O
  N287     1.0000 0.63891  0.60352  0.72906  Biso   1.000  N
  N288     1.0000 0.64567  0.62575  0.70744  Biso   1.000  N
  C430     1.0000 0.61625  0.57728  0.78355  Biso   1.000  C
  H144     1.0000 0.63161  0.56731  0.77346  Biso   1.000  H
  C431     1.0000 0.60528  0.56648  0.80979  Biso   1.000  C
  C432     1.0000 0.62091  0.54004  0.82518  Biso   1.000  C
  O289     1.0000 0.89253  0.84820  0.03080  Biso   1.000  O
  O290     1.0000 0.85648  0.81284  0.03059  Biso   1.000  O
  N289     1.0000 0.86109  0.72906  0.10352  Biso   1.000  N
  N290     1.0000 0.85433  0.70744  0.12575  Biso   1.000  N
  C433     1.0000 0.88375  0.78355  0.07728  Biso   1.000  C
  H145     1.0000 0.86839  0.77346  0.06731  Biso   1.000  H
  C434     1.0000 0.89472  0.80979  0.06648  Biso   1.000  C
  C435     1.0000 0.87909  0.82518  0.04004  Biso   1.000  C
  O291     1.0000 0.89253  0.34820  0.53080  Biso   1.000  O
  O292     1.0000 0.85648  0.31284  0.53059  Biso   1.000  O
  N291     1.0000 0.86109  0.22906  0.60352  Biso   1.000  N
  N292     1.0000 0.85433  0.20744  0.62575  Biso   1.000  N
  C436     1.0000 0.88375  0.28355  0.57728  Biso   1.000  C
  H146     1.0000 0.86839  0.27346  0.56731  Biso   1.000  H
  C437     1.0000 0.89472  0.30979  0.56648  Biso   1.000  C
  C438     1.0000 0.87909  0.32518  0.54004  Biso   1.000  C
  O293     1.0000 0.39253  0.84820  0.53080  Biso   1.000  O
  O294     1.0000 0.35648  0.81284  0.53059  Biso   1.000  O
  N293     1.0000 0.36109  0.72906  0.60352  Biso   1.000  N
  N294     1.0000 0.35433  0.70744  0.62575  Biso   1.000  N
  C439     1.0000 0.38375  0.78355  0.57728  Biso   1.000  C
  H147     1.0000 0.36839  0.77346  0.56731  Biso   1.000  H
  C440     1.0000 0.39472  0.80979  0.56648  Biso   1.000  C
  C441     1.0000 0.37909  0.82518  0.54004  Biso   1.000  C
  O295     1.0000 0.39253  0.34820  0.03080  Biso   1.000  O
  O296     1.0000 0.35648  0.31284  0.03059  Biso   1.000  O
  N295     1.0000 0.36109  0.22906  0.10352  Biso   1.000  N
  N296     1.0000 0.35433  0.20744  0.12575  Biso   1.000  N
  C442     1.0000 0.38375  0.28355  0.07728  Biso   1.000  C
  H148     1.0000 0.36839  0.27346  0.06731  Biso   1.000  H
  C443     1.0000 0.39472  0.30979  0.06648  Biso   1.000  C
  C444     1.0000 0.37909  0.32518  0.04004  Biso   1.000  C
  O297     1.0000 0.10747  0.15180  0.03080  Biso   1.000  O
  O298     1.0000 0.14352  0.18716  0.03059  Biso   1.000  O
  N297     1.0000 0.13891  0.27094  0.10352  Biso   1.000  N
  N298     1.0000 0.14567  0.29256  0.12575  Biso   1.000  N
  C445     1.0000 0.11625  0.21645  0.07728  Biso   1.000  C
  H149     1.0000 0.13161  0.22654  0.06731  Biso   1.000  H
  C446     1.0000 0.10528  0.19021  0.06648  Biso   1.000  C
  C447     1.0000 0.12091  0.17482  0.04004  Biso   1.000  C
  O299     1.0000 0.10747  0.65180  0.53080  Biso   1.000  O
  O300     1.0000 0.14352  0.68716  0.53059  Biso   1.000  O
  N299     1.0000 0.13891  0.77094  0.60352  Biso   1.000  N
  N300     1.0000 0.14567  0.79256  0.62575  Biso   1.000  N
  C448     1.0000 0.11625  0.71645  0.57728  Biso   1.000  C
  H150     1.0000 0.13161  0.72654  0.56731  Biso   1.000  H
  C449     1.0000 0.10528  0.69021  0.56648  Biso   1.000  C
  C450     1.0000 0.12091  0.67482  0.54004  Biso   1.000  C
  O301     1.0000 0.60747  0.15180  0.53080  Biso   1.000  O
  O302     1.0000 0.64352  0.18716  0.53059  Biso   1.000  O
  N301     1.0000 0.63891  0.27094  0.60352  Biso   1.000  N
  N302     1.0000 0.64567  0.29256  0.62575  Biso   1.000  N
  C451     1.0000 0.61625  0.21645  0.57728  Biso   1.000  C
  H151     1.0000 0.63161  0.22654  0.56731  Biso   1.000  H
  C452     1.0000 0.60528  0.19021  0.56648  Biso   1.000  C
  C453     1.0000 0.62091  0.17482  0.54004  Biso   1.000  C
  O303     1.0000 0.60747  0.65180  0.03080  Biso   1.000  O
  O304     1.0000 0.64352  0.68716  0.03059  Biso   1.000  O
  N303     1.0000 0.63891  0.77094  0.10352  Biso   1.000  N
  N304     1.0000 0.64567  0.79256  0.12575  Biso   1.000  N
  C454     1.0000 0.61625  0.71645  0.07728  Biso   1.000  C
  H152     1.0000 0.63161  0.72654  0.06731  Biso   1.000  H
  C455     1.0000 0.60528  0.69021  0.06648  Biso   1.000  C
  C456     1.0000 0.62091  0.67482  0.04004  Biso   1.000  C
  O305     1.0000 0.89253  0.15180  0.96920  Biso   1.000  O
  O306     1.0000 0.85648  0.18716  0.96941  Biso   1.000  O
  N305     1.0000 0.86109  0.27094  0.89648  Biso   1.000  N
  N306     1.0000 0.85433  0.29256  0.87425  Biso   1.000  N
  C457     1.0000 0.88375  0.21645  0.92272  Biso   1.000  C
  H153     1.0000 0.86839  0.22654  0.93269  Biso   1.000  H
  C458     1.0000 0.89472  0.19021  0.93352  Biso   1.000  C
  C459     1.0000 0.87909  0.17482  0.95996  Biso   1.000  C
  O307     1.0000 0.89253  0.65180  0.46920  Biso   1.000  O
  O308     1.0000 0.85648  0.68716  0.46941  Biso   1.000  O
  N307     1.0000 0.86109  0.77094  0.39648  Biso   1.000  N
  N308     1.0000 0.85433  0.79256  0.37425  Biso   1.000  N
  C460     1.0000 0.88375  0.71645  0.42272  Biso   1.000  C
  H154     1.0000 0.86839  0.72654  0.43269  Biso   1.000  H
  C461     1.0000 0.89472  0.69021  0.43352  Biso   1.000  C
  C462     1.0000 0.87909  0.67482  0.45996  Biso   1.000  C
  O309     1.0000 0.39253  0.15180  0.46920  Biso   1.000  O
  O310     1.0000 0.35648  0.18716  0.46941  Biso   1.000  O
  N309     1.0000 0.36109  0.27094  0.39648  Biso   1.000  N
  N310     1.0000 0.35433  0.29256  0.37425  Biso   1.000  N
  C463     1.0000 0.38375  0.21645  0.42272  Biso   1.000  C
  H155     1.0000 0.36839  0.22654  0.43269  Biso   1.000  H
  C464     1.0000 0.39472  0.19021  0.43352  Biso   1.000  C
  C465     1.0000 0.37909  0.17482  0.45996  Biso   1.000  C
  O311     1.0000 0.39253  0.65180  0.96920  Biso   1.000  O
  O312     1.0000 0.35648  0.68716  0.96941  Biso   1.000  O
  N311     1.0000 0.36109  0.77094  0.89648  Biso   1.000  N
  N312     1.0000 0.35433  0.79256  0.87425  Biso   1.000  N
  C466     1.0000 0.38375  0.71645  0.92272  Biso   1.000  C
  H156     1.0000 0.36839  0.72654  0.93269  Biso   1.000  H
  C467     1.0000 0.39472  0.69021  0.93352  Biso   1.000  C
  C468     1.0000 0.37909  0.67482  0.95996  Biso   1.000  C
  O313     1.0000 0.10747  0.84820  0.96920  Biso   1.000  O
  O314     1.0000 0.14352  0.81284  0.96941  Biso   1.000  O
  N313     1.0000 0.13891  0.72906  0.89648  Biso   1.000  N
  N314     1.0000 0.14567  0.70744  0.87425  Biso   1.000  N
  C469     1.0000 0.11625  0.78355  0.92272  Biso   1.000  C
  H157     1.0000 0.13161  0.77346  0.93269  Biso   1.000  H
  C470     1.0000 0.10528  0.80979  0.93352  Biso   1.000  C
  C471     1.0000 0.12091  0.82518  0.95996  Biso   1.000  C
  O315     1.0000 0.10747  0.34820  0.46920  Biso   1.000  O
  O316     1.0000 0.14352  0.31284  0.46941  Biso   1.000  O
  N315     1.0000 0.13891  0.22906  0.39648  Biso   1.000  N
  N316     1.0000 0.14567  0.20744  0.37425  Biso   1.000  N
  C472     1.0000 0.11625  0.28355  0.42272  Biso   1.000  C
  H158     1.0000 0.13161  0.27346  0.43269  Biso   1.000  H
  C473     1.0000 0.10528  0.30979  0.43352  Biso   1.000  C
  C474     1.0000 0.12091  0.32518  0.45996  Biso   1.000  C
  O317     1.0000 0.60747  0.84820  0.46920  Biso   1.000  O
  O318     1.0000 0.64352  0.81284  0.46941  Biso   1.000  O
  N317     1.0000 0.63891  0.72906  0.39648  Biso   1.000  N
  N318     1.0000 0.64567  0.70744  0.37425  Biso   1.000  N
  C475     1.0000 0.61625  0.78355  0.42272  Biso   1.000  C
  H159     1.0000 0.63161  0.77346  0.43269  Biso   1.000  H
  C476     1.0000 0.60528  0.80979  0.43352  Biso   1.000  C
  C477     1.0000 0.62091  0.82518  0.45996  Biso   1.000  C
  O319     1.0000 0.60747  0.34820  0.96920  Biso   1.000  O
  O320     1.0000 0.64352  0.31284  0.96941  Biso   1.000  O
  N319     1.0000 0.63891  0.22906  0.89648  Biso   1.000  N
  N320     1.0000 0.64567  0.20744  0.87425  Biso   1.000  N
  C478     1.0000 0.61625  0.28355  0.92272  Biso   1.000  C
  H160     1.0000 0.63161  0.27346  0.93269  Biso   1.000  H
  C479     1.0000 0.60528  0.30979  0.93352  Biso   1.000  C
  C480     1.0000 0.62091  0.32518  0.95996  Biso   1.000  C
  O321     1.0000 0.84820  0.96920  0.10747  Biso   1.000  O
  O322     1.0000 0.81284  0.96941  0.14352  Biso   1.000  O
  N321     1.0000 0.72906  0.89648  0.13891  Biso   1.000  N
  N322     1.0000 0.70744  0.87425  0.14567  Biso   1.000  N
  C481     1.0000 0.78355  0.92272  0.11625  Biso   1.000  C
  H161     1.0000 0.77346  0.93269  0.13161  Biso   1.000  H
  C482     1.0000 0.80979  0.93352  0.10528  Biso   1.000  C
  C483     1.0000 0.82518  0.95996  0.12091  Biso   1.000  C
  O323     1.0000 0.84820  0.46920  0.60747  Biso   1.000  O
  O324     1.0000 0.81284  0.46941  0.64352  Biso   1.000  O
  N323     1.0000 0.72906  0.39648  0.63891  Biso   1.000  N
  N324     1.0000 0.70744  0.37425  0.64567  Biso   1.000  N
  C484     1.0000 0.78355  0.42272  0.61625  Biso   1.000  C
  H162     1.0000 0.77346  0.43269  0.63161  Biso   1.000  H
  C485     1.0000 0.80979  0.43352  0.60528  Biso   1.000  C
  C486     1.0000 0.82518  0.45996  0.62091  Biso   1.000  C
  O325     1.0000 0.34820  0.96920  0.60747  Biso   1.000  O
  O326     1.0000 0.31284  0.96941  0.64352  Biso   1.000  O
  N325     1.0000 0.22906  0.89648  0.63891  Biso   1.000  N
  N326     1.0000 0.20744  0.87425  0.64567  Biso   1.000  N
  C487     1.0000 0.28355  0.92272  0.61625  Biso   1.000  C
  H163     1.0000 0.27346  0.93269  0.63161  Biso   1.000  H
  C488     1.0000 0.30979  0.93352  0.60528  Biso   1.000  C
  C489     1.0000 0.32518  0.95996  0.62091  Biso   1.000  C
  O327     1.0000 0.34820  0.46920  0.10747  Biso   1.000  O
  O328     1.0000 0.31284  0.46941  0.14352  Biso   1.000  O
  N327     1.0000 0.22906  0.39648  0.13891  Biso   1.000  N
  N328     1.0000 0.20744  0.37425  0.14567  Biso   1.000  N
  C490     1.0000 0.28355  0.42272  0.11625  Biso   1.000  C
  H164     1.0000 0.27346  0.43269  0.13161  Biso   1.000  H
  C491     1.0000 0.30979  0.43352  0.10528  Biso   1.000  C
  C492     1.0000 0.32518  0.45996  0.12091  Biso   1.000  C
  O329     1.0000 0.15180  0.96920  0.89253  Biso   1.000  O
  O330     1.0000 0.18716  0.96941  0.85648  Biso   1.000  O
  N329     1.0000 0.27094  0.89648  0.86109  Biso   1.000  N
  N330     1.0000 0.29256  0.87425  0.85433  Biso   1.000  N
  C493     1.0000 0.21645  0.92272  0.88375  Biso   1.000  C
  H165     1.0000 0.22654  0.93269  0.86839  Biso   1.000  H
  C494     1.0000 0.19021  0.93352  0.89472  Biso   1.000  C
  C495     1.0000 0.17482  0.95996  0.87909  Biso   1.000  C
  O331     1.0000 0.15180  0.46920  0.39253  Biso   1.000  O
  O332     1.0000 0.18716  0.46941  0.35648  Biso   1.000  O
  N331     1.0000 0.27094  0.39648  0.36109  Biso   1.000  N
  N332     1.0000 0.29256  0.37425  0.35433  Biso   1.000  N
  C496     1.0000 0.21645  0.42272  0.38375  Biso   1.000  C
  H166     1.0000 0.22654  0.43269  0.36839  Biso   1.000  H
  C497     1.0000 0.19021  0.43352  0.39472  Biso   1.000  C
  C498     1.0000 0.17482  0.45996  0.37909  Biso   1.000  C
  O333     1.0000 0.65180  0.96920  0.39253  Biso   1.000  O
  O334     1.0000 0.68716  0.96941  0.35648  Biso   1.000  O
  N333     1.0000 0.77094  0.89648  0.36109  Biso   1.000  N
  N334     1.0000 0.79256  0.87425  0.35433  Biso   1.000  N
  C499     1.0000 0.71645  0.92272  0.38375  Biso   1.000  C
  H167     1.0000 0.72654  0.93269  0.36839  Biso   1.000  H
  C500     1.0000 0.69021  0.93352  0.39472  Biso   1.000  C
  C501     1.0000 0.67482  0.95996  0.37909  Biso   1.000  C
  O335     1.0000 0.65180  0.46920  0.89253  Biso   1.000  O
  O336     1.0000 0.68716  0.46941  0.85648  Biso   1.000  O
  N335     1.0000 0.77094  0.39648  0.86109  Biso   1.000  N
  N336     1.0000 0.79256  0.37425  0.85433  Biso   1.000  N
  C502     1.0000 0.71645  0.42272  0.88375  Biso   1.000  C
  H168     1.0000 0.72654  0.43269  0.86839  Biso   1.000  H
  C503     1.0000 0.69021  0.43352  0.89472  Biso   1.000  C
  C504     1.0000 0.67482  0.45996  0.87909  Biso   1.000  C
  O337     1.0000 0.15180  0.03080  0.10747  Biso   1.000  O
  O338     1.0000 0.18716  0.03059  0.14352  Biso   1.000  O
  N337     1.0000 0.27094  0.10352  0.13891  Biso   1.000  N
  N338     1.0000 0.29256  0.12575  0.14567  Biso   1.000  N
  C505     1.0000 0.21645  0.07728  0.11625  Biso   1.000  C
  H169     1.0000 0.22654  0.06731  0.13161  Biso   1.000  H
  C506     1.0000 0.19021  0.06648  0.10528  Biso   1.000  C
  C507     1.0000 0.17482  0.04004  0.12091  Biso   1.000  C
  O339     1.0000 0.15180  0.53080  0.60747  Biso   1.000  O
  O340     1.0000 0.18716  0.53059  0.64352  Biso   1.000  O
  N339     1.0000 0.27094  0.60352  0.63891  Biso   1.000  N
  N340     1.0000 0.29256  0.62575  0.64567  Biso   1.000  N
  C508     1.0000 0.21645  0.57728  0.61625  Biso   1.000  C
  H170     1.0000 0.22654  0.56731  0.63161  Biso   1.000  H
  C509     1.0000 0.19021  0.56648  0.60528  Biso   1.000  C
  C510     1.0000 0.17482  0.54004  0.62091  Biso   1.000  C
  O341     1.0000 0.65180  0.03080  0.60747  Biso   1.000  O
  O342     1.0000 0.68716  0.03059  0.64352  Biso   1.000  O
  N341     1.0000 0.77094  0.10352  0.63891  Biso   1.000  N
  N342     1.0000 0.79256  0.12575  0.64567  Biso   1.000  N
  C511     1.0000 0.71645  0.07728  0.61625  Biso   1.000  C
  H171     1.0000 0.72654  0.06731  0.63161  Biso   1.000  H
  C512     1.0000 0.69021  0.06648  0.60528  Biso   1.000  C
  C513     1.0000 0.67482  0.04004  0.62091  Biso   1.000  C
  O343     1.0000 0.65180  0.53080  0.10747  Biso   1.000  O
  O344     1.0000 0.68716  0.53059  0.14352  Biso   1.000  O
  N343     1.0000 0.77094  0.60352  0.13891  Biso   1.000  N
  N344     1.0000 0.79256  0.62575  0.14567  Biso   1.000  N
  C514     1.0000 0.71645  0.57728  0.11625  Biso   1.000  C
  H172     1.0000 0.72654  0.56731  0.13161  Biso   1.000  H
  C515     1.0000 0.69021  0.56648  0.10528  Biso   1.000  C
  C516     1.0000 0.67482  0.54004  0.12091  Biso   1.000  C
  O345     1.0000 0.84820  0.03080  0.89253  Biso   1.000  O
  O346     1.0000 0.81284  0.03059  0.85648  Biso   1.000  O
  N345     1.0000 0.72906  0.10352  0.86109  Biso   1.000  N
  N346     1.0000 0.70744  0.12575  0.85433  Biso   1.000  N
  C517     1.0000 0.78355  0.07728  0.88375  Biso   1.000  C
  H173     1.0000 0.77346  0.06731  0.86839  Biso   1.000  H
  C518     1.0000 0.80979  0.06648  0.89472  Biso   1.000  C
  C519     1.0000 0.82518  0.04004  0.87909  Biso   1.000  C
  O347     1.0000 0.84820  0.53080  0.39253  Biso   1.000  O
  O348     1.0000 0.81284  0.53059  0.35648  Biso   1.000  O
  N347     1.0000 0.72906  0.60352  0.36109  Biso   1.000  N
  N348     1.0000 0.70744  0.62575  0.35433  Biso   1.000  N
  C520     1.0000 0.78355  0.57728  0.38375  Biso   1.000  C
  H174     1.0000 0.77346  0.56731  0.36839  Biso   1.000  H
  C521     1.0000 0.80979  0.56648  0.39472  Biso   1.000  C
  C522     1.0000 0.82518  0.54004  0.37909  Biso   1.000  C
  O349     1.0000 0.34820  0.03080  0.39253  Biso   1.000  O
  O350     1.0000 0.31284  0.03059  0.35648  Biso   1.000  O
  N349     1.0000 0.22906  0.10352  0.36109  Biso   1.000  N
  N350     1.0000 0.20744  0.12575  0.35433  Biso   1.000  N
  C523     1.0000 0.28355  0.07728  0.38375  Biso   1.000  C
  H175     1.0000 0.27346  0.06731  0.36839  Biso   1.000  H
  C524     1.0000 0.30979  0.06648  0.39472  Biso   1.000  C
  C525     1.0000 0.32518  0.04004  0.37909  Biso   1.000  C
  O351     1.0000 0.34820  0.53080  0.89253  Biso   1.000  O
  O352     1.0000 0.31284  0.53059  0.85648  Biso   1.000  O
  N351     1.0000 0.22906  0.60352  0.86109  Biso   1.000  N
  N352     1.0000 0.20744  0.62575  0.85433  Biso   1.000  N
  C526     1.0000 0.28355  0.57728  0.88375  Biso   1.000  C
  H176     1.0000 0.27346  0.56731  0.86839  Biso   1.000  H
  C527     1.0000 0.30979  0.56648  0.89472  Biso   1.000  C
  C528     1.0000 0.32518  0.54004  0.87909  Biso   1.000  C
  O353     1.0000 0.96920  0.89253  0.15180  Biso   1.000  O
  O354     1.0000 0.96941  0.85648  0.18716  Biso   1.000  O
  N353     1.0000 0.89648  0.86109  0.27094  Biso   1.000  N
  N354     1.0000 0.87425  0.85433  0.29256  Biso   1.000  N
  C529     1.0000 0.92272  0.88375  0.21645  Biso   1.000  C
  H177     1.0000 0.93269  0.86839  0.22654  Biso   1.000  H
  C530     1.0000 0.93352  0.89472  0.19021  Biso   1.000  C
  C531     1.0000 0.95996  0.87909  0.17482  Biso   1.000  C
  O355     1.0000 0.96920  0.39253  0.65180  Biso   1.000  O
  O356     1.0000 0.96941  0.35648  0.68716  Biso   1.000  O
  N355     1.0000 0.89648  0.36109  0.77094  Biso   1.000  N
  N356     1.0000 0.87425  0.35433  0.79256  Biso   1.000  N
  C532     1.0000 0.92272  0.38375  0.71645  Biso   1.000  C
  H178     1.0000 0.93269  0.36839  0.72654  Biso   1.000  H
  C533     1.0000 0.93352  0.39472  0.69021  Biso   1.000  C
  C534     1.0000 0.95996  0.37909  0.67482  Biso   1.000  C
  O357     1.0000 0.46920  0.89253  0.65180  Biso   1.000  O
  O358     1.0000 0.46941  0.85648  0.68716  Biso   1.000  O
  N357     1.0000 0.39648  0.86109  0.77094  Biso   1.000  N
  N358     1.0000 0.37425  0.85433  0.79256  Biso   1.000  N
  C535     1.0000 0.42272  0.88375  0.71645  Biso   1.000  C
  H179     1.0000 0.43269  0.86839  0.72654  Biso   1.000  H
  C536     1.0000 0.43352  0.89472  0.69021  Biso   1.000  C
  C537     1.0000 0.45996  0.87909  0.67482  Biso   1.000  C
  O359     1.0000 0.46920  0.39253  0.15180  Biso   1.000  O
  O360     1.0000 0.46941  0.35648  0.18716  Biso   1.000  O
  N359     1.0000 0.39648  0.36109  0.27094  Biso   1.000  N
  N360     1.0000 0.37425  0.35433  0.29256  Biso   1.000  N
  C538     1.0000 0.42272  0.38375  0.21645  Biso   1.000  C
  H180     1.0000 0.43269  0.36839  0.22654  Biso   1.000  H
  C539     1.0000 0.43352  0.39472  0.19021  Biso   1.000  C
  C540     1.0000 0.45996  0.37909  0.17482  Biso   1.000  C
  O361     1.0000 0.96920  0.10747  0.84820  Biso   1.000  O
  O362     1.0000 0.96941  0.14352  0.81284  Biso   1.000  O
  N361     1.0000 0.89648  0.13891  0.72906  Biso   1.000  N
  N362     1.0000 0.87425  0.14567  0.70744  Biso   1.000  N
  C541     1.0000 0.92272  0.11625  0.78355  Biso   1.000  C
  H181     1.0000 0.93269  0.13161  0.77346  Biso   1.000  H
  C542     1.0000 0.93352  0.10528  0.80979  Biso   1.000  C
  C543     1.0000 0.95996  0.12091  0.82518  Biso   1.000  C
  O363     1.0000 0.96920  0.60747  0.34820  Biso   1.000  O
  O364     1.0000 0.96941  0.64352  0.31284  Biso   1.000  O
  N363     1.0000 0.89648  0.63891  0.22906  Biso   1.000  N
  N364     1.0000 0.87425  0.64567  0.20744  Biso   1.000  N
  C544     1.0000 0.92272  0.61625  0.28355  Biso   1.000  C
  H182     1.0000 0.93269  0.63161  0.27346  Biso   1.000  H
  C545     1.0000 0.93352  0.60528  0.30979  Biso   1.000  C
  C546     1.0000 0.95996  0.62091  0.32518  Biso   1.000  C
  O365     1.0000 0.46920  0.10747  0.34820  Biso   1.000  O
  O366     1.0000 0.46941  0.14352  0.31284  Biso   1.000  O
  N365     1.0000 0.39648  0.13891  0.22906  Biso   1.000  N
  N366     1.0000 0.37425  0.14567  0.20744  Biso   1.000  N
  C547     1.0000 0.42272  0.11625  0.28355  Biso   1.000  C
  H183     1.0000 0.43269  0.13161  0.27346  Biso   1.000  H
  C548     1.0000 0.43352  0.10528  0.30979  Biso   1.000  C
  C549     1.0000 0.45996  0.12091  0.32518  Biso   1.000  C
  O367     1.0000 0.46920  0.60747  0.84820  Biso   1.000  O
  O368     1.0000 0.46941  0.64352  0.81284  Biso   1.000  O
  N367     1.0000 0.39648  0.63891  0.72906  Biso   1.000  N
  N368     1.0000 0.37425  0.64567  0.70744  Biso   1.000  N
  C550     1.0000 0.42272  0.61625  0.78355  Biso   1.000  C
  H184     1.0000 0.43269  0.63161  0.77346  Biso   1.000  H
  C551     1.0000 0.43352  0.60528  0.80979  Biso   1.000  C
  C552     1.0000 0.45996  0.62091  0.82518  Biso   1.000  C
  O369     1.0000 0.03080  0.89253  0.84820  Biso   1.000  O
  O370     1.0000 0.03059  0.85648  0.81284  Biso   1.000  O
  N369     1.0000 0.10352  0.86109  0.72906  Biso   1.000  N
  N370     1.0000 0.12575  0.85433  0.70744  Biso   1.000  N
  C553     1.0000 0.07728  0.88375  0.78355  Biso   1.000  C
  H185     1.0000 0.06731  0.86839  0.77346  Biso   1.000  H
  C554     1.0000 0.06648  0.89472  0.80979  Biso   1.000  C
  C555     1.0000 0.04004  0.87909  0.82518  Biso   1.000  C
  O371     1.0000 0.03080  0.39253  0.34820  Biso   1.000  O
  O372     1.0000 0.03059  0.35648  0.31284  Biso   1.000  O
  N371     1.0000 0.10352  0.36109  0.22906  Biso   1.000  N
  N372     1.0000 0.12575  0.35433  0.20744  Biso   1.000  N
  C556     1.0000 0.07728  0.38375  0.28355  Biso   1.000  C
  H186     1.0000 0.06731  0.36839  0.27346  Biso   1.000  H
  C557     1.0000 0.06648  0.39472  0.30979  Biso   1.000  C
  C558     1.0000 0.04004  0.37909  0.32518  Biso   1.000  C
  O373     1.0000 0.53080  0.89253  0.34820  Biso   1.000  O
  O374     1.0000 0.53059  0.85648  0.31284  Biso   1.000  O
  N373     1.0000 0.60352  0.86109  0.22906  Biso   1.000  N
  N374     1.0000 0.62575  0.85433  0.20744  Biso   1.000  N
  C559     1.0000 0.57728  0.88375  0.28355  Biso   1.000  C
  H187     1.0000 0.56731  0.86839  0.27346  Biso   1.000  H
  C560     1.0000 0.56648  0.89472  0.30979  Biso   1.000  C
  C561     1.0000 0.54004  0.87909  0.32518  Biso   1.000  C
  O375     1.0000 0.53080  0.39253  0.84820  Biso   1.000  O
  O376     1.0000 0.53059  0.35648  0.81284  Biso   1.000  O
  N375     1.0000 0.60352  0.36109  0.72906  Biso   1.000  N
  N376     1.0000 0.62575  0.35433  0.70744  Biso   1.000  N
  C562     1.0000 0.57728  0.38375  0.78355  Biso   1.000  C
  H188     1.0000 0.56731  0.36839  0.77346  Biso   1.000  H
  C563     1.0000 0.56648  0.39472  0.80979  Biso   1.000  C
  C564     1.0000 0.54004  0.37909  0.82518  Biso   1.000  C
  O377     1.0000 0.03080  0.10747  0.15180  Biso   1.000  O
  O378     1.0000 0.03059  0.14352  0.18716  Biso   1.000  O
  N377     1.0000 0.10352  0.13891  0.27094  Biso   1.000  N
  N378     1.0000 0.12575  0.14567  0.29256  Biso   1.000  N
  C565     1.0000 0.07728  0.11625  0.21645  Biso   1.000  C
  H189     1.0000 0.06731  0.13161  0.22654  Biso   1.000  H
  C566     1.0000 0.06648  0.10528  0.19021  Biso   1.000  C
  C567     1.0000 0.04004  0.12091  0.17482  Biso   1.000  C
  O379     1.0000 0.03080  0.60747  0.65180  Biso   1.000  O
  O380     1.0000 0.03059  0.64352  0.68716  Biso   1.000  O
  N379     1.0000 0.10352  0.63891  0.77094  Biso   1.000  N
  N380     1.0000 0.12575  0.64567  0.79256  Biso   1.000  N
  C568     1.0000 0.07728  0.61625  0.71645  Biso   1.000  C
  H190     1.0000 0.06731  0.63161  0.72654  Biso   1.000  H
  C569     1.0000 0.06648  0.60528  0.69021  Biso   1.000  C
  C570     1.0000 0.04004  0.62091  0.67482  Biso   1.000  C
  O381     1.0000 0.53080  0.10747  0.65180  Biso   1.000  O
  O382     1.0000 0.53059  0.14352  0.68716  Biso   1.000  O
  N381     1.0000 0.60352  0.13891  0.77094  Biso   1.000  N
  N382     1.0000 0.62575  0.14567  0.79256  Biso   1.000  N
  C571     1.0000 0.57728  0.11625  0.71645  Biso   1.000  C
  H191     1.0000 0.56731  0.13161  0.72654  Biso   1.000  H
  C572     1.0000 0.56648  0.10528  0.69021  Biso   1.000  C
  C573     1.0000 0.54004  0.12091  0.67482  Biso   1.000  C
  O383     1.0000 0.53080  0.60747  0.15180  Biso   1.000  O
  O384     1.0000 0.53059  0.64352  0.18716  Biso   1.000  O
  N383     1.0000 0.60352  0.63891  0.27094  Biso   1.000  N
  N384     1.0000 0.62575  0.64567  0.29256  Biso   1.000  N
  C574     1.0000 0.57728  0.61625  0.21645  Biso   1.000  C
  H192     1.0000 0.56731  0.63161  0.22654  Biso   1.000  H
  C575     1.0000 0.56648  0.60528  0.19021  Biso   1.000  C
  C576     1.0000 0.54004  0.62091  0.17482  Biso   1.000  C
  Cu1      1.0000 0.16867  0.16867  0.00000  Biso   1.000  Cu
  Cu2      1.0000 0.12656  0.12656  0.00000  Biso   1.000  Cu
  Cu3      1.0000 0.16867  0.66867  0.50000  Biso   1.000  Cu
  Cu4      1.0000 0.12656  0.62656  0.50000  Biso   1.000  Cu
  Cu5      1.0000 0.66867  0.16867  0.50000  Biso   1.000  Cu
  Cu6      1.0000 0.62656  0.12656  0.50000  Biso   1.000  Cu
  Cu7      1.0000 0.66867  0.66867  0.00000  Biso   1.000  Cu
  Cu8      1.0000 0.62656  0.62656  0.00000  Biso   1.000  Cu
  Cu9      1.0000 0.83133  0.83133  0.00000  Biso   1.000  Cu
  Cu10     1.0000 0.87344  0.87344  0.00000  Biso   1.000  Cu
  Cu11     1.0000 0.83133  0.33133  0.50000  Biso   1.000  Cu
  Cu12     1.0000 0.87344  0.37344  0.50000  Biso   1.000  Cu
  Cu13     1.0000 0.33133  0.83133  0.50000  Biso   1.000  Cu
  Cu14     1.0000 0.37344  0.87344  0.50000  Biso   1.000  Cu
  Cu15     1.0000 0.33133  0.33133  0.00000  Biso   1.000  Cu
  Cu16     1.0000 0.37344  0.37344  0.00000  Biso   1.000  Cu
  Cu17     1.0000 0.83133  0.16867  0.00000  Biso   1.000  Cu
  Cu18     1.0000 0.87344  0.12656  0.00000  Biso   1.000  Cu
  Cu19     1.0000 0.83133  0.66867  0.50000  Biso   1.000  Cu
  Cu20     1.0000 0.87344  0.62656  0.50000  Biso   1.000  Cu
  Cu21     1.0000 0.33133  0.16867  0.50000  Biso   1.000  Cu
  Cu22     1.0000 0.37344  0.12656  0.50000  Biso   1.000  Cu
  Cu23     1.0000 0.33133  0.66867  0.00000  Biso   1.000  Cu
  Cu24     1.0000 0.37344  0.62656  0.00000  Biso   1.000  Cu
  Cu25     1.0000 0.16867  0.83133  0.00000  Biso   1.000  Cu
  Cu26     1.0000 0.12656  0.87344  0.00000  Biso   1.000  Cu
  Cu27     1.0000 0.16867  0.33133  0.50000  Biso   1.000  Cu
  Cu28     1.0000 0.12656  0.37344  0.50000  Biso   1.000  Cu
  Cu29     1.0000 0.66867  0.83133  0.50000  Biso   1.000  Cu
  Cu30     1.0000 0.62656  0.87344  0.50000  Biso   1.000  Cu
  Cu31     1.0000 0.66867  0.33133  0.00000  Biso   1.000  Cu
  Cu32     1.0000 0.62656  0.37344  0.00000  Biso   1.000  Cu
  Cu33     1.0000 0.00000  0.16867  0.16867  Biso   1.000  Cu
  Cu34     1.0000 0.00000  0.12656  0.12656  Biso   1.000  Cu
  Cu35     1.0000 0.00000  0.66867  0.66867  Biso   1.000  Cu
  Cu36     1.0000 0.00000  0.62656  0.62656  Biso   1.000  Cu
  Cu37     1.0000 0.50000  0.16867  0.66867  Biso   1.000  Cu
  Cu38     1.0000 0.50000  0.12656  0.62656  Biso   1.000  Cu
  Cu39     1.0000 0.50000  0.66867  0.16867  Biso   1.000  Cu
  Cu40     1.0000 0.50000  0.62656  0.12656  Biso   1.000  Cu
  Cu41     1.0000 0.00000  0.83133  0.83133  Biso   1.000  Cu
  Cu42     1.0000 0.00000  0.87344  0.87344  Biso   1.000  Cu
  Cu43     1.0000 0.00000  0.33133  0.33133  Biso   1.000  Cu
  Cu44     1.0000 0.00000  0.37344  0.37344  Biso   1.000  Cu
  Cu45     1.0000 0.50000  0.83133  0.33133  Biso   1.000  Cu
  Cu46     1.0000 0.50000  0.87344  0.37344  Biso   1.000  Cu
  Cu47     1.0000 0.50000  0.33133  0.83133  Biso   1.000  Cu
  Cu48     1.0000 0.50000  0.37344  0.87344  Biso   1.000  Cu
  Cu49     1.0000 0.00000  0.83133  0.16867  Biso   1.000  Cu
  Cu50     1.0000 0.00000  0.87344  0.12656  Biso   1.000  Cu
  Cu51     1.0000 0.00000  0.33133  0.66867  Biso   1.000  Cu
  Cu52     1.0000 0.00000  0.37344  0.62656  Biso   1.000  Cu
  Cu53     1.0000 0.50000  0.83133  0.66867  Biso   1.000  Cu
  Cu54     1.0000 0.50000  0.87344  0.62656  Biso   1.000  Cu
  Cu55     1.0000 0.50000  0.33133  0.16867  Biso   1.000  Cu
  Cu56     1.0000 0.50000  0.37344  0.12656  Biso   1.000  Cu
  Cu57     1.0000 0.00000  0.16867  0.83133  Biso   1.000  Cu
  Cu58     1.0000 0.00000  0.12656  0.87344  Biso   1.000  Cu
  Cu59     1.0000 0.00000  0.66867  0.33133  Biso   1.000  Cu
  Cu60     1.0000 0.00000  0.62656  0.37344  Biso   1.000  Cu
  Cu61     1.0000 0.50000  0.16867  0.33133  Biso   1.000  Cu
  Cu62     1.0000 0.50000  0.12656  0.37344  Biso   1.000  Cu
  Cu63     1.0000 0.50000  0.66867  0.83133  Biso   1.000  Cu
  Cu64     1.0000 0.50000  0.62656  0.87344  Biso   1.000  Cu
  Cu65     1.0000 0.16867  0.00000  0.16867  Biso   1.000  Cu
  Cu66     1.0000 0.12656  0.00000  0.12656  Biso   1.000  Cu
  Cu67     1.0000 0.16867  0.50000  0.66867  Biso   1.000  Cu
  Cu68     1.0000 0.12656  0.50000  0.62656  Biso   1.000  Cu
  Cu69     1.0000 0.66867  0.00000  0.66867  Biso   1.000  Cu
  Cu70     1.0000 0.62656  0.00000  0.62656  Biso   1.000  Cu
  Cu71     1.0000 0.66867  0.50000  0.16867  Biso   1.000  Cu
  Cu72     1.0000 0.62656  0.50000  0.12656  Biso   1.000  Cu
  Cu73     1.0000 0.83133  0.00000  0.83133  Biso   1.000  Cu
  Cu74     1.0000 0.87344  0.00000  0.87344  Biso   1.000  Cu
  Cu75     1.0000 0.83133  0.50000  0.33133  Biso   1.000  Cu
  Cu76     1.0000 0.87344  0.50000  0.37344  Biso   1.000  Cu
  Cu77     1.0000 0.33133  0.00000  0.33133  Biso   1.000  Cu
  Cu78     1.0000 0.37344  0.00000  0.37344  Biso   1.000  Cu
  Cu79     1.0000 0.33133  0.50000  0.83133  Biso   1.000  Cu
  Cu80     1.0000 0.37344  0.50000  0.87344  Biso   1.000  Cu
  Cu81     1.0000 0.16867  0.00000  0.83133  Biso   1.000  Cu
  Cu82     1.0000 0.12656  0.00000  0.87344  Biso   1.000  Cu
  Cu83     1.0000 0.16867  0.50000  0.33133  Biso   1.000  Cu
  Cu84     1.0000 0.12656  0.50000  0.37344  Biso   1.000  Cu
  Cu85     1.0000 0.66867  0.00000  0.33133  Biso   1.000  Cu
  Cu86     1.0000 0.62656  0.00000  0.37344  Biso   1.000  Cu
  Cu87     1.0000 0.66867  0.50000  0.83133  Biso   1.000  Cu
  Cu88     1.0000 0.62656  0.50000  0.87344  Biso   1.000  Cu
  Cu89     1.0000 0.83133  0.00000  0.16867  Biso   1.000  Cu
  Cu90     1.0000 0.87344  0.00000  0.12656  Biso   1.000  Cu
  Cu91     1.0000 0.83133  0.50000  0.66867  Biso   1.000  Cu
  Cu92     1.0000 0.87344  0.50000  0.62656  Biso   1.000  Cu
  Cu93     1.0000 0.33133  0.00000  0.66867  Biso   1.000  Cu
  Cu94     1.0000 0.37344  0.00000  0.62656  Biso   1.000  Cu
  Cu95     1.0000 0.33133  0.50000  0.16867  Biso   1.000  Cu
  Cu96     1.0000 0.37344  0.50000  0.12656  Biso   1.000  Cu
  Cu97     1.0000 0.32504  0.17496  0.12195  Biso   1.000  Cu
  Cu98     1.0000 0.32504  0.67496  0.62195  Biso   1.000  Cu
  Cu99     1.0000 0.67496  0.82504  0.12195  Biso   1.000  Cu
  Cu100    1.0000 0.67496  0.32504  0.62195  Biso   1.000  Cu
  Cu101    1.0000 0.17496  0.32504  0.12195  Biso   1.000  Cu
  Cu102    1.0000 0.67496  0.17496  0.87805  Biso   1.000  Cu
  Cu103    1.0000 0.67496  0.67496  0.37805  Biso   1.000  Cu
  Cu104    1.0000 0.17496  0.17496  0.37805  Biso   1.000  Cu
  Cu105    1.0000 0.32504  0.82504  0.87805  Biso   1.000  Cu
  Cu106    1.0000 0.32504  0.32504  0.37805  Biso   1.000  Cu
  Cu107    1.0000 0.12195  0.32504  0.17496  Biso   1.000  Cu
  Cu108    1.0000 0.62195  0.32504  0.67496  Biso   1.000  Cu
  Cu109    1.0000 0.12195  0.67496  0.82504  Biso   1.000  Cu
  Cu110    1.0000 0.12195  0.17496  0.32504  Biso   1.000  Cu
  Cu111    1.0000 0.62195  0.67496  0.32504  Biso   1.000  Cu
  Cu112    1.0000 0.87805  0.67496  0.17496  Biso   1.000  Cu
  Cu113    1.0000 0.37805  0.67496  0.67496  Biso   1.000  Cu
  Cu114    1.0000 0.37805  0.17496  0.17496  Biso   1.000  Cu
  Cu115    1.0000 0.87805  0.32504  0.82504  Biso   1.000  Cu
  Cu116    1.0000 0.37805  0.32504  0.32504  Biso   1.000  Cu
  Cu117    1.0000 0.17496  0.12195  0.32504  Biso   1.000  Cu
  Cu118    1.0000 0.17496  0.62195  0.82504  Biso   1.000  Cu
  Cu119    1.0000 0.82504  0.12195  0.67496  Biso   1.000  Cu
  Cu120    1.0000 0.82504  0.62195  0.17496  Biso   1.000  Cu
  Cu121    1.0000 0.32504  0.12195  0.17496  Biso   1.000  Cu
  Cu122    1.0000 0.17496  0.87805  0.67496  Biso   1.000  Cu
  Cu123    1.0000 0.17496  0.37805  0.17496  Biso   1.000  Cu
  Cu124    1.0000 0.82504  0.87805  0.32504  Biso   1.000  Cu
  Cu125    1.0000 0.82504  0.37805  0.82504  Biso   1.000  Cu
  Cu126    1.0000 0.32504  0.37805  0.32504  Biso   1.000  Cu
  Cu127    1.0000 0.17496  0.32504  0.87805  Biso   1.000  Cu
  Cu128    1.0000 0.17496  0.82504  0.37805  Biso   1.000  Cu
  Cu129    1.0000 0.82504  0.67496  0.87805  Biso   1.000  Cu
  Cu130    1.0000 0.82504  0.17496  0.37805  Biso   1.000  Cu
  Cu131    1.0000 0.32504  0.17496  0.87805  Biso   1.000  Cu
  Cu132    1.0000 0.17496  0.67496  0.12195  Biso   1.000  Cu
  Cu133    1.0000 0.17496  0.17496  0.62195  Biso   1.000  Cu
  Cu134    1.0000 0.82504  0.32504  0.12195  Biso   1.000  Cu
  Cu135    1.0000 0.82504  0.82504  0.62195  Biso   1.000  Cu
  Cu136    1.0000 0.32504  0.32504  0.62195  Biso   1.000  Cu
  Cu137    1.0000 0.32504  0.12195  0.82504  Biso   1.000  Cu
  Cu138    1.0000 0.32504  0.62195  0.32504  Biso   1.000  Cu
  Cu139    1.0000 0.67496  0.12195  0.17496  Biso   1.000  Cu
  Cu140    1.0000 0.67496  0.62195  0.67496  Biso   1.000  Cu
  Cu141    1.0000 0.17496  0.62195  0.17496  Biso   1.000  Cu
  Cu142    1.0000 0.67496  0.87805  0.82504  Biso   1.000  Cu
  Cu143    1.0000 0.67496  0.37805  0.32504  Biso   1.000  Cu
  Cu144    1.0000 0.17496  0.87805  0.32504  Biso   1.000  Cu
  Cu145    1.0000 0.32504  0.87805  0.17496  Biso   1.000  Cu
  Cu146    1.0000 0.32504  0.37805  0.67496  Biso   1.000  Cu
  Cu147    1.0000 0.12195  0.17496  0.67496  Biso   1.000  Cu
  Cu148    1.0000 0.62195  0.17496  0.17496  Biso   1.000  Cu
  Cu149    1.0000 0.12195  0.82504  0.32504  Biso   1.000  Cu
  Cu150    1.0000 0.62195  0.82504  0.82504  Biso   1.000  Cu
  Cu151    1.0000 0.62195  0.32504  0.32504  Biso   1.000  Cu
  Cu152    1.0000 0.87805  0.17496  0.32504  Biso   1.000  Cu
  Cu153    1.0000 0.37805  0.17496  0.82504  Biso   1.000  Cu
  Cu154    1.0000 0.87805  0.82504  0.67496  Biso   1.000  Cu
  Cu155    1.0000 0.87805  0.32504  0.17496  Biso   1.000  Cu
  Cu156    1.0000 0.37805  0.82504  0.17496  Biso   1.000  Cu
  Cu157    1.0000 0.67496  0.82504  0.87805  Biso   1.000  Cu
  Cu158    1.0000 0.67496  0.32504  0.37805  Biso   1.000  Cu
  Cu159    1.0000 0.32504  0.67496  0.37805  Biso   1.000  Cu
  Cu160    1.0000 0.32504  0.82504  0.12195  Biso   1.000  Cu
  Cu161    1.0000 0.67496  0.17496  0.12195  Biso   1.000  Cu
  Cu162    1.0000 0.67496  0.67496  0.62195  Biso   1.000  Cu
  Cu163    1.0000 0.87805  0.67496  0.82504  Biso   1.000  Cu
  Cu164    1.0000 0.37805  0.67496  0.32504  Biso   1.000  Cu
  Cu165    1.0000 0.37805  0.32504  0.67496  Biso   1.000  Cu
  Cu166    1.0000 0.12195  0.32504  0.82504  Biso   1.000  Cu
  Cu167    1.0000 0.12195  0.67496  0.17496  Biso   1.000  Cu
  Cu168    1.0000 0.62195  0.67496  0.67496  Biso   1.000  Cu
  Cu169    1.0000 0.82504  0.87805  0.67496  Biso   1.000  Cu
  Cu170    1.0000 0.82504  0.37805  0.17496  Biso   1.000  Cu
  Cu171    1.0000 0.17496  0.37805  0.82504  Biso   1.000  Cu
  Cu172    1.0000 0.82504  0.12195  0.32504  Biso   1.000  Cu
  Cu173    1.0000 0.82504  0.62195  0.82504  Biso   1.000  Cu
  Cu174    1.0000 0.17496  0.12195  0.67496  Biso   1.000  Cu
  Cu175    1.0000 0.82504  0.67496  0.12195  Biso   1.000  Cu
  Cu176    1.0000 0.82504  0.17496  0.62195  Biso   1.000  Cu
  Cu177    1.0000 0.17496  0.82504  0.62195  Biso   1.000  Cu
  Cu178    1.0000 0.82504  0.32504  0.87805  Biso   1.000  Cu
  Cu179    1.0000 0.82504  0.82504  0.37805  Biso   1.000  Cu
  Cu180    1.0000 0.17496  0.67496  0.87805  Biso   1.000  Cu
  Cu181    1.0000 0.67496  0.87805  0.17496  Biso   1.000  Cu
  Cu182    1.0000 0.67496  0.37805  0.67496  Biso   1.000  Cu
  Cu183    1.0000 0.32504  0.87805  0.82504  Biso   1.000  Cu
  Cu184    1.0000 0.32504  0.62195  0.67496  Biso   1.000  Cu
  Cu185    1.0000 0.67496  0.12195  0.82504  Biso   1.000  Cu
  Cu186    1.0000 0.67496  0.62195  0.32504  Biso   1.000  Cu
  Cu187    1.0000 0.87805  0.82504  0.32504  Biso   1.000  Cu
  Cu188    1.0000 0.37805  0.82504  0.82504  Biso   1.000  Cu
  Cu189    1.0000 0.87805  0.17496  0.67496  Biso   1.000  Cu
  Cu190    1.0000 0.12195  0.82504  0.67496  Biso   1.000  Cu
  Cu191    1.0000 0.62195  0.82504  0.17496  Biso   1.000  Cu
  Cu192    1.0000 0.62195  0.17496  0.82504  Biso   1.000  Cu
  O385     1.0000 0.33930  0.16070  0.16070  Biso   1.000  O
  O386     1.0000 0.33930  0.66070  0.66070  Biso   1.000  O
  O387     1.0000 0.66070  0.83930  0.16070  Biso   1.000  O
  O388     1.0000 0.66070  0.33930  0.66070  Biso   1.000  O
  O389     1.0000 0.16070  0.33930  0.16070  Biso   1.000  O
  O390     1.0000 0.66070  0.16070  0.83930  Biso   1.000  O
  O391     1.0000 0.66070  0.66070  0.33930  Biso   1.000  O
  O392     1.0000 0.16070  0.16070  0.33930  Biso   1.000  O
  O393     1.0000 0.33930  0.83930  0.83930  Biso   1.000  O
  O394     1.0000 0.33930  0.33930  0.33930  Biso   1.000  O
  O395     1.0000 0.16070  0.66070  0.83930  Biso   1.000  O
  O396     1.0000 0.83930  0.66070  0.16070  Biso   1.000  O
  O397     1.0000 0.83930  0.33930  0.83930  Biso   1.000  O
  O398     1.0000 0.83930  0.16070  0.66070  Biso   1.000  O
  O399     1.0000 0.16070  0.83930  0.66070  Biso   1.000  O
  O400     1.0000 0.83930  0.83930  0.33930  Biso   1.000  O
  O401     1.0000 0.16070  0.33930  0.83930  Biso   1.000  O
  O402     1.0000 0.83930  0.66070  0.83930  Biso   1.000  O
  O403     1.0000 0.83930  0.16070  0.33930  Biso   1.000  O
  O404     1.0000 0.33930  0.16070  0.83930  Biso   1.000  O
  O405     1.0000 0.16070  0.66070  0.16070  Biso   1.000  O
  O406     1.0000 0.83930  0.33930  0.16070  Biso   1.000  O
  O407     1.0000 0.33930  0.33930  0.66070  Biso   1.000  O
  O408     1.0000 0.33930  0.66070  0.33930  Biso   1.000  O
  O409     1.0000 0.66070  0.16070  0.16070  Biso   1.000  O
  O410     1.0000 0.66070  0.66070  0.66070  Biso   1.000  O
  O411     1.0000 0.66070  0.83930  0.83930  Biso   1.000  O
  O412     1.0000 0.66070  0.33930  0.33930  Biso   1.000  O
  O413     1.0000 0.16070  0.83930  0.33930  Biso   1.000  O
  O414     1.0000 0.33930  0.83930  0.16070  Biso   1.000  O
  O415     1.0000 0.16070  0.16070  0.66070  Biso   1.000  O
  O416     1.0000 0.83930  0.83930  0.66070  Biso   1.000  O
  C577     1.0000 0.25600  0.11874  0.11874  Biso   1.000  C
  C578     1.0000 0.22810  0.10390  0.10390  Biso   1.000  C
  C579     1.0000 0.17745  0.08043  0.08043  Biso   1.000  C
  H193     1.0000 0.15955  0.07278  0.07278  Biso   1.000  H
  C580     1.0000 0.25600  0.61874  0.61874  Biso   1.000  C
  C581     1.0000 0.22810  0.60390  0.60390  Biso   1.000  C
  C582     1.0000 0.17745  0.58043  0.58043  Biso   1.000  C
  H194     1.0000 0.15955  0.57278  0.57278  Biso   1.000  H
  C583     1.0000 0.75600  0.11874  0.61874  Biso   1.000  C
  C584     1.0000 0.72810  0.10390  0.60390  Biso   1.000  C
  C585     1.0000 0.67745  0.08043  0.58043  Biso   1.000  C
  H195     1.0000 0.65955  0.07278  0.57278  Biso   1.000  H
  C586     1.0000 0.75600  0.61874  0.11874  Biso   1.000  C
  C587     1.0000 0.72810  0.60390  0.10390  Biso   1.000  C
  C588     1.0000 0.67745  0.58043  0.08043  Biso   1.000  C
  H196     1.0000 0.65955  0.57278  0.07278  Biso   1.000  H
  C589     1.0000 0.74400  0.88126  0.11874  Biso   1.000  C
  C590     1.0000 0.77190  0.89610  0.10390  Biso   1.000  C
  C591     1.0000 0.82255  0.91957  0.08043  Biso   1.000  C
  H197     1.0000 0.84045  0.92722  0.07278  Biso   1.000  H
  C592     1.0000 0.74400  0.38126  0.61874  Biso   1.000  C
  C593     1.0000 0.77190  0.39610  0.60390  Biso   1.000  C
  C594     1.0000 0.82255  0.41957  0.58043  Biso   1.000  C
  H198     1.0000 0.84045  0.42722  0.57278  Biso   1.000  H
  C595     1.0000 0.24400  0.88126  0.61874  Biso   1.000  C
  C596     1.0000 0.27190  0.89610  0.60390  Biso   1.000  C
  C597     1.0000 0.32255  0.91957  0.58043  Biso   1.000  C
  H199     1.0000 0.34045  0.92722  0.57278  Biso   1.000  H
  C598     1.0000 0.24400  0.38126  0.11874  Biso   1.000  C
  C599     1.0000 0.27190  0.39610  0.10390  Biso   1.000  C
  C600     1.0000 0.32255  0.41957  0.08043  Biso   1.000  C
  H200     1.0000 0.34045  0.42722  0.07278  Biso   1.000  H
  C601     1.0000 0.74400  0.11874  0.88126  Biso   1.000  C
  C602     1.0000 0.77190  0.10390  0.89610  Biso   1.000  C
  C603     1.0000 0.82255  0.08043  0.91957  Biso   1.000  C
  H201     1.0000 0.84045  0.07278  0.92722  Biso   1.000  H
  C604     1.0000 0.74400  0.61874  0.38126  Biso   1.000  C
  C605     1.0000 0.77190  0.60390  0.39610  Biso   1.000  C
  C606     1.0000 0.82255  0.58043  0.41957  Biso   1.000  C
  H202     1.0000 0.84045  0.57278  0.42722  Biso   1.000  H
  C607     1.0000 0.24400  0.11874  0.38126  Biso   1.000  C
  C608     1.0000 0.27190  0.10390  0.39610  Biso   1.000  C
  C609     1.0000 0.32255  0.08043  0.41957  Biso   1.000  C
  H203     1.0000 0.34045  0.07278  0.42722  Biso   1.000  H
  C610     1.0000 0.24400  0.61874  0.88126  Biso   1.000  C
  C611     1.0000 0.27190  0.60390  0.89610  Biso   1.000  C
  C612     1.0000 0.32255  0.58043  0.91957  Biso   1.000  C
  H204     1.0000 0.34045  0.57278  0.92722  Biso   1.000  H
  C613     1.0000 0.25600  0.88126  0.88126  Biso   1.000  C
  C614     1.0000 0.22810  0.89610  0.89610  Biso   1.000  C
  C615     1.0000 0.17745  0.91957  0.91957  Biso   1.000  C
  H205     1.0000 0.15955  0.92722  0.92722  Biso   1.000  H
  C616     1.0000 0.25600  0.38126  0.38126  Biso   1.000  C
  C617     1.0000 0.22810  0.39610  0.39610  Biso   1.000  C
  C618     1.0000 0.17745  0.41957  0.41957  Biso   1.000  C
  H206     1.0000 0.15955  0.42722  0.42722  Biso   1.000  H
  C619     1.0000 0.75600  0.88126  0.38126  Biso   1.000  C
  C620     1.0000 0.72810  0.89610  0.39610  Biso   1.000  C
  C621     1.0000 0.67745  0.91957  0.41957  Biso   1.000  C
  H207     1.0000 0.65955  0.92722  0.42722  Biso   1.000  H
  C622     1.0000 0.75600  0.38126  0.88126  Biso   1.000  C
  C623     1.0000 0.72810  0.39610  0.89610  Biso   1.000  C
  C624     1.0000 0.67745  0.41957  0.91957  Biso   1.000  C
  H208     1.0000 0.65955  0.42722  0.92722  Biso   1.000  H
  C625     1.0000 0.11874  0.25600  0.11874  Biso   1.000  C
  C626     1.0000 0.10390  0.22810  0.10390  Biso   1.000  C
  C627     1.0000 0.08043  0.17745  0.08043  Biso   1.000  C
  H209     1.0000 0.07278  0.15955  0.07278  Biso   1.000  H
  C628     1.0000 0.11874  0.75600  0.61874  Biso   1.000  C
  C629     1.0000 0.10390  0.72810  0.60390  Biso   1.000  C
  C630     1.0000 0.08043  0.67745  0.58043  Biso   1.000  C
  H210     1.0000 0.07278  0.65955  0.57278  Biso   1.000  H
  C631     1.0000 0.61874  0.25600  0.61874  Biso   1.000  C
  C632     1.0000 0.60390  0.22810  0.60390  Biso   1.000  C
  C633     1.0000 0.58043  0.17745  0.58043  Biso   1.000  C
  H211     1.0000 0.57278  0.15955  0.57278  Biso   1.000  H
  C634     1.0000 0.61874  0.75600  0.11874  Biso   1.000  C
  C635     1.0000 0.60390  0.72810  0.10390  Biso   1.000  C
  C636     1.0000 0.58043  0.67745  0.08043  Biso   1.000  C
  H212     1.0000 0.57278  0.65955  0.07278  Biso   1.000  H
  C637     1.0000 0.11874  0.74400  0.88126  Biso   1.000  C
  C638     1.0000 0.10390  0.77190  0.89610  Biso   1.000  C
  C639     1.0000 0.08043  0.82255  0.91957  Biso   1.000  C
  H213     1.0000 0.07278  0.84045  0.92722  Biso   1.000  H
  C640     1.0000 0.11874  0.24400  0.38126  Biso   1.000  C
  C641     1.0000 0.10390  0.27190  0.39610  Biso   1.000  C
  C642     1.0000 0.08043  0.32255  0.41957  Biso   1.000  C
  H214     1.0000 0.07278  0.34045  0.42722  Biso   1.000  H
  C643     1.0000 0.61874  0.74400  0.38126  Biso   1.000  C
  C644     1.0000 0.60390  0.77190  0.39610  Biso   1.000  C
  C645     1.0000 0.58043  0.82255  0.41957  Biso   1.000  C
  H215     1.0000 0.57278  0.84045  0.42722  Biso   1.000  H
  C646     1.0000 0.61874  0.24400  0.88126  Biso   1.000  C
  C647     1.0000 0.60390  0.27190  0.89610  Biso   1.000  C
  C648     1.0000 0.58043  0.32255  0.91957  Biso   1.000  C
  H216     1.0000 0.57278  0.34045  0.92722  Biso   1.000  H
  C649     1.0000 0.88126  0.74400  0.11874  Biso   1.000  C
  C650     1.0000 0.89610  0.77190  0.10390  Biso   1.000  C
  C651     1.0000 0.91957  0.82255  0.08043  Biso   1.000  C
  H217     1.0000 0.92722  0.84045  0.07278  Biso   1.000  H
  C652     1.0000 0.88126  0.24400  0.61874  Biso   1.000  C
  C653     1.0000 0.89610  0.27190  0.60390  Biso   1.000  C
  C654     1.0000 0.91957  0.32255  0.58043  Biso   1.000  C
  H218     1.0000 0.92722  0.34045  0.57278  Biso   1.000  H
  C655     1.0000 0.38126  0.74400  0.61874  Biso   1.000  C
  C656     1.0000 0.39610  0.77190  0.60390  Biso   1.000  C
  C657     1.0000 0.41957  0.82255  0.58043  Biso   1.000  C
  H219     1.0000 0.42722  0.84045  0.57278  Biso   1.000  H
  C658     1.0000 0.38126  0.24400  0.11874  Biso   1.000  C
  C659     1.0000 0.39610  0.27190  0.10390  Biso   1.000  C
  C660     1.0000 0.41957  0.32255  0.08043  Biso   1.000  C
  H220     1.0000 0.42722  0.34045  0.07278  Biso   1.000  H
  C661     1.0000 0.88126  0.25600  0.88126  Biso   1.000  C
  C662     1.0000 0.89610  0.22810  0.89610  Biso   1.000  C
  C663     1.0000 0.91957  0.17745  0.91957  Biso   1.000  C
  H221     1.0000 0.92722  0.15955  0.92722  Biso   1.000  H
  C664     1.0000 0.88126  0.75600  0.38126  Biso   1.000  C
  C665     1.0000 0.89610  0.72810  0.39610  Biso   1.000  C
  C666     1.0000 0.91957  0.67745  0.41957  Biso   1.000  C
  H222     1.0000 0.92722  0.65955  0.42722  Biso   1.000  H
  C667     1.0000 0.38126  0.25600  0.38126  Biso   1.000  C
  C668     1.0000 0.39610  0.22810  0.39610  Biso   1.000  C
  C669     1.0000 0.41957  0.17745  0.41957  Biso   1.000  C
  H223     1.0000 0.42722  0.15955  0.42722  Biso   1.000  H
  C670     1.0000 0.38126  0.75600  0.88126  Biso   1.000  C
  C671     1.0000 0.39610  0.72810  0.89610  Biso   1.000  C
  C672     1.0000 0.41957  0.67745  0.91957  Biso   1.000  C
  H224     1.0000 0.42722  0.65955  0.92722  Biso   1.000  H
  C673     1.0000 0.11874  0.11874  0.25600  Biso   1.000  C
  C674     1.0000 0.10390  0.10390  0.22810  Biso   1.000  C
  C675     1.0000 0.08043  0.08043  0.17745  Biso   1.000  C
  H225     1.0000 0.07278  0.07278  0.15955  Biso   1.000  H
  C676     1.0000 0.11874  0.61874  0.75600  Biso   1.000  C
  C677     1.0000 0.10390  0.60390  0.72810  Biso   1.000  C
  C678     1.0000 0.08043  0.58043  0.67745  Biso   1.000  C
  H226     1.0000 0.07278  0.57278  0.65955  Biso   1.000  H
  C679     1.0000 0.61874  0.11874  0.75600  Biso   1.000  C
  C680     1.0000 0.60390  0.10390  0.72810  Biso   1.000  C
  C681     1.0000 0.58043  0.08043  0.67745  Biso   1.000  C
  H227     1.0000 0.57278  0.07278  0.65955  Biso   1.000  H
  C682     1.0000 0.61874  0.61874  0.25600  Biso   1.000  C
  C683     1.0000 0.60390  0.60390  0.22810  Biso   1.000  C
  C684     1.0000 0.58043  0.58043  0.17745  Biso   1.000  C
  H228     1.0000 0.57278  0.57278  0.15955  Biso   1.000  H
  C685     1.0000 0.88126  0.11874  0.74400  Biso   1.000  C
  C686     1.0000 0.89610  0.10390  0.77190  Biso   1.000  C
  C687     1.0000 0.91957  0.08043  0.82255  Biso   1.000  C
  H229     1.0000 0.92722  0.07278  0.84045  Biso   1.000  H
  C688     1.0000 0.88126  0.61874  0.24400  Biso   1.000  C
  C689     1.0000 0.89610  0.60390  0.27190  Biso   1.000  C
  C690     1.0000 0.91957  0.58043  0.32255  Biso   1.000  C
  H230     1.0000 0.92722  0.57278  0.34045  Biso   1.000  H
  C691     1.0000 0.38126  0.11874  0.24400  Biso   1.000  C
  C692     1.0000 0.39610  0.10390  0.27190  Biso   1.000  C
  C693     1.0000 0.41957  0.08043  0.32255  Biso   1.000  C
  H231     1.0000 0.42722  0.07278  0.34045  Biso   1.000  H
  C694     1.0000 0.38126  0.61874  0.74400  Biso   1.000  C
  C695     1.0000 0.39610  0.60390  0.77190  Biso   1.000  C
  C696     1.0000 0.41957  0.58043  0.82255  Biso   1.000  C
  H232     1.0000 0.42722  0.57278  0.84045  Biso   1.000  H
  C697     1.0000 0.11874  0.88126  0.74400  Biso   1.000  C
  C698     1.0000 0.10390  0.89610  0.77190  Biso   1.000  C
  C699     1.0000 0.08043  0.91957  0.82255  Biso   1.000  C
  H233     1.0000 0.07278  0.92722  0.84045  Biso   1.000  H
  C700     1.0000 0.11874  0.38126  0.24400  Biso   1.000  C
  C701     1.0000 0.10390  0.39610  0.27190  Biso   1.000  C
  C702     1.0000 0.08043  0.41957  0.32255  Biso   1.000  C
  H234     1.0000 0.07278  0.42722  0.34045  Biso   1.000  H
  C703     1.0000 0.61874  0.88126  0.24400  Biso   1.000  C
  C704     1.0000 0.60390  0.89610  0.27190  Biso   1.000  C
  C705     1.0000 0.58043  0.91957  0.32255  Biso   1.000  C
  H235     1.0000 0.57278  0.92722  0.34045  Biso   1.000  H
  C706     1.0000 0.61874  0.38126  0.74400  Biso   1.000  C
  C707     1.0000 0.60390  0.39610  0.77190  Biso   1.000  C
  C708     1.0000 0.58043  0.41957  0.82255  Biso   1.000  C
  H236     1.0000 0.57278  0.42722  0.84045  Biso   1.000  H
  C709     1.0000 0.88126  0.88126  0.25600  Biso   1.000  C
  C710     1.0000 0.89610  0.89610  0.22810  Biso   1.000  C
  C711     1.0000 0.91957  0.91957  0.17745  Biso   1.000  C
  H237     1.0000 0.92722  0.92722  0.15955  Biso   1.000  H
  C712     1.0000 0.88126  0.38126  0.75600  Biso   1.000  C
  C713     1.0000 0.89610  0.39610  0.72810  Biso   1.000  C
  C714     1.0000 0.91957  0.41957  0.67745  Biso   1.000  C
  H238     1.0000 0.92722  0.42722  0.65955  Biso   1.000  H
  C715     1.0000 0.38126  0.88126  0.75600  Biso   1.000  C
  C716     1.0000 0.39610  0.89610  0.72810  Biso   1.000  C
  C717     1.0000 0.41957  0.91957  0.67745  Biso   1.000  C
  H239     1.0000 0.42722  0.92722  0.65955  Biso   1.000  H
  C718     1.0000 0.38126  0.38126  0.25600  Biso   1.000  C
  C719     1.0000 0.39610  0.39610  0.22810  Biso   1.000  C
  C720     1.0000 0.41957  0.41957  0.17745  Biso   1.000  C
  H240     1.0000 0.42722  0.42722  0.15955  Biso   1.000  H
  C721     1.0000 0.11874  0.25600  0.88126  Biso   1.000  C
  C722     1.0000 0.10390  0.22810  0.89610  Biso   1.000  C
  C723     1.0000 0.08043  0.17745  0.91957  Biso   1.000  C
  H241     1.0000 0.07278  0.15955  0.92722  Biso   1.000  H
  C724     1.0000 0.11874  0.75600  0.38126  Biso   1.000  C
  C725     1.0000 0.10390  0.72810  0.39610  Biso   1.000  C
  C726     1.0000 0.08043  0.67745  0.41957  Biso   1.000  C
  H242     1.0000 0.07278  0.65955  0.42722  Biso   1.000  H
  C727     1.0000 0.61874  0.25600  0.38126  Biso   1.000  C
  C728     1.0000 0.60390  0.22810  0.39610  Biso   1.000  C
  C729     1.0000 0.58043  0.17745  0.41957  Biso   1.000  C
  H243     1.0000 0.57278  0.15955  0.42722  Biso   1.000  H
  C730     1.0000 0.61874  0.75600  0.88126  Biso   1.000  C
  C731     1.0000 0.60390  0.72810  0.89610  Biso   1.000  C
  C732     1.0000 0.58043  0.67745  0.91957  Biso   1.000  C
  H244     1.0000 0.57278  0.65955  0.92722  Biso   1.000  H
  C733     1.0000 0.88126  0.74400  0.88126  Biso   1.000  C
  C734     1.0000 0.89610  0.77190  0.89610  Biso   1.000  C
  C735     1.0000 0.91957  0.82255  0.91957  Biso   1.000  C
  H245     1.0000 0.92722  0.84045  0.92722  Biso   1.000  H
  C736     1.0000 0.88126  0.24400  0.38126  Biso   1.000  C
  C737     1.0000 0.89610  0.27190  0.39610  Biso   1.000  C
  C738     1.0000 0.91957  0.32255  0.41957  Biso   1.000  C
  H246     1.0000 0.92722  0.34045  0.42722  Biso   1.000  H
  C739     1.0000 0.38126  0.74400  0.38126  Biso   1.000  C
  C740     1.0000 0.39610  0.77190  0.39610  Biso   1.000  C
  C741     1.0000 0.41957  0.82255  0.41957  Biso   1.000  C
  H247     1.0000 0.42722  0.84045  0.42722  Biso   1.000  H
  C742     1.0000 0.38126  0.24400  0.88126  Biso   1.000  C
  C743     1.0000 0.39610  0.27190  0.89610  Biso   1.000  C
  C744     1.0000 0.41957  0.32255  0.91957  Biso   1.000  C
  H248     1.0000 0.42722  0.34045  0.92722  Biso   1.000  H
  C745     1.0000 0.11874  0.74400  0.11874  Biso   1.000  C
  C746     1.0000 0.10390  0.77190  0.10390  Biso   1.000  C
  C747     1.0000 0.08043  0.82255  0.08043  Biso   1.000  C
  H249     1.0000 0.07278  0.84045  0.07278  Biso   1.000  H
  C748     1.0000 0.11874  0.24400  0.61874  Biso   1.000  C
  C749     1.0000 0.10390  0.27190  0.60390  Biso   1.000  C
  C750     1.0000 0.08043  0.32255  0.58043  Biso   1.000  C
  H250     1.0000 0.07278  0.34045  0.57278  Biso   1.000  H
  C751     1.0000 0.61874  0.74400  0.61874  Biso   1.000  C
  C752     1.0000 0.60390  0.77190  0.60390  Biso   1.000  C
  C753     1.0000 0.58043  0.82255  0.58043  Biso   1.000  C
  H251     1.0000 0.57278  0.84045  0.57278  Biso   1.000  H
  C754     1.0000 0.61874  0.24400  0.11874  Biso   1.000  C
  C755     1.0000 0.60390  0.27190  0.10390  Biso   1.000  C
  C756     1.0000 0.58043  0.32255  0.08043  Biso   1.000  C
  H252     1.0000 0.57278  0.34045  0.07278  Biso   1.000  H
  C757     1.0000 0.88126  0.25600  0.11874  Biso   1.000  C
  C758     1.0000 0.89610  0.22810  0.10390  Biso   1.000  C
  C759     1.0000 0.91957  0.17745  0.08043  Biso   1.000  C
  H253     1.0000 0.92722  0.15955  0.07278  Biso   1.000  H
  C760     1.0000 0.88126  0.75600  0.61874  Biso   1.000  C
  C761     1.0000 0.89610  0.72810  0.60390  Biso   1.000  C
  C762     1.0000 0.91957  0.67745  0.58043  Biso   1.000  C
  H254     1.0000 0.92722  0.65955  0.57278  Biso   1.000  H
  C763     1.0000 0.38126  0.25600  0.61874  Biso   1.000  C
  C764     1.0000 0.39610  0.22810  0.60390  Biso   1.000  C
  C765     1.0000 0.41957  0.17745  0.58043  Biso   1.000  C
  H255     1.0000 0.42722  0.15955  0.57278  Biso   1.000  H
  C766     1.0000 0.38126  0.75600  0.11874  Biso   1.000  C
  C767     1.0000 0.39610  0.72810  0.10390  Biso   1.000  C
  C768     1.0000 0.41957  0.67745  0.08043  Biso   1.000  C
  H256     1.0000 0.42722  0.65955  0.07278  Biso   1.000  H
  C769     1.0000 0.25600  0.11874  0.88126  Biso   1.000  C
  C770     1.0000 0.22810  0.10390  0.89610  Biso   1.000  C
  C771     1.0000 0.17745  0.08043  0.91957  Biso   1.000  C
  H257     1.0000 0.15955  0.07278  0.92722  Biso   1.000  H
  C772     1.0000 0.25600  0.61874  0.38126  Biso   1.000  C
  C773     1.0000 0.22810  0.60390  0.39610  Biso   1.000  C
  C774     1.0000 0.17745  0.58043  0.41957  Biso   1.000  C
  H258     1.0000 0.15955  0.57278  0.42722  Biso   1.000  H
  C775     1.0000 0.75600  0.11874  0.38126  Biso   1.000  C
  C776     1.0000 0.72810  0.10390  0.39610  Biso   1.000  C
  C777     1.0000 0.67745  0.08043  0.41957  Biso   1.000  C
  H259     1.0000 0.65955  0.07278  0.42722  Biso   1.000  H
  C778     1.0000 0.75600  0.61874  0.88126  Biso   1.000  C
  C779     1.0000 0.72810  0.60390  0.89610  Biso   1.000  C
  C780     1.0000 0.67745  0.58043  0.91957  Biso   1.000  C
  H260     1.0000 0.65955  0.57278  0.92722  Biso   1.000  H
  C781     1.0000 0.74400  0.11874  0.11874  Biso   1.000  C
  C782     1.0000 0.77190  0.10390  0.10390  Biso   1.000  C
  C783     1.0000 0.82255  0.08043  0.08043  Biso   1.000  C
  H261     1.0000 0.84045  0.07278  0.07278  Biso   1.000  H
  C784     1.0000 0.74400  0.61874  0.61874  Biso   1.000  C
  C785     1.0000 0.77190  0.60390  0.60390  Biso   1.000  C
  C786     1.0000 0.82255  0.58043  0.58043  Biso   1.000  C
  H262     1.0000 0.84045  0.57278  0.57278  Biso   1.000  H
  C787     1.0000 0.24400  0.11874  0.61874  Biso   1.000  C
  C788     1.0000 0.27190  0.10390  0.60390  Biso   1.000  C
  C789     1.0000 0.32255  0.08043  0.58043  Biso   1.000  C
  H263     1.0000 0.34045  0.07278  0.57278  Biso   1.000  H
  C790     1.0000 0.24400  0.61874  0.11874  Biso   1.000  C
  C791     1.0000 0.27190  0.60390  0.10390  Biso   1.000  C
  C792     1.0000 0.32255  0.58043  0.08043  Biso   1.000  C
  H264     1.0000 0.34045  0.57278  0.07278  Biso   1.000  H
  C793     1.0000 0.74400  0.88126  0.88126  Biso   1.000  C
  C794     1.0000 0.77190  0.89610  0.89610  Biso   1.000  C
  C795     1.0000 0.82255  0.91957  0.91957  Biso   1.000  C
  H265     1.0000 0.84045  0.92722  0.92722  Biso   1.000  H
  C796     1.0000 0.74400  0.38126  0.38126  Biso   1.000  C
  C797     1.0000 0.77190  0.39610  0.39610  Biso   1.000  C
  C798     1.0000 0.82255  0.41957  0.41957  Biso   1.000  C
  H266     1.0000 0.84045  0.42722  0.42722  Biso   1.000  H
  C799     1.0000 0.24400  0.88126  0.38126  Biso   1.000  C
  C800     1.0000 0.27190  0.89610  0.39610  Biso   1.000  C
  C801     1.0000 0.32255  0.91957  0.41957  Biso   1.000  C
  H267     1.0000 0.34045  0.92722  0.42722  Biso   1.000  H
  C802     1.0000 0.24400  0.38126  0.88126  Biso   1.000  C
  C803     1.0000 0.27190  0.39610  0.89610  Biso   1.000  C
  C804     1.0000 0.32255  0.41957  0.91957  Biso   1.000  C
  H268     1.0000 0.34045  0.42722  0.92722  Biso   1.000  H
  C805     1.0000 0.25600  0.88126  0.11874  Biso   1.000  C
  C806     1.0000 0.22810  0.89610  0.10390  Biso   1.000  C
  C807     1.0000 0.17745  0.91957  0.08043  Biso   1.000  C
  H269     1.0000 0.15955  0.92722  0.07278  Biso   1.000  H
  C808     1.0000 0.25600  0.38126  0.61874  Biso   1.000  C
  C809     1.0000 0.22810  0.39610  0.60390  Biso   1.000  C
  C810     1.0000 0.17745  0.41957  0.58043  Biso   1.000  C
  H270     1.0000 0.15955  0.42722  0.57278  Biso   1.000  H
  C811     1.0000 0.75600  0.88126  0.61874  Biso   1.000  C
  C812     1.0000 0.72810  0.89610  0.60390  Biso   1.000  C
  C813     1.0000 0.67745  0.91957  0.58043  Biso   1.000  C
  H271     1.0000 0.65955  0.92722  0.57278  Biso   1.000  H
  C814     1.0000 0.75600  0.38126  0.11874  Biso   1.000  C
  C815     1.0000 0.72810  0.39610  0.10390  Biso   1.000  C
  C816     1.0000 0.67745  0.41957  0.08043  Biso   1.000  C
  H272     1.0000 0.65955  0.42722  0.07278  Biso   1.000  H
  C817     1.0000 0.11874  0.11874  0.74400  Biso   1.000  C
  C818     1.0000 0.10390  0.10390  0.77190  Biso   1.000  C
  C819     1.0000 0.08043  0.08043  0.82255  Biso   1.000  C
  H273     1.0000 0.07278  0.07278  0.84045  Biso   1.000  H
  C820     1.0000 0.11874  0.61874  0.24400  Biso   1.000  C
  C821     1.0000 0.10390  0.60390  0.27190  Biso   1.000  C
  C822     1.0000 0.08043  0.58043  0.32255  Biso   1.000  C
  H274     1.0000 0.07278  0.57278  0.34045  Biso   1.000  H
  C823     1.0000 0.61874  0.11874  0.24400  Biso   1.000  C
  C824     1.0000 0.60390  0.10390  0.27190  Biso   1.000  C
  C825     1.0000 0.58043  0.08043  0.32255  Biso   1.000  C
  H275     1.0000 0.57278  0.07278  0.34045  Biso   1.000  H
  C826     1.0000 0.61874  0.61874  0.74400  Biso   1.000  C
  C827     1.0000 0.60390  0.60390  0.77190  Biso   1.000  C
  C828     1.0000 0.58043  0.58043  0.82255  Biso   1.000  C
  H276     1.0000 0.57278  0.57278  0.84045  Biso   1.000  H
  C829     1.0000 0.11874  0.88126  0.25600  Biso   1.000  C
  C830     1.0000 0.10390  0.89610  0.22810  Biso   1.000  C
  C831     1.0000 0.08043  0.91957  0.17745  Biso   1.000  C
  H277     1.0000 0.07278  0.92722  0.15955  Biso   1.000  H
  C832     1.0000 0.11874  0.38126  0.75600  Biso   1.000  C
  C833     1.0000 0.10390  0.39610  0.72810  Biso   1.000  C
  C834     1.0000 0.08043  0.41957  0.67745  Biso   1.000  C
  H278     1.0000 0.07278  0.42722  0.65955  Biso   1.000  H
  C835     1.0000 0.61874  0.88126  0.75600  Biso   1.000  C
  C836     1.0000 0.60390  0.89610  0.72810  Biso   1.000  C
  C837     1.0000 0.58043  0.91957  0.67745  Biso   1.000  C
  H279     1.0000 0.57278  0.92722  0.65955  Biso   1.000  H
  C838     1.0000 0.61874  0.38126  0.25600  Biso   1.000  C
  C839     1.0000 0.60390  0.39610  0.22810  Biso   1.000  C
  C840     1.0000 0.58043  0.41957  0.17745  Biso   1.000  C
  H280     1.0000 0.57278  0.42722  0.15955  Biso   1.000  H
  C841     1.0000 0.88126  0.11874  0.25600  Biso   1.000  C
  C842     1.0000 0.89610  0.10390  0.22810  Biso   1.000  C
  C843     1.0000 0.91957  0.08043  0.17745  Biso   1.000  C
  H281     1.0000 0.92722  0.07278  0.15955  Biso   1.000  H
  C844     1.0000 0.88126  0.61874  0.75600  Biso   1.000  C
  C845     1.0000 0.89610  0.60390  0.72810  Biso   1.000  C
  C846     1.0000 0.91957  0.58043  0.67745  Biso   1.000  C
  H282     1.0000 0.92722  0.57278  0.65955  Biso   1.000  H
  C847     1.0000 0.38126  0.11874  0.75600  Biso   1.000  C
  C848     1.0000 0.39610  0.10390  0.72810  Biso   1.000  C
  C849     1.0000 0.41957  0.08043  0.67745  Biso   1.000  C
  H283     1.0000 0.42722  0.07278  0.65955  Biso   1.000  H
  C850     1.0000 0.38126  0.61874  0.25600  Biso   1.000  C
  C851     1.0000 0.39610  0.60390  0.22810  Biso   1.000  C
  C852     1.0000 0.41957  0.58043  0.17745  Biso   1.000  C
  H284     1.0000 0.42722  0.57278  0.15955  Biso   1.000  H
  C853     1.0000 0.88126  0.88126  0.74400  Biso   1.000  C
  C854     1.0000 0.89610  0.89610  0.77190  Biso   1.000  C
  C855     1.0000 0.91957  0.91957  0.82255  Biso   1.000  C
  H285     1.0000 0.92722  0.92722  0.84045  Biso   1.000  H
  C856     1.0000 0.88126  0.38126  0.24400  Biso   1.000  C
  C857     1.0000 0.89610  0.39610  0.27190  Biso   1.000  C
  C858     1.0000 0.91957  0.41957  0.32255  Biso   1.000  C
  H286     1.0000 0.92722  0.42722  0.34045  Biso   1.000  H
  C859     1.0000 0.38126  0.88126  0.24400  Biso   1.000  C
  C860     1.0000 0.39610  0.89610  0.27190  Biso   1.000  C
  C861     1.0000 0.41957  0.91957  0.32255  Biso   1.000  C
  H287     1.0000 0.42722  0.92722  0.34045  Biso   1.000  H
  C862     1.0000 0.38126  0.38126  0.74400  Biso   1.000  C
  C863     1.0000 0.39610  0.39610  0.77190  Biso   1.000  C
  C864     1.0000 0.41957  0.41957  0.82255  Biso   1.000  C
  H288     1.0000 0.42722  0.42722  0.84045  Biso   1.000  H
