data_image0
_cell_length_a       44.614
_cell_length_b       44.614
_cell_length_c       44.614
_cell_angle_alpha    90
_cell_angle_beta     90
_cell_angle_gamma    90

_symmetry_space_group_name_H-M    "P 1"
_symmetry_int_tables_number       1

loop_
  _symmetry_equiv_pos_as_xyz
  'x, y, z'

loop_
  _atom_site_label
  _atom_site_occupancy
  _atom_site_fract_x
  _atom_site_fract_y
  _atom_site_fract_z
  _atom_site_thermal_displace_type
  _atom_site_B_iso_or_equiv
  _atom_site_type_symbol
  O1       1.0000 0.14347  0.18687  0.96912  Biso   1.000  O
  O2       1.0000 0.10798  0.15137  0.96915  Biso   1.000  O
  N1       1.0000 0.14507  0.29264  0.87518  Biso   1.000  N
  C1       1.0000 0.11995  0.17485  0.95913  Biso   1.000  C
  N2       1.0000 0.14086  0.27017  0.89385  Biso   1.000  N
  C2       1.0000 0.10498  0.18976  0.93317  Biso   1.000  C
  C3       1.0000 0.11638  0.21607  0.92133  Biso   1.000  C
  H1       1.0000 0.13260  0.22540  0.93060  Biso   1.000  H
  O3       1.0000 0.14347  0.68687  0.46912  Biso   1.000  O
  O4       1.0000 0.10798  0.65137  0.46915  Biso   1.000  O
  N3       1.0000 0.14507  0.79264  0.37518  Biso   1.000  N
  C4       1.0000 0.11995  0.67485  0.45913  Biso   1.000  C
  N4       1.0000 0.14086  0.77017  0.39385  Biso   1.000  N
  C5       1.0000 0.10498  0.68976  0.43317  Biso   1.000  C
  C6       1.0000 0.11638  0.71607  0.42133  Biso   1.000  C
  H2       1.0000 0.13260  0.72540  0.43060  Biso   1.000  H
  O5       1.0000 0.64347  0.18687  0.46912  Biso   1.000  O
  O6       1.0000 0.60798  0.15137  0.46915  Biso   1.000  O
  N5       1.0000 0.64507  0.29264  0.37518  Biso   1.000  N
  C7       1.0000 0.61995  0.17485  0.45913  Biso   1.000  C
  N6       1.0000 0.64086  0.27017  0.39385  Biso   1.000  N
  C8       1.0000 0.60498  0.18976  0.43317  Biso   1.000  C
  C9       1.0000 0.61638  0.21607  0.42133  Biso   1.000  C
  H3       1.0000 0.63260  0.22540  0.43060  Biso   1.000  H
  O7       1.0000 0.64347  0.68687  0.96912  Biso   1.000  O
  O8       1.0000 0.60798  0.65137  0.96915  Biso   1.000  O
  N7       1.0000 0.64507  0.79264  0.87518  Biso   1.000  N
  C10      1.0000 0.61995  0.67485  0.95913  Biso   1.000  C
  N8       1.0000 0.64086  0.77017  0.89385  Biso   1.000  N
  C11      1.0000 0.60498  0.68976  0.93317  Biso   1.000  C
  C12      1.0000 0.61638  0.71607  0.92133  Biso   1.000  C
  H4       1.0000 0.63260  0.72540  0.93060  Biso   1.000  H
  O9       1.0000 0.85653  0.81313  0.96912  Biso   1.000  O
  O10      1.0000 0.89202  0.84863  0.96915  Biso   1.000  O
  N9       1.0000 0.85493  0.70736  0.87518  Biso   1.000  N
  C13      1.0000 0.88005  0.82515  0.95913  Biso   1.000  C
  N10      1.0000 0.85914  0.72983  0.89385  Biso   1.000  N
  C14      1.0000 0.89502  0.81024  0.93317  Biso   1.000  C
  C15      1.0000 0.88362  0.78393  0.92133  Biso   1.000  C
  H5       1.0000 0.86740  0.77460  0.93060  Biso   1.000  H
  O11      1.0000 0.85653  0.31313  0.46912  Biso   1.000  O
  O12      1.0000 0.89202  0.34863  0.46915  Biso   1.000  O
  N11      1.0000 0.85493  0.20736  0.37518  Biso   1.000  N
  C16      1.0000 0.88005  0.32515  0.45913  Biso   1.000  C
  N12      1.0000 0.85914  0.22983  0.39385  Biso   1.000  N
  C17      1.0000 0.89502  0.31024  0.43317  Biso   1.000  C
  C18      1.0000 0.88362  0.28393  0.42133  Biso   1.000  C
  H6       1.0000 0.86740  0.27460  0.43060  Biso   1.000  H
  O13      1.0000 0.35653  0.81313  0.46912  Biso   1.000  O
  O14      1.0000 0.39202  0.84863  0.46915  Biso   1.000  O
  N13      1.0000 0.35493  0.70736  0.37518  Biso   1.000  N
  C19      1.0000 0.38005  0.82515  0.45913  Biso   1.000  C
  N14      1.0000 0.35914  0.72983  0.39385  Biso   1.000  N
  C20      1.0000 0.39502  0.81024  0.43317  Biso   1.000  C
  C21      1.0000 0.38362  0.78393  0.42133  Biso   1.000  C
  H7       1.0000 0.36740  0.77460  0.43060  Biso   1.000  H
  O15      1.0000 0.35653  0.31313  0.96912  Biso   1.000  O
  O16      1.0000 0.39202  0.34863  0.96915  Biso   1.000  O
  N15      1.0000 0.35493  0.20736  0.87518  Biso   1.000  N
  C22      1.0000 0.38005  0.32515  0.95913  Biso   1.000  C
  N16      1.0000 0.35914  0.22983  0.89385  Biso   1.000  N
  C23      1.0000 0.39502  0.31024  0.93317  Biso   1.000  C
  C24      1.0000 0.38362  0.28393  0.92133  Biso   1.000  C
  H8       1.0000 0.36740  0.27460  0.93060  Biso   1.000  H
  O17      1.0000 0.85653  0.18687  0.03088  Biso   1.000  O
  O18      1.0000 0.89202  0.15137  0.03085  Biso   1.000  O
  N17      1.0000 0.85493  0.29264  0.12482  Biso   1.000  N
  C25      1.0000 0.88005  0.17485  0.04087  Biso   1.000  C
  N18      1.0000 0.85914  0.27017  0.10615  Biso   1.000  N
  C26      1.0000 0.89502  0.18976  0.06683  Biso   1.000  C
  C27      1.0000 0.88362  0.21607  0.07867  Biso   1.000  C
  H9       1.0000 0.86740  0.22540  0.06940  Biso   1.000  H
  O19      1.0000 0.85653  0.68687  0.53088  Biso   1.000  O
  O20      1.0000 0.89202  0.65137  0.53085  Biso   1.000  O
  N19      1.0000 0.85493  0.79264  0.62482  Biso   1.000  N
  C28      1.0000 0.88005  0.67485  0.54087  Biso   1.000  C
  N20      1.0000 0.85914  0.77017  0.60615  Biso   1.000  N
  C29      1.0000 0.89502  0.68976  0.56683  Biso   1.000  C
  C30      1.0000 0.88362  0.71607  0.57867  Biso   1.000  C
  H10      1.0000 0.86740  0.72540  0.56940  Biso   1.000  H
  O21      1.0000 0.35653  0.18687  0.53088  Biso   1.000  O
  O22      1.0000 0.39202  0.15137  0.53085  Biso   1.000  O
  N21      1.0000 0.35493  0.29264  0.62482  Biso   1.000  N
  C31      1.0000 0.38005  0.17485  0.54087  Biso   1.000  C
  N22      1.0000 0.35914  0.27017  0.60615  Biso   1.000  N
  C32      1.0000 0.39502  0.18976  0.56683  Biso   1.000  C
  C33      1.0000 0.38362  0.21607  0.57867  Biso   1.000  C
  H11      1.0000 0.36740  0.22540  0.56940  Biso   1.000  H
  O23      1.0000 0.35653  0.68687  0.03088  Biso   1.000  O
  O24      1.0000 0.39202  0.65137  0.03085  Biso   1.000  O
  N23      1.0000 0.35493  0.79264  0.12482  Biso   1.000  N
  C34      1.0000 0.38005  0.67485  0.04087  Biso   1.000  C
  N24      1.0000 0.35914  0.77017  0.10615  Biso   1.000  N
  C35      1.0000 0.39502  0.68976  0.06683  Biso   1.000  C
  C36      1.0000 0.38362  0.71607  0.07867  Biso   1.000  C
  H12      1.0000 0.36740  0.72540  0.06940  Biso   1.000  H
  O25      1.0000 0.14347  0.81313  0.03088  Biso   1.000  O
  O26      1.0000 0.10798  0.84863  0.03085  Biso   1.000  O
  N25      1.0000 0.14507  0.70736  0.12482  Biso   1.000  N
  C37      1.0000 0.11995  0.82515  0.04087  Biso   1.000  C
  N26      1.0000 0.14086  0.72983  0.10615  Biso   1.000  N
  C38      1.0000 0.10498  0.81024  0.06683  Biso   1.000  C
  C39      1.0000 0.11638  0.78393  0.07867  Biso   1.000  C
  H13      1.0000 0.13260  0.77460  0.06940  Biso   1.000  H
  O27      1.0000 0.14347  0.31313  0.53088  Biso   1.000  O
  O28      1.0000 0.10798  0.34863  0.53085  Biso   1.000  O
  N27      1.0000 0.14507  0.20736  0.62482  Biso   1.000  N
  C40      1.0000 0.11995  0.32515  0.54087  Biso   1.000  C
  N28      1.0000 0.14086  0.22983  0.60615  Biso   1.000  N
  C41      1.0000 0.10498  0.31024  0.56683  Biso   1.000  C
  C42      1.0000 0.11638  0.28393  0.57867  Biso   1.000  C
  H14      1.0000 0.13260  0.27460  0.56940  Biso   1.000  H
  O29      1.0000 0.64347  0.81313  0.53088  Biso   1.000  O
  O30      1.0000 0.60798  0.84863  0.53085  Biso   1.000  O
  N29      1.0000 0.64507  0.70736  0.62482  Biso   1.000  N
  C43      1.0000 0.61995  0.82515  0.54087  Biso   1.000  C
  N30      1.0000 0.64086  0.72983  0.60615  Biso   1.000  N
  C44      1.0000 0.60498  0.81024  0.56683  Biso   1.000  C
  C45      1.0000 0.61638  0.78393  0.57867  Biso   1.000  C
  H15      1.0000 0.63260  0.77460  0.56940  Biso   1.000  H
  O31      1.0000 0.64347  0.31313  0.03088  Biso   1.000  O
  O32      1.0000 0.60798  0.34863  0.03085  Biso   1.000  O
  N31      1.0000 0.64507  0.20736  0.12482  Biso   1.000  N
  C46      1.0000 0.61995  0.32515  0.04087  Biso   1.000  C
  N32      1.0000 0.64086  0.22983  0.10615  Biso   1.000  N
  C47      1.0000 0.60498  0.31024  0.06683  Biso   1.000  C
  C48      1.0000 0.61638  0.28393  0.07867  Biso   1.000  C
  H16      1.0000 0.63260  0.27460  0.06940  Biso   1.000  H
  O33      1.0000 0.96912  0.14347  0.18687  Biso   1.000  O
  O34      1.0000 0.96915  0.10798  0.15137  Biso   1.000  O
  N33      1.0000 0.87518  0.14507  0.29264  Biso   1.000  N
  C49      1.0000 0.95913  0.11995  0.17485  Biso   1.000  C
  N34      1.0000 0.89385  0.14086  0.27017  Biso   1.000  N
  C50      1.0000 0.93317  0.10498  0.18976  Biso   1.000  C
  C51      1.0000 0.92133  0.11638  0.21607  Biso   1.000  C
  H17      1.0000 0.93060  0.13260  0.22540  Biso   1.000  H
  O35      1.0000 0.96912  0.64347  0.68687  Biso   1.000  O
  O36      1.0000 0.96915  0.60798  0.65137  Biso   1.000  O
  N35      1.0000 0.87518  0.64507  0.79264  Biso   1.000  N
  C52      1.0000 0.95913  0.61995  0.67485  Biso   1.000  C
  N36      1.0000 0.89385  0.64086  0.77017  Biso   1.000  N
  C53      1.0000 0.93317  0.60498  0.68976  Biso   1.000  C
  C54      1.0000 0.92133  0.61638  0.71607  Biso   1.000  C
  H18      1.0000 0.93060  0.63260  0.72540  Biso   1.000  H
  O37      1.0000 0.46912  0.14347  0.68687  Biso   1.000  O
  O38      1.0000 0.46915  0.10798  0.65137  Biso   1.000  O
  N37      1.0000 0.37518  0.14507  0.79264  Biso   1.000  N
  C55      1.0000 0.45913  0.11995  0.67485  Biso   1.000  C
  N38      1.0000 0.39385  0.14086  0.77017  Biso   1.000  N
  C56      1.0000 0.43317  0.10498  0.68976  Biso   1.000  C
  C57      1.0000 0.42133  0.11638  0.71607  Biso   1.000  C
  H19      1.0000 0.43060  0.13260  0.72540  Biso   1.000  H
  O39      1.0000 0.46912  0.64347  0.18687  Biso   1.000  O
  O40      1.0000 0.46915  0.60798  0.15137  Biso   1.000  O
  N39      1.0000 0.37518  0.64507  0.29264  Biso   1.000  N
  C58      1.0000 0.45913  0.61995  0.17485  Biso   1.000  C
  N40      1.0000 0.39385  0.64086  0.27017  Biso   1.000  N
  C59      1.0000 0.43317  0.60498  0.18976  Biso   1.000  C
  C60      1.0000 0.42133  0.61638  0.21607  Biso   1.000  C
  H20      1.0000 0.43060  0.63260  0.22540  Biso   1.000  H
  O41      1.0000 0.96912  0.85653  0.81313  Biso   1.000  O
  O42      1.0000 0.96915  0.89202  0.84863  Biso   1.000  O
  N41      1.0000 0.87518  0.85493  0.70736  Biso   1.000  N
  C61      1.0000 0.95913  0.88005  0.82515  Biso   1.000  C
  N42      1.0000 0.89385  0.85914  0.72983  Biso   1.000  N
  C62      1.0000 0.93317  0.89502  0.81024  Biso   1.000  C
  C63      1.0000 0.92133  0.88362  0.78393  Biso   1.000  C
  H21      1.0000 0.93060  0.86740  0.77460  Biso   1.000  H
  O43      1.0000 0.96912  0.35653  0.31313  Biso   1.000  O
  O44      1.0000 0.96915  0.39202  0.34863  Biso   1.000  O
  N43      1.0000 0.87518  0.35493  0.20736  Biso   1.000  N
  C64      1.0000 0.95913  0.38005  0.32515  Biso   1.000  C
  N44      1.0000 0.89385  0.35914  0.22983  Biso   1.000  N
  C65      1.0000 0.93317  0.39502  0.31024  Biso   1.000  C
  C66      1.0000 0.92133  0.38362  0.28393  Biso   1.000  C
  H22      1.0000 0.93060  0.36740  0.27460  Biso   1.000  H
  O45      1.0000 0.46912  0.85653  0.31313  Biso   1.000  O
  O46      1.0000 0.46915  0.89202  0.34863  Biso   1.000  O
  N45      1.0000 0.37518  0.85493  0.20736  Biso   1.000  N
  C67      1.0000 0.45913  0.88005  0.32515  Biso   1.000  C
  N46      1.0000 0.39385  0.85914  0.22983  Biso   1.000  N
  C68      1.0000 0.43317  0.89502  0.31024  Biso   1.000  C
  C69      1.0000 0.42133  0.88362  0.28393  Biso   1.000  C
  H23      1.0000 0.43060  0.86740  0.27460  Biso   1.000  H
  O47      1.0000 0.46912  0.35653  0.81313  Biso   1.000  O
  O48      1.0000 0.46915  0.39202  0.84863  Biso   1.000  O
  N47      1.0000 0.37518  0.35493  0.70736  Biso   1.000  N
  C70      1.0000 0.45913  0.38005  0.82515  Biso   1.000  C
  N48      1.0000 0.39385  0.35914  0.72983  Biso   1.000  N
  C71      1.0000 0.43317  0.39502  0.81024  Biso   1.000  C
  C72      1.0000 0.42133  0.38362  0.78393  Biso   1.000  C
  H24      1.0000 0.43060  0.36740  0.77460  Biso   1.000  H
  O49      1.0000 0.03088  0.85653  0.18687  Biso   1.000  O
  O50      1.0000 0.03085  0.89202  0.15137  Biso   1.000  O
  N49      1.0000 0.12482  0.85493  0.29264  Biso   1.000  N
  C73      1.0000 0.04087  0.88005  0.17485  Biso   1.000  C
  N50      1.0000 0.10615  0.85914  0.27017  Biso   1.000  N
  C74      1.0000 0.06683  0.89502  0.18976  Biso   1.000  C
  C75      1.0000 0.07867  0.88362  0.21607  Biso   1.000  C
  H25      1.0000 0.06940  0.86740  0.22540  Biso   1.000  H
  O51      1.0000 0.03088  0.35653  0.68687  Biso   1.000  O
  O52      1.0000 0.03085  0.39202  0.65137  Biso   1.000  O
  N51      1.0000 0.12482  0.35493  0.79264  Biso   1.000  N
  C76      1.0000 0.04087  0.38005  0.67485  Biso   1.000  C
  N52      1.0000 0.10615  0.35914  0.77017  Biso   1.000  N
  C77      1.0000 0.06683  0.39502  0.68976  Biso   1.000  C
  C78      1.0000 0.07867  0.38362  0.71607  Biso   1.000  C
  H26      1.0000 0.06940  0.36740  0.72540  Biso   1.000  H
  O53      1.0000 0.53088  0.85653  0.68687  Biso   1.000  O
  O54      1.0000 0.53085  0.89202  0.65137  Biso   1.000  O
  N53      1.0000 0.62482  0.85493  0.79264  Biso   1.000  N
  C79      1.0000 0.54087  0.88005  0.67485  Biso   1.000  C
  N54      1.0000 0.60615  0.85914  0.77017  Biso   1.000  N
  C80      1.0000 0.56683  0.89502  0.68976  Biso   1.000  C
  C81      1.0000 0.57867  0.88362  0.71607  Biso   1.000  C
  H27      1.0000 0.56940  0.86740  0.72540  Biso   1.000  H
  O55      1.0000 0.53088  0.35653  0.18687  Biso   1.000  O
  O56      1.0000 0.53085  0.39202  0.15137  Biso   1.000  O
  N55      1.0000 0.62482  0.35493  0.29264  Biso   1.000  N
  C82      1.0000 0.54087  0.38005  0.17485  Biso   1.000  C
  N56      1.0000 0.60615  0.35914  0.27017  Biso   1.000  N
  C83      1.0000 0.56683  0.39502  0.18976  Biso   1.000  C
  C84      1.0000 0.57867  0.38362  0.21607  Biso   1.000  C
  H28      1.0000 0.56940  0.36740  0.22540  Biso   1.000  H
  O57      1.0000 0.03088  0.14347  0.81313  Biso   1.000  O
  O58      1.0000 0.03085  0.10798  0.84863  Biso   1.000  O
  N57      1.0000 0.12482  0.14507  0.70736  Biso   1.000  N
  C85      1.0000 0.04087  0.11995  0.82515  Biso   1.000  C
  N58      1.0000 0.10615  0.14086  0.72983  Biso   1.000  N
  C86      1.0000 0.06683  0.10498  0.81024  Biso   1.000  C
  C87      1.0000 0.07867  0.11638  0.78393  Biso   1.000  C
  H29      1.0000 0.06940  0.13260  0.77460  Biso   1.000  H
  O59      1.0000 0.03088  0.64347  0.31313  Biso   1.000  O
  O60      1.0000 0.03085  0.60798  0.34863  Biso   1.000  O
  N59      1.0000 0.12482  0.64507  0.20736  Biso   1.000  N
  C88      1.0000 0.04087  0.61995  0.32515  Biso   1.000  C
  N60      1.0000 0.10615  0.64086  0.22983  Biso   1.000  N
  C89      1.0000 0.06683  0.60498  0.31024  Biso   1.000  C
  C90      1.0000 0.07867  0.61638  0.28393  Biso   1.000  C
  H30      1.0000 0.06940  0.63260  0.27460  Biso   1.000  H
  O61      1.0000 0.53088  0.14347  0.31313  Biso   1.000  O
  O62      1.0000 0.53085  0.10798  0.34863  Biso   1.000  O
  N61      1.0000 0.62482  0.14507  0.20736  Biso   1.000  N
  C91      1.0000 0.54087  0.11995  0.32515  Biso   1.000  C
  N62      1.0000 0.60615  0.14086  0.22983  Biso   1.000  N
  C92      1.0000 0.56683  0.10498  0.31024  Biso   1.000  C
  C93      1.0000 0.57867  0.11638  0.28393  Biso   1.000  C
  H31      1.0000 0.56940  0.13260  0.27460  Biso   1.000  H
  O63      1.0000 0.53088  0.64347  0.81313  Biso   1.000  O
  O64      1.0000 0.53085  0.60798  0.84863  Biso   1.000  O
  N63      1.0000 0.62482  0.64507  0.70736  Biso   1.000  N
  C94      1.0000 0.54087  0.61995  0.82515  Biso   1.000  C
  N64      1.0000 0.60615  0.64086  0.72983  Biso   1.000  N
  C95      1.0000 0.56683  0.60498  0.81024  Biso   1.000  C
  C96      1.0000 0.57867  0.61638  0.78393  Biso   1.000  C
  H32      1.0000 0.56940  0.63260  0.77460  Biso   1.000  H
  O65      1.0000 0.18687  0.96912  0.14347  Biso   1.000  O
  O66      1.0000 0.15137  0.96915  0.10798  Biso   1.000  O
  N65      1.0000 0.29264  0.87518  0.14507  Biso   1.000  N
  C97      1.0000 0.17485  0.95913  0.11995  Biso   1.000  C
  N66      1.0000 0.27017  0.89385  0.14086  Biso   1.000  N
  C98      1.0000 0.18976  0.93317  0.10498  Biso   1.000  C
  C99      1.0000 0.21607  0.92133  0.11638  Biso   1.000  C
  H33      1.0000 0.22540  0.93060  0.13260  Biso   1.000  H
  O67      1.0000 0.18687  0.46912  0.64347  Biso   1.000  O
  O68      1.0000 0.15137  0.46915  0.60798  Biso   1.000  O
  N67      1.0000 0.29264  0.37518  0.64507  Biso   1.000  N
  C100     1.0000 0.17485  0.45913  0.61995  Biso   1.000  C
  N68      1.0000 0.27017  0.39385  0.64086  Biso   1.000  N
  C101     1.0000 0.18976  0.43317  0.60498  Biso   1.000  C
  C102     1.0000 0.21607  0.42133  0.61638  Biso   1.000  C
  H34      1.0000 0.22540  0.43060  0.63260  Biso   1.000  H
  O69      1.0000 0.68687  0.96912  0.64347  Biso   1.000  O
  O70      1.0000 0.65137  0.96915  0.60798  Biso   1.000  O
  N69      1.0000 0.79264  0.87518  0.64507  Biso   1.000  N
  C103     1.0000 0.67485  0.95913  0.61995  Biso   1.000  C
  N70      1.0000 0.77017  0.89385  0.64086  Biso   1.000  N
  C104     1.0000 0.68976  0.93317  0.60498  Biso   1.000  C
  C105     1.0000 0.71607  0.92133  0.61638  Biso   1.000  C
  H35      1.0000 0.72540  0.93060  0.63260  Biso   1.000  H
  O71      1.0000 0.68687  0.46912  0.14347  Biso   1.000  O
  O72      1.0000 0.65137  0.46915  0.10798  Biso   1.000  O
  N71      1.0000 0.79264  0.37518  0.14507  Biso   1.000  N
  C106     1.0000 0.67485  0.45913  0.11995  Biso   1.000  C
  N72      1.0000 0.77017  0.39385  0.14086  Biso   1.000  N
  C107     1.0000 0.68976  0.43317  0.10498  Biso   1.000  C
  C108     1.0000 0.71607  0.42133  0.11638  Biso   1.000  C
  H36      1.0000 0.72540  0.43060  0.13260  Biso   1.000  H
  O73      1.0000 0.81313  0.96912  0.85653  Biso   1.000  O
  O74      1.0000 0.84863  0.96915  0.89202  Biso   1.000  O
  N73      1.0000 0.70736  0.87518  0.85493  Biso   1.000  N
  C109     1.0000 0.82515  0.95913  0.88005  Biso   1.000  C
  N74      1.0000 0.72983  0.89385  0.85914  Biso   1.000  N
  C110     1.0000 0.81024  0.93317  0.89502  Biso   1.000  C
  C111     1.0000 0.78393  0.92133  0.88362  Biso   1.000  C
  H37      1.0000 0.77460  0.93060  0.86740  Biso   1.000  H
  O75      1.0000 0.81313  0.46912  0.35653  Biso   1.000  O
  O76      1.0000 0.84863  0.46915  0.39202  Biso   1.000  O
  N75      1.0000 0.70736  0.37518  0.35493  Biso   1.000  N
  C112     1.0000 0.82515  0.45913  0.38005  Biso   1.000  C
  N76      1.0000 0.72983  0.39385  0.35914  Biso   1.000  N
  C113     1.0000 0.81024  0.43317  0.39502  Biso   1.000  C
  C114     1.0000 0.78393  0.42133  0.38362  Biso   1.000  C
  H38      1.0000 0.77460  0.43060  0.36740  Biso   1.000  H
  O77      1.0000 0.31313  0.96912  0.35653  Biso   1.000  O
  O78      1.0000 0.34863  0.96915  0.39202  Biso   1.000  O
  N77      1.0000 0.20736  0.87518  0.35493  Biso   1.000  N
  C115     1.0000 0.32515  0.95913  0.38005  Biso   1.000  C
  N78      1.0000 0.22983  0.89385  0.35914  Biso   1.000  N
  C116     1.0000 0.31024  0.93317  0.39502  Biso   1.000  C
  C117     1.0000 0.28393  0.92133  0.38362  Biso   1.000  C
  H39      1.0000 0.27460  0.93060  0.36740  Biso   1.000  H
  O79      1.0000 0.31313  0.46912  0.85653  Biso   1.000  O
  O80      1.0000 0.34863  0.46915  0.89202  Biso   1.000  O
  N79      1.0000 0.20736  0.37518  0.85493  Biso   1.000  N
  C118     1.0000 0.32515  0.45913  0.88005  Biso   1.000  C
  N80      1.0000 0.22983  0.39385  0.85914  Biso   1.000  N
  C119     1.0000 0.31024  0.43317  0.89502  Biso   1.000  C
  C120     1.0000 0.28393  0.42133  0.88362  Biso   1.000  C
  H40      1.0000 0.27460  0.43060  0.86740  Biso   1.000  H
  O81      1.0000 0.18687  0.03088  0.85653  Biso   1.000  O
  O82      1.0000 0.15137  0.03085  0.89202  Biso   1.000  O
  N81      1.0000 0.29264  0.12482  0.85493  Biso   1.000  N
  C121     1.0000 0.17485  0.04087  0.88005  Biso   1.000  C
  N82      1.0000 0.27017  0.10615  0.85914  Biso   1.000  N
  C122     1.0000 0.18976  0.06683  0.89502  Biso   1.000  C
  C123     1.0000 0.21607  0.07867  0.88362  Biso   1.000  C
  H41      1.0000 0.22540  0.06940  0.86740  Biso   1.000  H
  O83      1.0000 0.18687  0.53088  0.35653  Biso   1.000  O
  O84      1.0000 0.15137  0.53085  0.39202  Biso   1.000  O
  N83      1.0000 0.29264  0.62482  0.35493  Biso   1.000  N
  C124     1.0000 0.17485  0.54087  0.38005  Biso   1.000  C
  N84      1.0000 0.27017  0.60615  0.35914  Biso   1.000  N
  C125     1.0000 0.18976  0.56683  0.39502  Biso   1.000  C
  C126     1.0000 0.21607  0.57867  0.38362  Biso   1.000  C
  H42      1.0000 0.22540  0.56940  0.36740  Biso   1.000  H
  O85      1.0000 0.68687  0.03088  0.35653  Biso   1.000  O
  O86      1.0000 0.65137  0.03085  0.39202  Biso   1.000  O
  N85      1.0000 0.79264  0.12482  0.35493  Biso   1.000  N
  C127     1.0000 0.67485  0.04087  0.38005  Biso   1.000  C
  N86      1.0000 0.77017  0.10615  0.35914  Biso   1.000  N
  C128     1.0000 0.68976  0.06683  0.39502  Biso   1.000  C
  C129     1.0000 0.71607  0.07867  0.38362  Biso   1.000  C
  H43      1.0000 0.72540  0.06940  0.36740  Biso   1.000  H
  O87      1.0000 0.68687  0.53088  0.85653  Biso   1.000  O
  O88      1.0000 0.65137  0.53085  0.89202  Biso   1.000  O
  N87      1.0000 0.79264  0.62482  0.85493  Biso   1.000  N
  C130     1.0000 0.67485  0.54087  0.88005  Biso   1.000  C
  N88      1.0000 0.77017  0.60615  0.85914  Biso   1.000  N
  C131     1.0000 0.68976  0.56683  0.89502  Biso   1.000  C
  C132     1.0000 0.71607  0.57867  0.88362  Biso   1.000  C
  H44      1.0000 0.72540  0.56940  0.86740  Biso   1.000  H
  O89      1.0000 0.81313  0.03088  0.14347  Biso   1.000  O
  O90      1.0000 0.84863  0.03085  0.10798  Biso   1.000  O
  N89      1.0000 0.70736  0.12482  0.14507  Biso   1.000  N
  C133     1.0000 0.82515  0.04087  0.11995  Biso   1.000  C
  N90      1.0000 0.72983  0.10615  0.14086  Biso   1.000  N
  C134     1.0000 0.81024  0.06683  0.10498  Biso   1.000  C
  C135     1.0000 0.78393  0.07867  0.11638  Biso   1.000  C
  H45      1.0000 0.77460  0.06940  0.13260  Biso   1.000  H
  O91      1.0000 0.81313  0.53088  0.64347  Biso   1.000  O
  O92      1.0000 0.84863  0.53085  0.60798  Biso   1.000  O
  N91      1.0000 0.70736  0.62482  0.64507  Biso   1.000  N
  C136     1.0000 0.82515  0.54087  0.61995  Biso   1.000  C
  N92      1.0000 0.72983  0.60615  0.64086  Biso   1.000  N
  C137     1.0000 0.81024  0.56683  0.60498  Biso   1.000  C
  C138     1.0000 0.78393  0.57867  0.61638  Biso   1.000  C
  H46      1.0000 0.77460  0.56940  0.63260  Biso   1.000  H
  O93      1.0000 0.31313  0.03088  0.64347  Biso   1.000  O
  O94      1.0000 0.34863  0.03085  0.60798  Biso   1.000  O
  N93      1.0000 0.20736  0.12482  0.64507  Biso   1.000  N
  C139     1.0000 0.32515  0.04087  0.61995  Biso   1.000  C
  N94      1.0000 0.22983  0.10615  0.64086  Biso   1.000  N
  C140     1.0000 0.31024  0.06683  0.60498  Biso   1.000  C
  C141     1.0000 0.28393  0.07867  0.61638  Biso   1.000  C
  H47      1.0000 0.27460  0.06940  0.63260  Biso   1.000  H
  O95      1.0000 0.31313  0.53088  0.14347  Biso   1.000  O
  O96      1.0000 0.34863  0.53085  0.10798  Biso   1.000  O
  N95      1.0000 0.20736  0.62482  0.14507  Biso   1.000  N
  C142     1.0000 0.32515  0.54087  0.11995  Biso   1.000  C
  N96      1.0000 0.22983  0.60615  0.14086  Biso   1.000  N
  C143     1.0000 0.31024  0.56683  0.10498  Biso   1.000  C
  C144     1.0000 0.28393  0.57867  0.11638  Biso   1.000  C
  H48      1.0000 0.27460  0.56940  0.13260  Biso   1.000  H
  O97      1.0000 0.18687  0.14347  0.03088  Biso   1.000  O
  O98      1.0000 0.15137  0.10798  0.03085  Biso   1.000  O
  N97      1.0000 0.29264  0.14507  0.12482  Biso   1.000  N
  C145     1.0000 0.17485  0.11995  0.04087  Biso   1.000  C
  N98      1.0000 0.27017  0.14086  0.10615  Biso   1.000  N
  C146     1.0000 0.18976  0.10498  0.06683  Biso   1.000  C
  C147     1.0000 0.21607  0.11638  0.07867  Biso   1.000  C
  H49      1.0000 0.22540  0.13260  0.06940  Biso   1.000  H
  O99      1.0000 0.18687  0.64347  0.53088  Biso   1.000  O
  O100     1.0000 0.15137  0.60798  0.53085  Biso   1.000  O
  N99      1.0000 0.29264  0.64507  0.62482  Biso   1.000  N
  C148     1.0000 0.17485  0.61995  0.54087  Biso   1.000  C
  N100     1.0000 0.27017  0.64086  0.60615  Biso   1.000  N
  C149     1.0000 0.18976  0.60498  0.56683  Biso   1.000  C
  C150     1.0000 0.21607  0.61638  0.57867  Biso   1.000  C
  H50      1.0000 0.22540  0.63260  0.56940  Biso   1.000  H
  O101     1.0000 0.68687  0.14347  0.53088  Biso   1.000  O
  O102     1.0000 0.65137  0.10798  0.53085  Biso   1.000  O
  N101     1.0000 0.79264  0.14507  0.62482  Biso   1.000  N
  C151     1.0000 0.67485  0.11995  0.54087  Biso   1.000  C
  N102     1.0000 0.77017  0.14086  0.60615  Biso   1.000  N
  C152     1.0000 0.68976  0.10498  0.56683  Biso   1.000  C
  C153     1.0000 0.71607  0.11638  0.57867  Biso   1.000  C
  H51      1.0000 0.72540  0.13260  0.56940  Biso   1.000  H
  O103     1.0000 0.68687  0.64347  0.03088  Biso   1.000  O
  O104     1.0000 0.65137  0.60798  0.03085  Biso   1.000  O
  N103     1.0000 0.79264  0.64507  0.12482  Biso   1.000  N
  C154     1.0000 0.67485  0.61995  0.04087  Biso   1.000  C
  N104     1.0000 0.77017  0.64086  0.10615  Biso   1.000  N
  C155     1.0000 0.68976  0.60498  0.06683  Biso   1.000  C
  C156     1.0000 0.71607  0.61638  0.07867  Biso   1.000  C
  H52      1.0000 0.72540  0.63260  0.06940  Biso   1.000  H
  O105     1.0000 0.81313  0.85653  0.03088  Biso   1.000  O
  O106     1.0000 0.84863  0.89202  0.03085  Biso   1.000  O
  N105     1.0000 0.70736  0.85493  0.12482  Biso   1.000  N
  C157     1.0000 0.82515  0.88005  0.04087  Biso   1.000  C
  N106     1.0000 0.72983  0.85914  0.10615  Biso   1.000  N
  C158     1.0000 0.81024  0.89502  0.06683  Biso   1.000  C
  C159     1.0000 0.78393  0.88362  0.07867  Biso   1.000  C
  H53      1.0000 0.77460  0.86740  0.06940  Biso   1.000  H
  O107     1.0000 0.81313  0.35653  0.53088  Biso   1.000  O
  O108     1.0000 0.84863  0.39202  0.53085  Biso   1.000  O
  N107     1.0000 0.70736  0.35493  0.62482  Biso   1.000  N
  C160     1.0000 0.82515  0.38005  0.54087  Biso   1.000  C
  N108     1.0000 0.72983  0.35914  0.60615  Biso   1.000  N
  C161     1.0000 0.81024  0.39502  0.56683  Biso   1.000  C
  C162     1.0000 0.78393  0.38362  0.57867  Biso   1.000  C
  H54      1.0000 0.77460  0.36740  0.56940  Biso   1.000  H
  O109     1.0000 0.31313  0.85653  0.53088  Biso   1.000  O
  O110     1.0000 0.34863  0.89202  0.53085  Biso   1.000  O
  N109     1.0000 0.20736  0.85493  0.62482  Biso   1.000  N
  C163     1.0000 0.32515  0.88005  0.54087  Biso   1.000  C
  N110     1.0000 0.22983  0.85914  0.60615  Biso   1.000  N
  C164     1.0000 0.31024  0.89502  0.56683  Biso   1.000  C
  C165     1.0000 0.28393  0.88362  0.57867  Biso   1.000  C
  H55      1.0000 0.27460  0.86740  0.56940  Biso   1.000  H
  O111     1.0000 0.31313  0.35653  0.03088  Biso   1.000  O
  O112     1.0000 0.34863  0.39202  0.03085  Biso   1.000  O
  N111     1.0000 0.20736  0.35493  0.12482  Biso   1.000  N
  C166     1.0000 0.32515  0.38005  0.04087  Biso   1.000  C
  N112     1.0000 0.22983  0.35914  0.10615  Biso   1.000  N
  C167     1.0000 0.31024  0.39502  0.06683  Biso   1.000  C
  C168     1.0000 0.28393  0.38362  0.07867  Biso   1.000  C
  H56      1.0000 0.27460  0.36740  0.06940  Biso   1.000  H
  O113     1.0000 0.18687  0.85653  0.96912  Biso   1.000  O
  O114     1.0000 0.15137  0.89202  0.96915  Biso   1.000  O
  N113     1.0000 0.29264  0.85493  0.87518  Biso   1.000  N
  C169     1.0000 0.17485  0.88005  0.95913  Biso   1.000  C
  N114     1.0000 0.27017  0.85914  0.89385  Biso   1.000  N
  C170     1.0000 0.18976  0.89502  0.93317  Biso   1.000  C
  C171     1.0000 0.21607  0.88362  0.92133  Biso   1.000  C
  H57      1.0000 0.22540  0.86740  0.93060  Biso   1.000  H
  O115     1.0000 0.18687  0.35653  0.46912  Biso   1.000  O
  O116     1.0000 0.15137  0.39202  0.46915  Biso   1.000  O
  N115     1.0000 0.29264  0.35493  0.37518  Biso   1.000  N
  C172     1.0000 0.17485  0.38005  0.45913  Biso   1.000  C
  N116     1.0000 0.27017  0.35914  0.39385  Biso   1.000  N
  C173     1.0000 0.18976  0.39502  0.43317  Biso   1.000  C
  C174     1.0000 0.21607  0.38362  0.42133  Biso   1.000  C
  H58      1.0000 0.22540  0.36740  0.43060  Biso   1.000  H
  O117     1.0000 0.68687  0.85653  0.46912  Biso   1.000  O
  O118     1.0000 0.65137  0.89202  0.46915  Biso   1.000  O
  N117     1.0000 0.79264  0.85493  0.37518  Biso   1.000  N
  C175     1.0000 0.67485  0.88005  0.45913  Biso   1.000  C
  N118     1.0000 0.77017  0.85914  0.39385  Biso   1.000  N
  C176     1.0000 0.68976  0.89502  0.43317  Biso   1.000  C
  C177     1.0000 0.71607  0.88362  0.42133  Biso   1.000  C
  H59      1.0000 0.72540  0.86740  0.43060  Biso   1.000  H
  O119     1.0000 0.68687  0.35653  0.96912  Biso   1.000  O
  O120     1.0000 0.65137  0.39202  0.96915  Biso   1.000  O
  N119     1.0000 0.79264  0.35493  0.87518  Biso   1.000  N
  C178     1.0000 0.67485  0.38005  0.95913  Biso   1.000  C
  N120     1.0000 0.77017  0.35914  0.89385  Biso   1.000  N
  C179     1.0000 0.68976  0.39502  0.93317  Biso   1.000  C
  C180     1.0000 0.71607  0.38362  0.92133  Biso   1.000  C
  H60      1.0000 0.72540  0.36740  0.93060  Biso   1.000  H
  O121     1.0000 0.81313  0.14347  0.96912  Biso   1.000  O
  O122     1.0000 0.84863  0.10798  0.96915  Biso   1.000  O
  N121     1.0000 0.70736  0.14507  0.87518  Biso   1.000  N
  C181     1.0000 0.82515  0.11995  0.95913  Biso   1.000  C
  N122     1.0000 0.72983  0.14086  0.89385  Biso   1.000  N
  C182     1.0000 0.81024  0.10498  0.93317  Biso   1.000  C
  C183     1.0000 0.78393  0.11638  0.92133  Biso   1.000  C
  H61      1.0000 0.77460  0.13260  0.93060  Biso   1.000  H
  O123     1.0000 0.81313  0.64347  0.46912  Biso   1.000  O
  O124     1.0000 0.84863  0.60798  0.46915  Biso   1.000  O
  N123     1.0000 0.70736  0.64507  0.37518  Biso   1.000  N
  C184     1.0000 0.82515  0.61995  0.45913  Biso   1.000  C
  N124     1.0000 0.72983  0.64086  0.39385  Biso   1.000  N
  C185     1.0000 0.81024  0.60498  0.43317  Biso   1.000  C
  C186     1.0000 0.78393  0.61638  0.42133  Biso   1.000  C
  H62      1.0000 0.77460  0.63260  0.43060  Biso   1.000  H
  O125     1.0000 0.31313  0.14347  0.46912  Biso   1.000  O
  O126     1.0000 0.34863  0.10798  0.46915  Biso   1.000  O
  N125     1.0000 0.20736  0.14507  0.37518  Biso   1.000  N
  C187     1.0000 0.32515  0.11995  0.45913  Biso   1.000  C
  N126     1.0000 0.22983  0.14086  0.39385  Biso   1.000  N
  C188     1.0000 0.31024  0.10498  0.43317  Biso   1.000  C
  C189     1.0000 0.28393  0.11638  0.42133  Biso   1.000  C
  H63      1.0000 0.27460  0.13260  0.43060  Biso   1.000  H
  O127     1.0000 0.31313  0.64347  0.96912  Biso   1.000  O
  O128     1.0000 0.34863  0.60798  0.96915  Biso   1.000  O
  N127     1.0000 0.20736  0.64507  0.87518  Biso   1.000  N
  C190     1.0000 0.32515  0.61995  0.95913  Biso   1.000  C
  N128     1.0000 0.22983  0.64086  0.89385  Biso   1.000  N
  C191     1.0000 0.31024  0.60498  0.93317  Biso   1.000  C
  C192     1.0000 0.28393  0.61638  0.92133  Biso   1.000  C
  H64      1.0000 0.27460  0.63260  0.93060  Biso   1.000  H
  O129     1.0000 0.14347  0.96912  0.81313  Biso   1.000  O
  O130     1.0000 0.10798  0.96915  0.84863  Biso   1.000  O
  N129     1.0000 0.14507  0.87518  0.70736  Biso   1.000  N
  C193     1.0000 0.11995  0.95913  0.82515  Biso   1.000  C
  N130     1.0000 0.14086  0.89385  0.72983  Biso   1.000  N
  C194     1.0000 0.10498  0.93317  0.81024  Biso   1.000  C
  C195     1.0000 0.11638  0.92133  0.78393  Biso   1.000  C
  H65      1.0000 0.13260  0.93060  0.77460  Biso   1.000  H
  O131     1.0000 0.14347  0.46912  0.31313  Biso   1.000  O
  O132     1.0000 0.10798  0.46915  0.34863  Biso   1.000  O
  N131     1.0000 0.14507  0.37518  0.20736  Biso   1.000  N
  C196     1.0000 0.11995  0.45913  0.32515  Biso   1.000  C
  N132     1.0000 0.14086  0.39385  0.22983  Biso   1.000  N
  C197     1.0000 0.10498  0.43317  0.31024  Biso   1.000  C
  C198     1.0000 0.11638  0.42133  0.28393  Biso   1.000  C
  H66      1.0000 0.13260  0.43060  0.27460  Biso   1.000  H
  O133     1.0000 0.64347  0.96912  0.31313  Biso   1.000  O
  O134     1.0000 0.60798  0.96915  0.34863  Biso   1.000  O
  N133     1.0000 0.64507  0.87518  0.20736  Biso   1.000  N
  C199     1.0000 0.61995  0.95913  0.32515  Biso   1.000  C
  N134     1.0000 0.64086  0.89385  0.22983  Biso   1.000  N
  C200     1.0000 0.60498  0.93317  0.31024  Biso   1.000  C
  C201     1.0000 0.61638  0.92133  0.28393  Biso   1.000  C
  H67      1.0000 0.63260  0.93060  0.27460  Biso   1.000  H
  O135     1.0000 0.64347  0.46912  0.81313  Biso   1.000  O
  O136     1.0000 0.60798  0.46915  0.84863  Biso   1.000  O
  N135     1.0000 0.64507  0.37518  0.70736  Biso   1.000  N
  C202     1.0000 0.61995  0.45913  0.82515  Biso   1.000  C
  N136     1.0000 0.64086  0.39385  0.72983  Biso   1.000  N
  C203     1.0000 0.60498  0.43317  0.81024  Biso   1.000  C
  C204     1.0000 0.61638  0.42133  0.78393  Biso   1.000  C
  H68      1.0000 0.63260  0.43060  0.77460  Biso   1.000  H
  O137     1.0000 0.85653  0.96912  0.18687  Biso   1.000  O
  O138     1.0000 0.89202  0.96915  0.15137  Biso   1.000  O
  N137     1.0000 0.85493  0.87518  0.29264  Biso   1.000  N
  C205     1.0000 0.88005  0.95913  0.17485  Biso   1.000  C
  N138     1.0000 0.85914  0.89385  0.27017  Biso   1.000  N
  C206     1.0000 0.89502  0.93317  0.18976  Biso   1.000  C
  C207     1.0000 0.88362  0.92133  0.21607  Biso   1.000  C
  H69      1.0000 0.86740  0.93060  0.22540  Biso   1.000  H
  O139     1.0000 0.85653  0.46912  0.68687  Biso   1.000  O
  O140     1.0000 0.89202  0.46915  0.65137  Biso   1.000  O
  N139     1.0000 0.85493  0.37518  0.79264  Biso   1.000  N
  C208     1.0000 0.88005  0.45913  0.67485  Biso   1.000  C
  N140     1.0000 0.85914  0.39385  0.77017  Biso   1.000  N
  C209     1.0000 0.89502  0.43317  0.68976  Biso   1.000  C
  C210     1.0000 0.88362  0.42133  0.71607  Biso   1.000  C
  H70      1.0000 0.86740  0.43060  0.72540  Biso   1.000  H
  O141     1.0000 0.35653  0.96912  0.68687  Biso   1.000  O
  O142     1.0000 0.39202  0.96915  0.65137  Biso   1.000  O
  N141     1.0000 0.35493  0.87518  0.79264  Biso   1.000  N
  C211     1.0000 0.38005  0.95913  0.67485  Biso   1.000  C
  N142     1.0000 0.35914  0.89385  0.77017  Biso   1.000  N
  C212     1.0000 0.39502  0.93317  0.68976  Biso   1.000  C
  C213     1.0000 0.38362  0.92133  0.71607  Biso   1.000  C
  H71      1.0000 0.36740  0.93060  0.72540  Biso   1.000  H
  O143     1.0000 0.35653  0.46912  0.18687  Biso   1.000  O
  O144     1.0000 0.39202  0.46915  0.15137  Biso   1.000  O
  N143     1.0000 0.35493  0.37518  0.29264  Biso   1.000  N
  C214     1.0000 0.38005  0.45913  0.17485  Biso   1.000  C
  N144     1.0000 0.35914  0.39385  0.27017  Biso   1.000  N
  C215     1.0000 0.39502  0.43317  0.18976  Biso   1.000  C
  C216     1.0000 0.38362  0.42133  0.21607  Biso   1.000  C
  H72      1.0000 0.36740  0.43060  0.22540  Biso   1.000  H
  O145     1.0000 0.85653  0.03088  0.81313  Biso   1.000  O
  O146     1.0000 0.89202  0.03085  0.84863  Biso   1.000  O
  N145     1.0000 0.85493  0.12482  0.70736  Biso   1.000  N
  C217     1.0000 0.88005  0.04087  0.82515  Biso   1.000  C
  N146     1.0000 0.85914  0.10615  0.72983  Biso   1.000  N
  C218     1.0000 0.89502  0.06683  0.81024  Biso   1.000  C
  C219     1.0000 0.88362  0.07867  0.78393  Biso   1.000  C
  H73      1.0000 0.86740  0.06940  0.77460  Biso   1.000  H
  O147     1.0000 0.85653  0.53088  0.31313  Biso   1.000  O
  O148     1.0000 0.89202  0.53085  0.34863  Biso   1.000  O
  N147     1.0000 0.85493  0.62482  0.20736  Biso   1.000  N
  C220     1.0000 0.88005  0.54087  0.32515  Biso   1.000  C
  N148     1.0000 0.85914  0.60615  0.22983  Biso   1.000  N
  C221     1.0000 0.89502  0.56683  0.31024  Biso   1.000  C
  C222     1.0000 0.88362  0.57867  0.28393  Biso   1.000  C
  H74      1.0000 0.86740  0.56940  0.27460  Biso   1.000  H
  O149     1.0000 0.35653  0.03088  0.31313  Biso   1.000  O
  O150     1.0000 0.39202  0.03085  0.34863  Biso   1.000  O
  N149     1.0000 0.35493  0.12482  0.20736  Biso   1.000  N
  C223     1.0000 0.38005  0.04087  0.32515  Biso   1.000  C
  N150     1.0000 0.35914  0.10615  0.22983  Biso   1.000  N
  C224     1.0000 0.39502  0.06683  0.31024  Biso   1.000  C
  C225     1.0000 0.38362  0.07867  0.28393  Biso   1.000  C
  H75      1.0000 0.36740  0.06940  0.27460  Biso   1.000  H
  O151     1.0000 0.35653  0.53088  0.81313  Biso   1.000  O
  O152     1.0000 0.39202  0.53085  0.84863  Biso   1.000  O
  N151     1.0000 0.35493  0.62482  0.70736  Biso   1.000  N
  C226     1.0000 0.38005  0.54087  0.82515  Biso   1.000  C
  N152     1.0000 0.35914  0.60615  0.72983  Biso   1.000  N
  C227     1.0000 0.39502  0.56683  0.81024  Biso   1.000  C
  C228     1.0000 0.38362  0.57867  0.78393  Biso   1.000  C
  H76      1.0000 0.36740  0.56940  0.77460  Biso   1.000  H
  O153     1.0000 0.14347  0.03088  0.18687  Biso   1.000  O
  O154     1.0000 0.10798  0.03085  0.15137  Biso   1.000  O
  N153     1.0000 0.14507  0.12482  0.29264  Biso   1.000  N
  C229     1.0000 0.11995  0.04087  0.17485  Biso   1.000  C
  N154     1.0000 0.14086  0.10615  0.27017  Biso   1.000  N
  C230     1.0000 0.10498  0.06683  0.18976  Biso   1.000  C
  C231     1.0000 0.11638  0.07867  0.21607  Biso   1.000  C
  H77      1.0000 0.13260  0.06940  0.22540  Biso   1.000  H
  O155     1.0000 0.14347  0.53088  0.68687  Biso   1.000  O
  O156     1.0000 0.10798  0.53085  0.65137  Biso   1.000  O
  N155     1.0000 0.14507  0.62482  0.79264  Biso   1.000  N
  C232     1.0000 0.11995  0.54087  0.67485  Biso   1.000  C
  N156     1.0000 0.14086  0.60615  0.77017  Biso   1.000  N
  C233     1.0000 0.10498  0.56683  0.68976  Biso   1.000  C
  C234     1.0000 0.11638  0.57867  0.71607  Biso   1.000  C
  H78      1.0000 0.13260  0.56940  0.72540  Biso   1.000  H
  O157     1.0000 0.64347  0.03088  0.68687  Biso   1.000  O
  O158     1.0000 0.60798  0.03085  0.65137  Biso   1.000  O
  N157     1.0000 0.64507  0.12482  0.79264  Biso   1.000  N
  C235     1.0000 0.61995  0.04087  0.67485  Biso   1.000  C
  N158     1.0000 0.64086  0.10615  0.77017  Biso   1.000  N
  C236     1.0000 0.60498  0.06683  0.68976  Biso   1.000  C
  C237     1.0000 0.61638  0.07867  0.71607  Biso   1.000  C
  H79      1.0000 0.63260  0.06940  0.72540  Biso   1.000  H
  O159     1.0000 0.64347  0.53088  0.18687  Biso   1.000  O
  O160     1.0000 0.60798  0.53085  0.15137  Biso   1.000  O
  N159     1.0000 0.64507  0.62482  0.29264  Biso   1.000  N
  C238     1.0000 0.61995  0.54087  0.17485  Biso   1.000  C
  N160     1.0000 0.64086  0.60615  0.27017  Biso   1.000  N
  C239     1.0000 0.60498  0.56683  0.18976  Biso   1.000  C
  C240     1.0000 0.61638  0.57867  0.21607  Biso   1.000  C
  H80      1.0000 0.63260  0.56940  0.22540  Biso   1.000  H
  O161     1.0000 0.96912  0.18687  0.85653  Biso   1.000  O
  O162     1.0000 0.96915  0.15137  0.89202  Biso   1.000  O
  N161     1.0000 0.87518  0.29264  0.85493  Biso   1.000  N
  C241     1.0000 0.95913  0.17485  0.88005  Biso   1.000  C
  N162     1.0000 0.89385  0.27017  0.85914  Biso   1.000  N
  C242     1.0000 0.93317  0.18976  0.89502  Biso   1.000  C
  C243     1.0000 0.92133  0.21607  0.88362  Biso   1.000  C
  H81      1.0000 0.93060  0.22540  0.86740  Biso   1.000  H
  O163     1.0000 0.96912  0.68687  0.35653  Biso   1.000  O
  O164     1.0000 0.96915  0.65137  0.39202  Biso   1.000  O
  N163     1.0000 0.87518  0.79264  0.35493  Biso   1.000  N
  C244     1.0000 0.95913  0.67485  0.38005  Biso   1.000  C
  N164     1.0000 0.89385  0.77017  0.35914  Biso   1.000  N
  C245     1.0000 0.93317  0.68976  0.39502  Biso   1.000  C
  C246     1.0000 0.92133  0.71607  0.38362  Biso   1.000  C
  H82      1.0000 0.93060  0.72540  0.36740  Biso   1.000  H
  O165     1.0000 0.46912  0.18687  0.35653  Biso   1.000  O
  O166     1.0000 0.46915  0.15137  0.39202  Biso   1.000  O
  N165     1.0000 0.37518  0.29264  0.35493  Biso   1.000  N
  C247     1.0000 0.45913  0.17485  0.38005  Biso   1.000  C
  N166     1.0000 0.39385  0.27017  0.35914  Biso   1.000  N
  C248     1.0000 0.43317  0.18976  0.39502  Biso   1.000  C
  C249     1.0000 0.42133  0.21607  0.38362  Biso   1.000  C
  H83      1.0000 0.43060  0.22540  0.36740  Biso   1.000  H
  O167     1.0000 0.46912  0.68687  0.85653  Biso   1.000  O
  O168     1.0000 0.46915  0.65137  0.89202  Biso   1.000  O
  N167     1.0000 0.37518  0.79264  0.85493  Biso   1.000  N
  C250     1.0000 0.45913  0.67485  0.88005  Biso   1.000  C
  N168     1.0000 0.39385  0.77017  0.85914  Biso   1.000  N
  C251     1.0000 0.43317  0.68976  0.89502  Biso   1.000  C
  C252     1.0000 0.42133  0.71607  0.88362  Biso   1.000  C
  H84      1.0000 0.43060  0.72540  0.86740  Biso   1.000  H
  O169     1.0000 0.96912  0.81313  0.14347  Biso   1.000  O
  O170     1.0000 0.96915  0.84863  0.10798  Biso   1.000  O
  N169     1.0000 0.87518  0.70736  0.14507  Biso   1.000  N
  C253     1.0000 0.95913  0.82515  0.11995  Biso   1.000  C
  N170     1.0000 0.89385  0.72983  0.14086  Biso   1.000  N
  C254     1.0000 0.93317  0.81024  0.10498  Biso   1.000  C
  C255     1.0000 0.92133  0.78393  0.11638  Biso   1.000  C
  H85      1.0000 0.93060  0.77460  0.13260  Biso   1.000  H
  O171     1.0000 0.96912  0.31313  0.64347  Biso   1.000  O
  O172     1.0000 0.96915  0.34863  0.60798  Biso   1.000  O
  N171     1.0000 0.87518  0.20736  0.64507  Biso   1.000  N
  C256     1.0000 0.95913  0.32515  0.61995  Biso   1.000  C
  N172     1.0000 0.89385  0.22983  0.64086  Biso   1.000  N
  C257     1.0000 0.93317  0.31024  0.60498  Biso   1.000  C
  C258     1.0000 0.92133  0.28393  0.61638  Biso   1.000  C
  H86      1.0000 0.93060  0.27460  0.63260  Biso   1.000  H
  O173     1.0000 0.46912  0.81313  0.64347  Biso   1.000  O
  O174     1.0000 0.46915  0.84863  0.60798  Biso   1.000  O
  N173     1.0000 0.37518  0.70736  0.64507  Biso   1.000  N
  C259     1.0000 0.45913  0.82515  0.61995  Biso   1.000  C
  N174     1.0000 0.39385  0.72983  0.64086  Biso   1.000  N
  C260     1.0000 0.43317  0.81024  0.60498  Biso   1.000  C
  C261     1.0000 0.42133  0.78393  0.61638  Biso   1.000  C
  H87      1.0000 0.43060  0.77460  0.63260  Biso   1.000  H
  O175     1.0000 0.46912  0.31313  0.14347  Biso   1.000  O
  O176     1.0000 0.46915  0.34863  0.10798  Biso   1.000  O
  N175     1.0000 0.37518  0.20736  0.14507  Biso   1.000  N
  C262     1.0000 0.45913  0.32515  0.11995  Biso   1.000  C
  N176     1.0000 0.39385  0.22983  0.14086  Biso   1.000  N
  C263     1.0000 0.43317  0.31024  0.10498  Biso   1.000  C
  C264     1.0000 0.42133  0.28393  0.11638  Biso   1.000  C
  H88      1.0000 0.43060  0.27460  0.13260  Biso   1.000  H
  O177     1.0000 0.03088  0.18687  0.14347  Biso   1.000  O
  O178     1.0000 0.03085  0.15137  0.10798  Biso   1.000  O
  N177     1.0000 0.12482  0.29264  0.14507  Biso   1.000  N
  C265     1.0000 0.04087  0.17485  0.11995  Biso   1.000  C
  N178     1.0000 0.10615  0.27017  0.14086  Biso   1.000  N
  C266     1.0000 0.06683  0.18976  0.10498  Biso   1.000  C
  C267     1.0000 0.07867  0.21607  0.11638  Biso   1.000  C
  H89      1.0000 0.06940  0.22540  0.13260  Biso   1.000  H
  O179     1.0000 0.03088  0.68687  0.64347  Biso   1.000  O
  O180     1.0000 0.03085  0.65137  0.60798  Biso   1.000  O
  N179     1.0000 0.12482  0.79264  0.64507  Biso   1.000  N
  C268     1.0000 0.04087  0.67485  0.61995  Biso   1.000  C
  N180     1.0000 0.10615  0.77017  0.64086  Biso   1.000  N
  C269     1.0000 0.06683  0.68976  0.60498  Biso   1.000  C
  C270     1.0000 0.07867  0.71607  0.61638  Biso   1.000  C
  H90      1.0000 0.06940  0.72540  0.63260  Biso   1.000  H
  O181     1.0000 0.53088  0.18687  0.64347  Biso   1.000  O
  O182     1.0000 0.53085  0.15137  0.60798  Biso   1.000  O
  N181     1.0000 0.62482  0.29264  0.64507  Biso   1.000  N
  C271     1.0000 0.54087  0.17485  0.61995  Biso   1.000  C
  N182     1.0000 0.60615  0.27017  0.64086  Biso   1.000  N
  C272     1.0000 0.56683  0.18976  0.60498  Biso   1.000  C
  C273     1.0000 0.57867  0.21607  0.61638  Biso   1.000  C
  H91      1.0000 0.56940  0.22540  0.63260  Biso   1.000  H
  O183     1.0000 0.53088  0.68687  0.14347  Biso   1.000  O
  O184     1.0000 0.53085  0.65137  0.10798  Biso   1.000  O
  N183     1.0000 0.62482  0.79264  0.14507  Biso   1.000  N
  C274     1.0000 0.54087  0.67485  0.11995  Biso   1.000  C
  N184     1.0000 0.60615  0.77017  0.14086  Biso   1.000  N
  C275     1.0000 0.56683  0.68976  0.10498  Biso   1.000  C
  C276     1.0000 0.57867  0.71607  0.11638  Biso   1.000  C
  H92      1.0000 0.56940  0.72540  0.13260  Biso   1.000  H
  O185     1.0000 0.03088  0.81313  0.85653  Biso   1.000  O
  O186     1.0000 0.03085  0.84863  0.89202  Biso   1.000  O
  N185     1.0000 0.12482  0.70736  0.85493  Biso   1.000  N
  C277     1.0000 0.04087  0.82515  0.88005  Biso   1.000  C
  N186     1.0000 0.10615  0.72983  0.85914  Biso   1.000  N
  C278     1.0000 0.06683  0.81024  0.89502  Biso   1.000  C
  C279     1.0000 0.07867  0.78393  0.88362  Biso   1.000  C
  H93      1.0000 0.06940  0.77460  0.86740  Biso   1.000  H
  O187     1.0000 0.03088  0.31313  0.35653  Biso   1.000  O
  O188     1.0000 0.03085  0.34863  0.39202  Biso   1.000  O
  N187     1.0000 0.12482  0.20736  0.35493  Biso   1.000  N
  C280     1.0000 0.04087  0.32515  0.38005  Biso   1.000  C
  N188     1.0000 0.10615  0.22983  0.35914  Biso   1.000  N
  C281     1.0000 0.06683  0.31024  0.39502  Biso   1.000  C
  C282     1.0000 0.07867  0.28393  0.38362  Biso   1.000  C
  H94      1.0000 0.06940  0.27460  0.36740  Biso   1.000  H
  O189     1.0000 0.53088  0.81313  0.35653  Biso   1.000  O
  O190     1.0000 0.53085  0.84863  0.39202  Biso   1.000  O
  N189     1.0000 0.62482  0.70736  0.35493  Biso   1.000  N
  C283     1.0000 0.54087  0.82515  0.38005  Biso   1.000  C
  N190     1.0000 0.60615  0.72983  0.35914  Biso   1.000  N
  C284     1.0000 0.56683  0.81024  0.39502  Biso   1.000  C
  C285     1.0000 0.57867  0.78393  0.38362  Biso   1.000  C
  H95      1.0000 0.56940  0.77460  0.36740  Biso   1.000  H
  O191     1.0000 0.53088  0.31313  0.85653  Biso   1.000  O
  O192     1.0000 0.53085  0.34863  0.89202  Biso   1.000  O
  N191     1.0000 0.62482  0.20736  0.85493  Biso   1.000  N
  C286     1.0000 0.54087  0.32515  0.88005  Biso   1.000  C
  N192     1.0000 0.60615  0.22983  0.85914  Biso   1.000  N
  C287     1.0000 0.56683  0.31024  0.89502  Biso   1.000  C
  C288     1.0000 0.57867  0.28393  0.88362  Biso   1.000  C
  H96      1.0000 0.56940  0.27460  0.86740  Biso   1.000  H
  O193     1.0000 0.85653  0.81313  0.03088  Biso   1.000  O
  O194     1.0000 0.89202  0.84863  0.03085  Biso   1.000  O
  N193     1.0000 0.85493  0.70736  0.12482  Biso   1.000  N
  C289     1.0000 0.88005  0.82515  0.04087  Biso   1.000  C
  N194     1.0000 0.85914  0.72983  0.10615  Biso   1.000  N
  C290     1.0000 0.89502  0.81024  0.06683  Biso   1.000  C
  C291     1.0000 0.88362  0.78393  0.07867  Biso   1.000  C
  H97      1.0000 0.86740  0.77460  0.06940  Biso   1.000  H
  O195     1.0000 0.85653  0.31313  0.53088  Biso   1.000  O
  O196     1.0000 0.89202  0.34863  0.53085  Biso   1.000  O
  N195     1.0000 0.85493  0.20736  0.62482  Biso   1.000  N
  C292     1.0000 0.88005  0.32515  0.54087  Biso   1.000  C
  N196     1.0000 0.85914  0.22983  0.60615  Biso   1.000  N
  C293     1.0000 0.89502  0.31024  0.56683  Biso   1.000  C
  C294     1.0000 0.88362  0.28393  0.57867  Biso   1.000  C
  H98      1.0000 0.86740  0.27460  0.56940  Biso   1.000  H
  O197     1.0000 0.35653  0.81313  0.53088  Biso   1.000  O
  O198     1.0000 0.39202  0.84863  0.53085  Biso   1.000  O
  N197     1.0000 0.35493  0.70736  0.62482  Biso   1.000  N
  C295     1.0000 0.38005  0.82515  0.54087  Biso   1.000  C
  N198     1.0000 0.35914  0.72983  0.60615  Biso   1.000  N
  C296     1.0000 0.39502  0.81024  0.56683  Biso   1.000  C
  C297     1.0000 0.38362  0.78393  0.57867  Biso   1.000  C
  H99      1.0000 0.36740  0.77460  0.56940  Biso   1.000  H
  O199     1.0000 0.35653  0.31313  0.03088  Biso   1.000  O
  O200     1.0000 0.39202  0.34863  0.03085  Biso   1.000  O
  N199     1.0000 0.35493  0.20736  0.12482  Biso   1.000  N
  C298     1.0000 0.38005  0.32515  0.04087  Biso   1.000  C
  N200     1.0000 0.35914  0.22983  0.10615  Biso   1.000  N
  C299     1.0000 0.39502  0.31024  0.06683  Biso   1.000  C
  C300     1.0000 0.38362  0.28393  0.07867  Biso   1.000  C
  H100     1.0000 0.36740  0.27460  0.06940  Biso   1.000  H
  O201     1.0000 0.14347  0.18687  0.03088  Biso   1.000  O
  O202     1.0000 0.10798  0.15137  0.03085  Biso   1.000  O
  N201     1.0000 0.14507  0.29264  0.12482  Biso   1.000  N
  C301     1.0000 0.11995  0.17485  0.04087  Biso   1.000  C
  N202     1.0000 0.14086  0.27017  0.10615  Biso   1.000  N
  C302     1.0000 0.10498  0.18976  0.06683  Biso   1.000  C
  C303     1.0000 0.11638  0.21607  0.07867  Biso   1.000  C
  H101     1.0000 0.13260  0.22540  0.06940  Biso   1.000  H
  O203     1.0000 0.14347  0.68687  0.53088  Biso   1.000  O
  O204     1.0000 0.10798  0.65137  0.53085  Biso   1.000  O
  N203     1.0000 0.14507  0.79264  0.62482  Biso   1.000  N
  C304     1.0000 0.11995  0.67485  0.54087  Biso   1.000  C
  N204     1.0000 0.14086  0.77017  0.60615  Biso   1.000  N
  C305     1.0000 0.10498  0.68976  0.56683  Biso   1.000  C
  C306     1.0000 0.11638  0.71607  0.57867  Biso   1.000  C
  H102     1.0000 0.13260  0.72540  0.56940  Biso   1.000  H
  O205     1.0000 0.64347  0.18687  0.53088  Biso   1.000  O
  O206     1.0000 0.60798  0.15137  0.53085  Biso   1.000  O
  N205     1.0000 0.64507  0.29264  0.62482  Biso   1.000  N
  C307     1.0000 0.61995  0.17485  0.54087  Biso   1.000  C
  N206     1.0000 0.64086  0.27017  0.60615  Biso   1.000  N
  C308     1.0000 0.60498  0.18976  0.56683  Biso   1.000  C
  C309     1.0000 0.61638  0.21607  0.57867  Biso   1.000  C
  H103     1.0000 0.63260  0.22540  0.56940  Biso   1.000  H
  O207     1.0000 0.64347  0.68687  0.03088  Biso   1.000  O
  O208     1.0000 0.60798  0.65137  0.03085  Biso   1.000  O
  N207     1.0000 0.64507  0.79264  0.12482  Biso   1.000  N
  C310     1.0000 0.61995  0.67485  0.04087  Biso   1.000  C
  N208     1.0000 0.64086  0.77017  0.10615  Biso   1.000  N
  C311     1.0000 0.60498  0.68976  0.06683  Biso   1.000  C
  C312     1.0000 0.61638  0.71607  0.07867  Biso   1.000  C
  H104     1.0000 0.63260  0.72540  0.06940  Biso   1.000  H
  O209     1.0000 0.14347  0.81313  0.96912  Biso   1.000  O
  O210     1.0000 0.10798  0.84863  0.96915  Biso   1.000  O
  N209     1.0000 0.14507  0.70736  0.87518  Biso   1.000  N
  C313     1.0000 0.11995  0.82515  0.95913  Biso   1.000  C
  N210     1.0000 0.14086  0.72983  0.89385  Biso   1.000  N
  C314     1.0000 0.10498  0.81024  0.93317  Biso   1.000  C
  C315     1.0000 0.11638  0.78393  0.92133  Biso   1.000  C
  H105     1.0000 0.13260  0.77460  0.93060  Biso   1.000  H
  O211     1.0000 0.14347  0.31313  0.46912  Biso   1.000  O
  O212     1.0000 0.10798  0.34863  0.46915  Biso   1.000  O
  N211     1.0000 0.14507  0.20736  0.37518  Biso   1.000  N
  C316     1.0000 0.11995  0.32515  0.45913  Biso   1.000  C
  N212     1.0000 0.14086  0.22983  0.39385  Biso   1.000  N
  C317     1.0000 0.10498  0.31024  0.43317  Biso   1.000  C
  C318     1.0000 0.11638  0.28393  0.42133  Biso   1.000  C
  H106     1.0000 0.13260  0.27460  0.43060  Biso   1.000  H
  O213     1.0000 0.64347  0.81313  0.46912  Biso   1.000  O
  O214     1.0000 0.60798  0.84863  0.46915  Biso   1.000  O
  N213     1.0000 0.64507  0.70736  0.37518  Biso   1.000  N
  C319     1.0000 0.61995  0.82515  0.45913  Biso   1.000  C
  N214     1.0000 0.64086  0.72983  0.39385  Biso   1.000  N
  C320     1.0000 0.60498  0.81024  0.43317  Biso   1.000  C
  C321     1.0000 0.61638  0.78393  0.42133  Biso   1.000  C
  H107     1.0000 0.63260  0.77460  0.43060  Biso   1.000  H
  O215     1.0000 0.64347  0.31313  0.96912  Biso   1.000  O
  O216     1.0000 0.60798  0.34863  0.96915  Biso   1.000  O
  N215     1.0000 0.64507  0.20736  0.87518  Biso   1.000  N
  C322     1.0000 0.61995  0.32515  0.95913  Biso   1.000  C
  N216     1.0000 0.64086  0.22983  0.89385  Biso   1.000  N
  C323     1.0000 0.60498  0.31024  0.93317  Biso   1.000  C
  C324     1.0000 0.61638  0.28393  0.92133  Biso   1.000  C
  H108     1.0000 0.63260  0.27460  0.93060  Biso   1.000  H
  O217     1.0000 0.85653  0.18687  0.96912  Biso   1.000  O
  O218     1.0000 0.89202  0.15137  0.96915  Biso   1.000  O
  N217     1.0000 0.85493  0.29264  0.87518  Biso   1.000  N
  C325     1.0000 0.88005  0.17485  0.95913  Biso   1.000  C
  N218     1.0000 0.85914  0.27017  0.89385  Biso   1.000  N
  C326     1.0000 0.89502  0.18976  0.93317  Biso   1.000  C
  C327     1.0000 0.88362  0.21607  0.92133  Biso   1.000  C
  H109     1.0000 0.86740  0.22540  0.93060  Biso   1.000  H
  O219     1.0000 0.85653  0.68687  0.46912  Biso   1.000  O
  O220     1.0000 0.89202  0.65137  0.46915  Biso   1.000  O
  N219     1.0000 0.85493  0.79264  0.37518  Biso   1.000  N
  C328     1.0000 0.88005  0.67485  0.45913  Biso   1.000  C
  N220     1.0000 0.85914  0.77017  0.39385  Biso   1.000  N
  C329     1.0000 0.89502  0.68976  0.43317  Biso   1.000  C
  C330     1.0000 0.88362  0.71607  0.42133  Biso   1.000  C
  H110     1.0000 0.86740  0.72540  0.43060  Biso   1.000  H
  O221     1.0000 0.35653  0.18687  0.46912  Biso   1.000  O
  O222     1.0000 0.39202  0.15137  0.46915  Biso   1.000  O
  N221     1.0000 0.35493  0.29264  0.37518  Biso   1.000  N
  C331     1.0000 0.38005  0.17485  0.45913  Biso   1.000  C
  N222     1.0000 0.35914  0.27017  0.39385  Biso   1.000  N
  C332     1.0000 0.39502  0.18976  0.43317  Biso   1.000  C
  C333     1.0000 0.38362  0.21607  0.42133  Biso   1.000  C
  H111     1.0000 0.36740  0.22540  0.43060  Biso   1.000  H
  O223     1.0000 0.35653  0.68687  0.96912  Biso   1.000  O
  O224     1.0000 0.39202  0.65137  0.96915  Biso   1.000  O
  N223     1.0000 0.35493  0.79264  0.87518  Biso   1.000  N
  C334     1.0000 0.38005  0.67485  0.95913  Biso   1.000  C
  N224     1.0000 0.35914  0.77017  0.89385  Biso   1.000  N
  C335     1.0000 0.39502  0.68976  0.93317  Biso   1.000  C
  C336     1.0000 0.38362  0.71607  0.92133  Biso   1.000  C
  H112     1.0000 0.36740  0.72540  0.93060  Biso   1.000  H
  O225     1.0000 0.03088  0.85653  0.81313  Biso   1.000  O
  O226     1.0000 0.03085  0.89202  0.84863  Biso   1.000  O
  N225     1.0000 0.12482  0.85493  0.70736  Biso   1.000  N
  C337     1.0000 0.04087  0.88005  0.82515  Biso   1.000  C
  N226     1.0000 0.10615  0.85914  0.72983  Biso   1.000  N
  C338     1.0000 0.06683  0.89502  0.81024  Biso   1.000  C
  C339     1.0000 0.07867  0.88362  0.78393  Biso   1.000  C
  H113     1.0000 0.06940  0.86740  0.77460  Biso   1.000  H
  O227     1.0000 0.03088  0.35653  0.31313  Biso   1.000  O
  O228     1.0000 0.03085  0.39202  0.34863  Biso   1.000  O
  N227     1.0000 0.12482  0.35493  0.20736  Biso   1.000  N
  C340     1.0000 0.04087  0.38005  0.32515  Biso   1.000  C
  N228     1.0000 0.10615  0.35914  0.22983  Biso   1.000  N
  C341     1.0000 0.06683  0.39502  0.31024  Biso   1.000  C
  C342     1.0000 0.07867  0.38362  0.28393  Biso   1.000  C
  H114     1.0000 0.06940  0.36740  0.27460  Biso   1.000  H
  O229     1.0000 0.53088  0.85653  0.31313  Biso   1.000  O
  O230     1.0000 0.53085  0.89202  0.34863  Biso   1.000  O
  N229     1.0000 0.62482  0.85493  0.20736  Biso   1.000  N
  C343     1.0000 0.54087  0.88005  0.32515  Biso   1.000  C
  N230     1.0000 0.60615  0.85914  0.22983  Biso   1.000  N
  C344     1.0000 0.56683  0.89502  0.31024  Biso   1.000  C
  C345     1.0000 0.57867  0.88362  0.28393  Biso   1.000  C
  H115     1.0000 0.56940  0.86740  0.27460  Biso   1.000  H
  O231     1.0000 0.53088  0.35653  0.81313  Biso   1.000  O
  O232     1.0000 0.53085  0.39202  0.84863  Biso   1.000  O
  N231     1.0000 0.62482  0.35493  0.70736  Biso   1.000  N
  C346     1.0000 0.54087  0.38005  0.82515  Biso   1.000  C
  N232     1.0000 0.60615  0.35914  0.72983  Biso   1.000  N
  C347     1.0000 0.56683  0.39502  0.81024  Biso   1.000  C
  C348     1.0000 0.57867  0.38362  0.78393  Biso   1.000  C
  H116     1.0000 0.56940  0.36740  0.77460  Biso   1.000  H
  O233     1.0000 0.03088  0.14347  0.18687  Biso   1.000  O
  O234     1.0000 0.03085  0.10798  0.15137  Biso   1.000  O
  N233     1.0000 0.12482  0.14507  0.29264  Biso   1.000  N
  C349     1.0000 0.04087  0.11995  0.17485  Biso   1.000  C
  N234     1.0000 0.10615  0.14086  0.27017  Biso   1.000  N
  C350     1.0000 0.06683  0.10498  0.18976  Biso   1.000  C
  C351     1.0000 0.07867  0.11638  0.21607  Biso   1.000  C
  H117     1.0000 0.06940  0.13260  0.22540  Biso   1.000  H
  O235     1.0000 0.03088  0.64347  0.68687  Biso   1.000  O
  O236     1.0000 0.03085  0.60798  0.65137  Biso   1.000  O
  N235     1.0000 0.12482  0.64507  0.79264  Biso   1.000  N
  C352     1.0000 0.04087  0.61995  0.67485  Biso   1.000  C
  N236     1.0000 0.10615  0.64086  0.77017  Biso   1.000  N
  C353     1.0000 0.06683  0.60498  0.68976  Biso   1.000  C
  C354     1.0000 0.07867  0.61638  0.71607  Biso   1.000  C
  H118     1.0000 0.06940  0.63260  0.72540  Biso   1.000  H
  O237     1.0000 0.53088  0.14347  0.68687  Biso   1.000  O
  O238     1.0000 0.53085  0.10798  0.65137  Biso   1.000  O
  N237     1.0000 0.62482  0.14507  0.79264  Biso   1.000  N
  C355     1.0000 0.54087  0.11995  0.67485  Biso   1.000  C
  N238     1.0000 0.60615  0.14086  0.77017  Biso   1.000  N
  C356     1.0000 0.56683  0.10498  0.68976  Biso   1.000  C
  C357     1.0000 0.57867  0.11638  0.71607  Biso   1.000  C
  H119     1.0000 0.56940  0.13260  0.72540  Biso   1.000  H
  O239     1.0000 0.53088  0.64347  0.18687  Biso   1.000  O
  O240     1.0000 0.53085  0.60798  0.15137  Biso   1.000  O
  N239     1.0000 0.62482  0.64507  0.29264  Biso   1.000  N
  C358     1.0000 0.54087  0.61995  0.17485  Biso   1.000  C
  N240     1.0000 0.60615  0.64086  0.27017  Biso   1.000  N
  C359     1.0000 0.56683  0.60498  0.18976  Biso   1.000  C
  C360     1.0000 0.57867  0.61638  0.21607  Biso   1.000  C
  H120     1.0000 0.56940  0.63260  0.22540  Biso   1.000  H
  O241     1.0000 0.96912  0.14347  0.81313  Biso   1.000  O
  O242     1.0000 0.96915  0.10798  0.84863  Biso   1.000  O
  N241     1.0000 0.87518  0.14507  0.70736  Biso   1.000  N
  C361     1.0000 0.95913  0.11995  0.82515  Biso   1.000  C
  N242     1.0000 0.89385  0.14086  0.72983  Biso   1.000  N
  C362     1.0000 0.93317  0.10498  0.81024  Biso   1.000  C
  C363     1.0000 0.92133  0.11638  0.78393  Biso   1.000  C
  H121     1.0000 0.93060  0.13260  0.77460  Biso   1.000  H
  O243     1.0000 0.96912  0.64347  0.31313  Biso   1.000  O
  O244     1.0000 0.96915  0.60798  0.34863  Biso   1.000  O
  N243     1.0000 0.87518  0.64507  0.20736  Biso   1.000  N
  C364     1.0000 0.95913  0.61995  0.32515  Biso   1.000  C
  N244     1.0000 0.89385  0.64086  0.22983  Biso   1.000  N
  C365     1.0000 0.93317  0.60498  0.31024  Biso   1.000  C
  C366     1.0000 0.92133  0.61638  0.28393  Biso   1.000  C
  H122     1.0000 0.93060  0.63260  0.27460  Biso   1.000  H
  O245     1.0000 0.46912  0.14347  0.31313  Biso   1.000  O
  O246     1.0000 0.46915  0.10798  0.34863  Biso   1.000  O
  N245     1.0000 0.37518  0.14507  0.20736  Biso   1.000  N
  C367     1.0000 0.45913  0.11995  0.32515  Biso   1.000  C
  N246     1.0000 0.39385  0.14086  0.22983  Biso   1.000  N
  C368     1.0000 0.43317  0.10498  0.31024  Biso   1.000  C
  C369     1.0000 0.42133  0.11638  0.28393  Biso   1.000  C
  H123     1.0000 0.43060  0.13260  0.27460  Biso   1.000  H
  O247     1.0000 0.46912  0.64347  0.81313  Biso   1.000  O
  O248     1.0000 0.46915  0.60798  0.84863  Biso   1.000  O
  N247     1.0000 0.37518  0.64507  0.70736  Biso   1.000  N
  C370     1.0000 0.45913  0.61995  0.82515  Biso   1.000  C
  N248     1.0000 0.39385  0.64086  0.72983  Biso   1.000  N
  C371     1.0000 0.43317  0.60498  0.81024  Biso   1.000  C
  C372     1.0000 0.42133  0.61638  0.78393  Biso   1.000  C
  H124     1.0000 0.43060  0.63260  0.77460  Biso   1.000  H
  O249     1.0000 0.96912  0.85653  0.18687  Biso   1.000  O
  O250     1.0000 0.96915  0.89202  0.15137  Biso   1.000  O
  N249     1.0000 0.87518  0.85493  0.29264  Biso   1.000  N
  C373     1.0000 0.95913  0.88005  0.17485  Biso   1.000  C
  N250     1.0000 0.89385  0.85914  0.27017  Biso   1.000  N
  C374     1.0000 0.93317  0.89502  0.18976  Biso   1.000  C
  C375     1.0000 0.92133  0.88362  0.21607  Biso   1.000  C
  H125     1.0000 0.93060  0.86740  0.22540  Biso   1.000  H
  O251     1.0000 0.96912  0.35653  0.68687  Biso   1.000  O
  O252     1.0000 0.96915  0.39202  0.65137  Biso   1.000  O
  N251     1.0000 0.87518  0.35493  0.79264  Biso   1.000  N
  C376     1.0000 0.95913  0.38005  0.67485  Biso   1.000  C
  N252     1.0000 0.89385  0.35914  0.77017  Biso   1.000  N
  C377     1.0000 0.93317  0.39502  0.68976  Biso   1.000  C
  C378     1.0000 0.92133  0.38362  0.71607  Biso   1.000  C
  H126     1.0000 0.93060  0.36740  0.72540  Biso   1.000  H
  O253     1.0000 0.46912  0.85653  0.68687  Biso   1.000  O
  O254     1.0000 0.46915  0.89202  0.65137  Biso   1.000  O
  N253     1.0000 0.37518  0.85493  0.79264  Biso   1.000  N
  C379     1.0000 0.45913  0.88005  0.67485  Biso   1.000  C
  N254     1.0000 0.39385  0.85914  0.77017  Biso   1.000  N
  C380     1.0000 0.43317  0.89502  0.68976  Biso   1.000  C
  C381     1.0000 0.42133  0.88362  0.71607  Biso   1.000  C
  H127     1.0000 0.43060  0.86740  0.72540  Biso   1.000  H
  O255     1.0000 0.46912  0.35653  0.18687  Biso   1.000  O
  O256     1.0000 0.46915  0.39202  0.15137  Biso   1.000  O
  N255     1.0000 0.37518  0.35493  0.29264  Biso   1.000  N
  C382     1.0000 0.45913  0.38005  0.17485  Biso   1.000  C
  N256     1.0000 0.39385  0.35914  0.27017  Biso   1.000  N
  C383     1.0000 0.43317  0.39502  0.18976  Biso   1.000  C
  C384     1.0000 0.42133  0.38362  0.21607  Biso   1.000  C
  H128     1.0000 0.43060  0.36740  0.22540  Biso   1.000  H
  O257     1.0000 0.81313  0.03088  0.85653  Biso   1.000  O
  O258     1.0000 0.84863  0.03085  0.89202  Biso   1.000  O
  N257     1.0000 0.70736  0.12482  0.85493  Biso   1.000  N
  C385     1.0000 0.82515  0.04087  0.88005  Biso   1.000  C
  N258     1.0000 0.72983  0.10615  0.85914  Biso   1.000  N
  C386     1.0000 0.81024  0.06683  0.89502  Biso   1.000  C
  C387     1.0000 0.78393  0.07867  0.88362  Biso   1.000  C
  H129     1.0000 0.77460  0.06940  0.86740  Biso   1.000  H
  O259     1.0000 0.81313  0.53088  0.35653  Biso   1.000  O
  O260     1.0000 0.84863  0.53085  0.39202  Biso   1.000  O
  N259     1.0000 0.70736  0.62482  0.35493  Biso   1.000  N
  C388     1.0000 0.82515  0.54087  0.38005  Biso   1.000  C
  N260     1.0000 0.72983  0.60615  0.35914  Biso   1.000  N
  C389     1.0000 0.81024  0.56683  0.39502  Biso   1.000  C
  C390     1.0000 0.78393  0.57867  0.38362  Biso   1.000  C
  H130     1.0000 0.77460  0.56940  0.36740  Biso   1.000  H
  O261     1.0000 0.31313  0.03088  0.35653  Biso   1.000  O
  O262     1.0000 0.34863  0.03085  0.39202  Biso   1.000  O
  N261     1.0000 0.20736  0.12482  0.35493  Biso   1.000  N
  C391     1.0000 0.32515  0.04087  0.38005  Biso   1.000  C
  N262     1.0000 0.22983  0.10615  0.35914  Biso   1.000  N
  C392     1.0000 0.31024  0.06683  0.39502  Biso   1.000  C
  C393     1.0000 0.28393  0.07867  0.38362  Biso   1.000  C
  H131     1.0000 0.27460  0.06940  0.36740  Biso   1.000  H
  O263     1.0000 0.31313  0.53088  0.85653  Biso   1.000  O
  O264     1.0000 0.34863  0.53085  0.89202  Biso   1.000  O
  N263     1.0000 0.20736  0.62482  0.85493  Biso   1.000  N
  C394     1.0000 0.32515  0.54087  0.88005  Biso   1.000  C
  N264     1.0000 0.22983  0.60615  0.85914  Biso   1.000  N
  C395     1.0000 0.31024  0.56683  0.89502  Biso   1.000  C
  C396     1.0000 0.28393  0.57867  0.88362  Biso   1.000  C
  H132     1.0000 0.27460  0.56940  0.86740  Biso   1.000  H
  O265     1.0000 0.18687  0.03088  0.14347  Biso   1.000  O
  O266     1.0000 0.15137  0.03085  0.10798  Biso   1.000  O
  N265     1.0000 0.29264  0.12482  0.14507  Biso   1.000  N
  C397     1.0000 0.17485  0.04087  0.11995  Biso   1.000  C
  N266     1.0000 0.27017  0.10615  0.14086  Biso   1.000  N
  C398     1.0000 0.18976  0.06683  0.10498  Biso   1.000  C
  C399     1.0000 0.21607  0.07867  0.11638  Biso   1.000  C
  H133     1.0000 0.22540  0.06940  0.13260  Biso   1.000  H
  O267     1.0000 0.18687  0.53088  0.64347  Biso   1.000  O
  O268     1.0000 0.15137  0.53085  0.60798  Biso   1.000  O
  N267     1.0000 0.29264  0.62482  0.64507  Biso   1.000  N
  C400     1.0000 0.17485  0.54087  0.61995  Biso   1.000  C
  N268     1.0000 0.27017  0.60615  0.64086  Biso   1.000  N
  C401     1.0000 0.18976  0.56683  0.60498  Biso   1.000  C
  C402     1.0000 0.21607  0.57867  0.61638  Biso   1.000  C
  H134     1.0000 0.22540  0.56940  0.63260  Biso   1.000  H
  O269     1.0000 0.68687  0.03088  0.64347  Biso   1.000  O
  O270     1.0000 0.65137  0.03085  0.60798  Biso   1.000  O
  N269     1.0000 0.79264  0.12482  0.64507  Biso   1.000  N
  C403     1.0000 0.67485  0.04087  0.61995  Biso   1.000  C
  N270     1.0000 0.77017  0.10615  0.64086  Biso   1.000  N
  C404     1.0000 0.68976  0.06683  0.60498  Biso   1.000  C
  C405     1.0000 0.71607  0.07867  0.61638  Biso   1.000  C
  H135     1.0000 0.72540  0.06940  0.63260  Biso   1.000  H
  O271     1.0000 0.68687  0.53088  0.14347  Biso   1.000  O
  O272     1.0000 0.65137  0.53085  0.10798  Biso   1.000  O
  N271     1.0000 0.79264  0.62482  0.14507  Biso   1.000  N
  C406     1.0000 0.67485  0.54087  0.11995  Biso   1.000  C
  N272     1.0000 0.77017  0.60615  0.14086  Biso   1.000  N
  C407     1.0000 0.68976  0.56683  0.10498  Biso   1.000  C
  C408     1.0000 0.71607  0.57867  0.11638  Biso   1.000  C
  H136     1.0000 0.72540  0.56940  0.13260  Biso   1.000  H
  O273     1.0000 0.81313  0.96912  0.14347  Biso   1.000  O
  O274     1.0000 0.84863  0.96915  0.10798  Biso   1.000  O
  N273     1.0000 0.70736  0.87518  0.14507  Biso   1.000  N
  C409     1.0000 0.82515  0.95913  0.11995  Biso   1.000  C
  N274     1.0000 0.72983  0.89385  0.14086  Biso   1.000  N
  C410     1.0000 0.81024  0.93317  0.10498  Biso   1.000  C
  C411     1.0000 0.78393  0.92133  0.11638  Biso   1.000  C
  H137     1.0000 0.77460  0.93060  0.13260  Biso   1.000  H
  O275     1.0000 0.81313  0.46912  0.64347  Biso   1.000  O
  O276     1.0000 0.84863  0.46915  0.60798  Biso   1.000  O
  N275     1.0000 0.70736  0.37518  0.64507  Biso   1.000  N
  C412     1.0000 0.82515  0.45913  0.61995  Biso   1.000  C
  N276     1.0000 0.72983  0.39385  0.64086  Biso   1.000  N
  C413     1.0000 0.81024  0.43317  0.60498  Biso   1.000  C
  C414     1.0000 0.78393  0.42133  0.61638  Biso   1.000  C
  H138     1.0000 0.77460  0.43060  0.63260  Biso   1.000  H
  O277     1.0000 0.31313  0.96912  0.64347  Biso   1.000  O
  O278     1.0000 0.34863  0.96915  0.60798  Biso   1.000  O
  N277     1.0000 0.20736  0.87518  0.64507  Biso   1.000  N
  C415     1.0000 0.32515  0.95913  0.61995  Biso   1.000  C
  N278     1.0000 0.22983  0.89385  0.64086  Biso   1.000  N
  C416     1.0000 0.31024  0.93317  0.60498  Biso   1.000  C
  C417     1.0000 0.28393  0.92133  0.61638  Biso   1.000  C
  H139     1.0000 0.27460  0.93060  0.63260  Biso   1.000  H
  O279     1.0000 0.31313  0.46912  0.14347  Biso   1.000  O
  O280     1.0000 0.34863  0.46915  0.10798  Biso   1.000  O
  N279     1.0000 0.20736  0.37518  0.14507  Biso   1.000  N
  C418     1.0000 0.32515  0.45913  0.11995  Biso   1.000  C
  N280     1.0000 0.22983  0.39385  0.14086  Biso   1.000  N
  C419     1.0000 0.31024  0.43317  0.10498  Biso   1.000  C
  C420     1.0000 0.28393  0.42133  0.11638  Biso   1.000  C
  H140     1.0000 0.27460  0.43060  0.13260  Biso   1.000  H
  O281     1.0000 0.18687  0.96912  0.85653  Biso   1.000  O
  O282     1.0000 0.15137  0.96915  0.89202  Biso   1.000  O
  N281     1.0000 0.29264  0.87518  0.85493  Biso   1.000  N
  C421     1.0000 0.17485  0.95913  0.88005  Biso   1.000  C
  N282     1.0000 0.27017  0.89385  0.85914  Biso   1.000  N
  C422     1.0000 0.18976  0.93317  0.89502  Biso   1.000  C
  C423     1.0000 0.21607  0.92133  0.88362  Biso   1.000  C
  H141     1.0000 0.22540  0.93060  0.86740  Biso   1.000  H
  O283     1.0000 0.18687  0.46912  0.35653  Biso   1.000  O
  O284     1.0000 0.15137  0.46915  0.39202  Biso   1.000  O
  N283     1.0000 0.29264  0.37518  0.35493  Biso   1.000  N
  C424     1.0000 0.17485  0.45913  0.38005  Biso   1.000  C
  N284     1.0000 0.27017  0.39385  0.35914  Biso   1.000  N
  C425     1.0000 0.18976  0.43317  0.39502  Biso   1.000  C
  C426     1.0000 0.21607  0.42133  0.38362  Biso   1.000  C
  H142     1.0000 0.22540  0.43060  0.36740  Biso   1.000  H
  O285     1.0000 0.68687  0.96912  0.35653  Biso   1.000  O
  O286     1.0000 0.65137  0.96915  0.39202  Biso   1.000  O
  N285     1.0000 0.79264  0.87518  0.35493  Biso   1.000  N
  C427     1.0000 0.67485  0.95913  0.38005  Biso   1.000  C
  N286     1.0000 0.77017  0.89385  0.35914  Biso   1.000  N
  C428     1.0000 0.68976  0.93317  0.39502  Biso   1.000  C
  C429     1.0000 0.71607  0.92133  0.38362  Biso   1.000  C
  H143     1.0000 0.72540  0.93060  0.36740  Biso   1.000  H
  O287     1.0000 0.68687  0.46912  0.85653  Biso   1.000  O
  O288     1.0000 0.65137  0.46915  0.89202  Biso   1.000  O
  N287     1.0000 0.79264  0.37518  0.85493  Biso   1.000  N
  C430     1.0000 0.67485  0.45913  0.88005  Biso   1.000  C
  N288     1.0000 0.77017  0.39385  0.85914  Biso   1.000  N
  C431     1.0000 0.68976  0.43317  0.89502  Biso   1.000  C
  C432     1.0000 0.71607  0.42133  0.88362  Biso   1.000  C
  H144     1.0000 0.72540  0.43060  0.86740  Biso   1.000  H
  O289     1.0000 0.81313  0.85653  0.96912  Biso   1.000  O
  O290     1.0000 0.84863  0.89202  0.96915  Biso   1.000  O
  N289     1.0000 0.70736  0.85493  0.87518  Biso   1.000  N
  C433     1.0000 0.82515  0.88005  0.95913  Biso   1.000  C
  N290     1.0000 0.72983  0.85914  0.89385  Biso   1.000  N
  C434     1.0000 0.81024  0.89502  0.93317  Biso   1.000  C
  C435     1.0000 0.78393  0.88362  0.92133  Biso   1.000  C
  H145     1.0000 0.77460  0.86740  0.93060  Biso   1.000  H
  O291     1.0000 0.81313  0.35653  0.46912  Biso   1.000  O
  O292     1.0000 0.84863  0.39202  0.46915  Biso   1.000  O
  N291     1.0000 0.70736  0.35493  0.37518  Biso   1.000  N
  C436     1.0000 0.82515  0.38005  0.45913  Biso   1.000  C
  N292     1.0000 0.72983  0.35914  0.39385  Biso   1.000  N
  C437     1.0000 0.81024  0.39502  0.43317  Biso   1.000  C
  C438     1.0000 0.78393  0.38362  0.42133  Biso   1.000  C
  H146     1.0000 0.77460  0.36740  0.43060  Biso   1.000  H
  O293     1.0000 0.31313  0.85653  0.46912  Biso   1.000  O
  O294     1.0000 0.34863  0.89202  0.46915  Biso   1.000  O
  N293     1.0000 0.20736  0.85493  0.37518  Biso   1.000  N
  C439     1.0000 0.32515  0.88005  0.45913  Biso   1.000  C
  N294     1.0000 0.22983  0.85914  0.39385  Biso   1.000  N
  C440     1.0000 0.31024  0.89502  0.43317  Biso   1.000  C
  C441     1.0000 0.28393  0.88362  0.42133  Biso   1.000  C
  H147     1.0000 0.27460  0.86740  0.43060  Biso   1.000  H
  O295     1.0000 0.31313  0.35653  0.96912  Biso   1.000  O
  O296     1.0000 0.34863  0.39202  0.96915  Biso   1.000  O
  N295     1.0000 0.20736  0.35493  0.87518  Biso   1.000  N
  C442     1.0000 0.32515  0.38005  0.95913  Biso   1.000  C
  N296     1.0000 0.22983  0.35914  0.89385  Biso   1.000  N
  C443     1.0000 0.31024  0.39502  0.93317  Biso   1.000  C
  C444     1.0000 0.28393  0.38362  0.92133  Biso   1.000  C
  H148     1.0000 0.27460  0.36740  0.93060  Biso   1.000  H
  O297     1.0000 0.18687  0.14347  0.96912  Biso   1.000  O
  O298     1.0000 0.15137  0.10798  0.96915  Biso   1.000  O
  N297     1.0000 0.29264  0.14507  0.87518  Biso   1.000  N
  C445     1.0000 0.17485  0.11995  0.95913  Biso   1.000  C
  N298     1.0000 0.27017  0.14086  0.89385  Biso   1.000  N
  C446     1.0000 0.18976  0.10498  0.93317  Biso   1.000  C
  C447     1.0000 0.21607  0.11638  0.92133  Biso   1.000  C
  H149     1.0000 0.22540  0.13260  0.93060  Biso   1.000  H
  O299     1.0000 0.18687  0.64347  0.46912  Biso   1.000  O
  O300     1.0000 0.15137  0.60798  0.46915  Biso   1.000  O
  N299     1.0000 0.29264  0.64507  0.37518  Biso   1.000  N
  C448     1.0000 0.17485  0.61995  0.45913  Biso   1.000  C
  N300     1.0000 0.27017  0.64086  0.39385  Biso   1.000  N
  C449     1.0000 0.18976  0.60498  0.43317  Biso   1.000  C
  C450     1.0000 0.21607  0.61638  0.42133  Biso   1.000  C
  H150     1.0000 0.22540  0.63260  0.43060  Biso   1.000  H
  O301     1.0000 0.68687  0.14347  0.46912  Biso   1.000  O
  O302     1.0000 0.65137  0.10798  0.46915  Biso   1.000  O
  N301     1.0000 0.79264  0.14507  0.37518  Biso   1.000  N
  C451     1.0000 0.67485  0.11995  0.45913  Biso   1.000  C
  N302     1.0000 0.77017  0.14086  0.39385  Biso   1.000  N
  C452     1.0000 0.68976  0.10498  0.43317  Biso   1.000  C
  C453     1.0000 0.71607  0.11638  0.42133  Biso   1.000  C
  H151     1.0000 0.72540  0.13260  0.43060  Biso   1.000  H
  O303     1.0000 0.68687  0.64347  0.96912  Biso   1.000  O
  O304     1.0000 0.65137  0.60798  0.96915  Biso   1.000  O
  N303     1.0000 0.79264  0.64507  0.87518  Biso   1.000  N
  C454     1.0000 0.67485  0.61995  0.95913  Biso   1.000  C
  N304     1.0000 0.77017  0.64086  0.89385  Biso   1.000  N
  C455     1.0000 0.68976  0.60498  0.93317  Biso   1.000  C
  C456     1.0000 0.71607  0.61638  0.92133  Biso   1.000  C
  H152     1.0000 0.72540  0.63260  0.93060  Biso   1.000  H
  O305     1.0000 0.81313  0.14347  0.03088  Biso   1.000  O
  O306     1.0000 0.84863  0.10798  0.03085  Biso   1.000  O
  N305     1.0000 0.70736  0.14507  0.12482  Biso   1.000  N
  C457     1.0000 0.82515  0.11995  0.04087  Biso   1.000  C
  N306     1.0000 0.72983  0.14086  0.10615  Biso   1.000  N
  C458     1.0000 0.81024  0.10498  0.06683  Biso   1.000  C
  C459     1.0000 0.78393  0.11638  0.07867  Biso   1.000  C
  H153     1.0000 0.77460  0.13260  0.06940  Biso   1.000  H
  O307     1.0000 0.81313  0.64347  0.53088  Biso   1.000  O
  O308     1.0000 0.84863  0.60798  0.53085  Biso   1.000  O
  N307     1.0000 0.70736  0.64507  0.62482  Biso   1.000  N
  C460     1.0000 0.82515  0.61995  0.54087  Biso   1.000  C
  N308     1.0000 0.72983  0.64086  0.60615  Biso   1.000  N
  C461     1.0000 0.81024  0.60498  0.56683  Biso   1.000  C
  C462     1.0000 0.78393  0.61638  0.57867  Biso   1.000  C
  H154     1.0000 0.77460  0.63260  0.56940  Biso   1.000  H
  O309     1.0000 0.31313  0.14347  0.53088  Biso   1.000  O
  O310     1.0000 0.34863  0.10798  0.53085  Biso   1.000  O
  N309     1.0000 0.20736  0.14507  0.62482  Biso   1.000  N
  C463     1.0000 0.32515  0.11995  0.54087  Biso   1.000  C
  N310     1.0000 0.22983  0.14086  0.60615  Biso   1.000  N
  C464     1.0000 0.31024  0.10498  0.56683  Biso   1.000  C
  C465     1.0000 0.28393  0.11638  0.57867  Biso   1.000  C
  H155     1.0000 0.27460  0.13260  0.56940  Biso   1.000  H
  O311     1.0000 0.31313  0.64347  0.03088  Biso   1.000  O
  O312     1.0000 0.34863  0.60798  0.03085  Biso   1.000  O
  N311     1.0000 0.20736  0.64507  0.12482  Biso   1.000  N
  C466     1.0000 0.32515  0.61995  0.04087  Biso   1.000  C
  N312     1.0000 0.22983  0.64086  0.10615  Biso   1.000  N
  C467     1.0000 0.31024  0.60498  0.06683  Biso   1.000  C
  C468     1.0000 0.28393  0.61638  0.07867  Biso   1.000  C
  H156     1.0000 0.27460  0.63260  0.06940  Biso   1.000  H
  O313     1.0000 0.18687  0.85653  0.03088  Biso   1.000  O
  O314     1.0000 0.15137  0.89202  0.03085  Biso   1.000  O
  N313     1.0000 0.29264  0.85493  0.12482  Biso   1.000  N
  C469     1.0000 0.17485  0.88005  0.04087  Biso   1.000  C
  N314     1.0000 0.27017  0.85914  0.10615  Biso   1.000  N
  C470     1.0000 0.18976  0.89502  0.06683  Biso   1.000  C
  C471     1.0000 0.21607  0.88362  0.07867  Biso   1.000  C
  H157     1.0000 0.22540  0.86740  0.06940  Biso   1.000  H
  O315     1.0000 0.18687  0.35653  0.53088  Biso   1.000  O
  O316     1.0000 0.15137  0.39202  0.53085  Biso   1.000  O
  N315     1.0000 0.29264  0.35493  0.62482  Biso   1.000  N
  C472     1.0000 0.17485  0.38005  0.54087  Biso   1.000  C
  N316     1.0000 0.27017  0.35914  0.60615  Biso   1.000  N
  C473     1.0000 0.18976  0.39502  0.56683  Biso   1.000  C
  C474     1.0000 0.21607  0.38362  0.57867  Biso   1.000  C
  H158     1.0000 0.22540  0.36740  0.56940  Biso   1.000  H
  O317     1.0000 0.68687  0.85653  0.53088  Biso   1.000  O
  O318     1.0000 0.65137  0.89202  0.53085  Biso   1.000  O
  N317     1.0000 0.79264  0.85493  0.62482  Biso   1.000  N
  C475     1.0000 0.67485  0.88005  0.54087  Biso   1.000  C
  N318     1.0000 0.77017  0.85914  0.60615  Biso   1.000  N
  C476     1.0000 0.68976  0.89502  0.56683  Biso   1.000  C
  C477     1.0000 0.71607  0.88362  0.57867  Biso   1.000  C
  H159     1.0000 0.72540  0.86740  0.56940  Biso   1.000  H
  O319     1.0000 0.68687  0.35653  0.03088  Biso   1.000  O
  O320     1.0000 0.65137  0.39202  0.03085  Biso   1.000  O
  N319     1.0000 0.79264  0.35493  0.12482  Biso   1.000  N
  C478     1.0000 0.67485  0.38005  0.04087  Biso   1.000  C
  N320     1.0000 0.77017  0.35914  0.10615  Biso   1.000  N
  C479     1.0000 0.68976  0.39502  0.06683  Biso   1.000  C
  C480     1.0000 0.71607  0.38362  0.07867  Biso   1.000  C
  H160     1.0000 0.72540  0.36740  0.06940  Biso   1.000  H
  O321     1.0000 0.85653  0.03088  0.18687  Biso   1.000  O
  O322     1.0000 0.89202  0.03085  0.15137  Biso   1.000  O
  N321     1.0000 0.85493  0.12482  0.29264  Biso   1.000  N
  C481     1.0000 0.88005  0.04087  0.17485  Biso   1.000  C
  N322     1.0000 0.85914  0.10615  0.27017  Biso   1.000  N
  C482     1.0000 0.89502  0.06683  0.18976  Biso   1.000  C
  C483     1.0000 0.88362  0.07867  0.21607  Biso   1.000  C
  H161     1.0000 0.86740  0.06940  0.22540  Biso   1.000  H
  O323     1.0000 0.85653  0.53088  0.68687  Biso   1.000  O
  O324     1.0000 0.89202  0.53085  0.65137  Biso   1.000  O
  N323     1.0000 0.85493  0.62482  0.79264  Biso   1.000  N
  C484     1.0000 0.88005  0.54087  0.67485  Biso   1.000  C
  N324     1.0000 0.85914  0.60615  0.77017  Biso   1.000  N
  C485     1.0000 0.89502  0.56683  0.68976  Biso   1.000  C
  C486     1.0000 0.88362  0.57867  0.71607  Biso   1.000  C
  H162     1.0000 0.86740  0.56940  0.72540  Biso   1.000  H
  O325     1.0000 0.35653  0.03088  0.68687  Biso   1.000  O
  O326     1.0000 0.39202  0.03085  0.65137  Biso   1.000  O
  N325     1.0000 0.35493  0.12482  0.79264  Biso   1.000  N
  C487     1.0000 0.38005  0.04087  0.67485  Biso   1.000  C
  N326     1.0000 0.35914  0.10615  0.77017  Biso   1.000  N
  C488     1.0000 0.39502  0.06683  0.68976  Biso   1.000  C
  C489     1.0000 0.38362  0.07867  0.71607  Biso   1.000  C
  H163     1.0000 0.36740  0.06940  0.72540  Biso   1.000  H
  O327     1.0000 0.35653  0.53088  0.18687  Biso   1.000  O
  O328     1.0000 0.39202  0.53085  0.15137  Biso   1.000  O
  N327     1.0000 0.35493  0.62482  0.29264  Biso   1.000  N
  C490     1.0000 0.38005  0.54087  0.17485  Biso   1.000  C
  N328     1.0000 0.35914  0.60615  0.27017  Biso   1.000  N
  C491     1.0000 0.39502  0.56683  0.18976  Biso   1.000  C
  C492     1.0000 0.38362  0.57867  0.21607  Biso   1.000  C
  H164     1.0000 0.36740  0.56940  0.22540  Biso   1.000  H
  O329     1.0000 0.14347  0.03088  0.81313  Biso   1.000  O
  O330     1.0000 0.10798  0.03085  0.84863  Biso   1.000  O
  N329     1.0000 0.14507  0.12482  0.70736  Biso   1.000  N
  C493     1.0000 0.11995  0.04087  0.82515  Biso   1.000  C
  N330     1.0000 0.14086  0.10615  0.72983  Biso   1.000  N
  C494     1.0000 0.10498  0.06683  0.81024  Biso   1.000  C
  C495     1.0000 0.11638  0.07867  0.78393  Biso   1.000  C
  H165     1.0000 0.13260  0.06940  0.77460  Biso   1.000  H
  O331     1.0000 0.14347  0.53088  0.31313  Biso   1.000  O
  O332     1.0000 0.10798  0.53085  0.34863  Biso   1.000  O
  N331     1.0000 0.14507  0.62482  0.20736  Biso   1.000  N
  C496     1.0000 0.11995  0.54087  0.32515  Biso   1.000  C
  N332     1.0000 0.14086  0.60615  0.22983  Biso   1.000  N
  C497     1.0000 0.10498  0.56683  0.31024  Biso   1.000  C
  C498     1.0000 0.11638  0.57867  0.28393  Biso   1.000  C
  H166     1.0000 0.13260  0.56940  0.27460  Biso   1.000  H
  O333     1.0000 0.64347  0.03088  0.31313  Biso   1.000  O
  O334     1.0000 0.60798  0.03085  0.34863  Biso   1.000  O
  N333     1.0000 0.64507  0.12482  0.20736  Biso   1.000  N
  C499     1.0000 0.61995  0.04087  0.32515  Biso   1.000  C
  N334     1.0000 0.64086  0.10615  0.22983  Biso   1.000  N
  C500     1.0000 0.60498  0.06683  0.31024  Biso   1.000  C
  C501     1.0000 0.61638  0.07867  0.28393  Biso   1.000  C
  H167     1.0000 0.63260  0.06940  0.27460  Biso   1.000  H
  O335     1.0000 0.64347  0.53088  0.81313  Biso   1.000  O
  O336     1.0000 0.60798  0.53085  0.84863  Biso   1.000  O
  N335     1.0000 0.64507  0.62482  0.70736  Biso   1.000  N
  C502     1.0000 0.61995  0.54087  0.82515  Biso   1.000  C
  N336     1.0000 0.64086  0.60615  0.72983  Biso   1.000  N
  C503     1.0000 0.60498  0.56683  0.81024  Biso   1.000  C
  C504     1.0000 0.61638  0.57867  0.78393  Biso   1.000  C
  H168     1.0000 0.63260  0.56940  0.77460  Biso   1.000  H
  O337     1.0000 0.14347  0.96912  0.18687  Biso   1.000  O
  O338     1.0000 0.10798  0.96915  0.15137  Biso   1.000  O
  N337     1.0000 0.14507  0.87518  0.29264  Biso   1.000  N
  C505     1.0000 0.11995  0.95913  0.17485  Biso   1.000  C
  N338     1.0000 0.14086  0.89385  0.27017  Biso   1.000  N
  C506     1.0000 0.10498  0.93317  0.18976  Biso   1.000  C
  C507     1.0000 0.11638  0.92133  0.21607  Biso   1.000  C
  H169     1.0000 0.13260  0.93060  0.22540  Biso   1.000  H
  O339     1.0000 0.14347  0.46912  0.68687  Biso   1.000  O
  O340     1.0000 0.10798  0.46915  0.65137  Biso   1.000  O
  N339     1.0000 0.14507  0.37518  0.79264  Biso   1.000  N
  C508     1.0000 0.11995  0.45913  0.67485  Biso   1.000  C
  N340     1.0000 0.14086  0.39385  0.77017  Biso   1.000  N
  C509     1.0000 0.10498  0.43317  0.68976  Biso   1.000  C
  C510     1.0000 0.11638  0.42133  0.71607  Biso   1.000  C
  H170     1.0000 0.13260  0.43060  0.72540  Biso   1.000  H
  O341     1.0000 0.64347  0.96912  0.68687  Biso   1.000  O
  O342     1.0000 0.60798  0.96915  0.65137  Biso   1.000  O
  N341     1.0000 0.64507  0.87518  0.79264  Biso   1.000  N
  C511     1.0000 0.61995  0.95913  0.67485  Biso   1.000  C
  N342     1.0000 0.64086  0.89385  0.77017  Biso   1.000  N
  C512     1.0000 0.60498  0.93317  0.68976  Biso   1.000  C
  C513     1.0000 0.61638  0.92133  0.71607  Biso   1.000  C
  H171     1.0000 0.63260  0.93060  0.72540  Biso   1.000  H
  O343     1.0000 0.64347  0.46912  0.18687  Biso   1.000  O
  O344     1.0000 0.60798  0.46915  0.15137  Biso   1.000  O
  N343     1.0000 0.64507  0.37518  0.29264  Biso   1.000  N
  C514     1.0000 0.61995  0.45913  0.17485  Biso   1.000  C
  N344     1.0000 0.64086  0.39385  0.27017  Biso   1.000  N
  C515     1.0000 0.60498  0.43317  0.18976  Biso   1.000  C
  C516     1.0000 0.61638  0.42133  0.21607  Biso   1.000  C
  H172     1.0000 0.63260  0.43060  0.22540  Biso   1.000  H
  O345     1.0000 0.85653  0.96912  0.81313  Biso   1.000  O
  O346     1.0000 0.89202  0.96915  0.84863  Biso   1.000  O
  N345     1.0000 0.85493  0.87518  0.70736  Biso   1.000  N
  C517     1.0000 0.88005  0.95913  0.82515  Biso   1.000  C
  N346     1.0000 0.85914  0.89385  0.72983  Biso   1.000  N
  C518     1.0000 0.89502  0.93317  0.81024  Biso   1.000  C
  C519     1.0000 0.88362  0.92133  0.78393  Biso   1.000  C
  H173     1.0000 0.86740  0.93060  0.77460  Biso   1.000  H
  O347     1.0000 0.85653  0.46912  0.31313  Biso   1.000  O
  O348     1.0000 0.89202  0.46915  0.34863  Biso   1.000  O
  N347     1.0000 0.85493  0.37518  0.20736  Biso   1.000  N
  C520     1.0000 0.88005  0.45913  0.32515  Biso   1.000  C
  N348     1.0000 0.85914  0.39385  0.22983  Biso   1.000  N
  C521     1.0000 0.89502  0.43317  0.31024  Biso   1.000  C
  C522     1.0000 0.88362  0.42133  0.28393  Biso   1.000  C
  H174     1.0000 0.86740  0.43060  0.27460  Biso   1.000  H
  O349     1.0000 0.35653  0.96912  0.31313  Biso   1.000  O
  O350     1.0000 0.39202  0.96915  0.34863  Biso   1.000  O
  N349     1.0000 0.35493  0.87518  0.20736  Biso   1.000  N
  C523     1.0000 0.38005  0.95913  0.32515  Biso   1.000  C
  N350     1.0000 0.35914  0.89385  0.22983  Biso   1.000  N
  C524     1.0000 0.39502  0.93317  0.31024  Biso   1.000  C
  C525     1.0000 0.38362  0.92133  0.28393  Biso   1.000  C
  H175     1.0000 0.36740  0.93060  0.27460  Biso   1.000  H
  O351     1.0000 0.35653  0.46912  0.81313  Biso   1.000  O
  O352     1.0000 0.39202  0.46915  0.84863  Biso   1.000  O
  N351     1.0000 0.35493  0.37518  0.70736  Biso   1.000  N
  C526     1.0000 0.38005  0.45913  0.82515  Biso   1.000  C
  N352     1.0000 0.35914  0.39385  0.72983  Biso   1.000  N
  C527     1.0000 0.39502  0.43317  0.81024  Biso   1.000  C
  C528     1.0000 0.38362  0.42133  0.78393  Biso   1.000  C
  H176     1.0000 0.36740  0.43060  0.77460  Biso   1.000  H
  O353     1.0000 0.03088  0.81313  0.14347  Biso   1.000  O
  O354     1.0000 0.03085  0.84863  0.10798  Biso   1.000  O
  N353     1.0000 0.12482  0.70736  0.14507  Biso   1.000  N
  C529     1.0000 0.04087  0.82515  0.11995  Biso   1.000  C
  N354     1.0000 0.10615  0.72983  0.14086  Biso   1.000  N
  C530     1.0000 0.06683  0.81024  0.10498  Biso   1.000  C
  C531     1.0000 0.07867  0.78393  0.11638  Biso   1.000  C
  H177     1.0000 0.06940  0.77460  0.13260  Biso   1.000  H
  O355     1.0000 0.03088  0.31313  0.64347  Biso   1.000  O
  O356     1.0000 0.03085  0.34863  0.60798  Biso   1.000  O
  N355     1.0000 0.12482  0.20736  0.64507  Biso   1.000  N
  C532     1.0000 0.04087  0.32515  0.61995  Biso   1.000  C
  N356     1.0000 0.10615  0.22983  0.64086  Biso   1.000  N
  C533     1.0000 0.06683  0.31024  0.60498  Biso   1.000  C
  C534     1.0000 0.07867  0.28393  0.61638  Biso   1.000  C
  H178     1.0000 0.06940  0.27460  0.63260  Biso   1.000  H
  O357     1.0000 0.53088  0.81313  0.64347  Biso   1.000  O
  O358     1.0000 0.53085  0.84863  0.60798  Biso   1.000  O
  N357     1.0000 0.62482  0.70736  0.64507  Biso   1.000  N
  C535     1.0000 0.54087  0.82515  0.61995  Biso   1.000  C
  N358     1.0000 0.60615  0.72983  0.64086  Biso   1.000  N
  C536     1.0000 0.56683  0.81024  0.60498  Biso   1.000  C
  C537     1.0000 0.57867  0.78393  0.61638  Biso   1.000  C
  H179     1.0000 0.56940  0.77460  0.63260  Biso   1.000  H
  O359     1.0000 0.53088  0.31313  0.14347  Biso   1.000  O
  O360     1.0000 0.53085  0.34863  0.10798  Biso   1.000  O
  N359     1.0000 0.62482  0.20736  0.14507  Biso   1.000  N
  C538     1.0000 0.54087  0.32515  0.11995  Biso   1.000  C
  N360     1.0000 0.60615  0.22983  0.14086  Biso   1.000  N
  C539     1.0000 0.56683  0.31024  0.10498  Biso   1.000  C
  C540     1.0000 0.57867  0.28393  0.11638  Biso   1.000  C
  H180     1.0000 0.56940  0.27460  0.13260  Biso   1.000  H
  O361     1.0000 0.03088  0.18687  0.85653  Biso   1.000  O
  O362     1.0000 0.03085  0.15137  0.89202  Biso   1.000  O
  N361     1.0000 0.12482  0.29264  0.85493  Biso   1.000  N
  C541     1.0000 0.04087  0.17485  0.88005  Biso   1.000  C
  N362     1.0000 0.10615  0.27017  0.85914  Biso   1.000  N
  C542     1.0000 0.06683  0.18976  0.89502  Biso   1.000  C
  C543     1.0000 0.07867  0.21607  0.88362  Biso   1.000  C
  H181     1.0000 0.06940  0.22540  0.86740  Biso   1.000  H
  O363     1.0000 0.03088  0.68687  0.35653  Biso   1.000  O
  O364     1.0000 0.03085  0.65137  0.39202  Biso   1.000  O
  N363     1.0000 0.12482  0.79264  0.35493  Biso   1.000  N
  C544     1.0000 0.04087  0.67485  0.38005  Biso   1.000  C
  N364     1.0000 0.10615  0.77017  0.35914  Biso   1.000  N
  C545     1.0000 0.06683  0.68976  0.39502  Biso   1.000  C
  C546     1.0000 0.07867  0.71607  0.38362  Biso   1.000  C
  H182     1.0000 0.06940  0.72540  0.36740  Biso   1.000  H
  O365     1.0000 0.53088  0.18687  0.35653  Biso   1.000  O
  O366     1.0000 0.53085  0.15137  0.39202  Biso   1.000  O
  N365     1.0000 0.62482  0.29264  0.35493  Biso   1.000  N
  C547     1.0000 0.54087  0.17485  0.38005  Biso   1.000  C
  N366     1.0000 0.60615  0.27017  0.35914  Biso   1.000  N
  C548     1.0000 0.56683  0.18976  0.39502  Biso   1.000  C
  C549     1.0000 0.57867  0.21607  0.38362  Biso   1.000  C
  H183     1.0000 0.56940  0.22540  0.36740  Biso   1.000  H
  O367     1.0000 0.53088  0.68687  0.85653  Biso   1.000  O
  O368     1.0000 0.53085  0.65137  0.89202  Biso   1.000  O
  N367     1.0000 0.62482  0.79264  0.85493  Biso   1.000  N
  C550     1.0000 0.54087  0.67485  0.88005  Biso   1.000  C
  N368     1.0000 0.60615  0.77017  0.85914  Biso   1.000  N
  C551     1.0000 0.56683  0.68976  0.89502  Biso   1.000  C
  C552     1.0000 0.57867  0.71607  0.88362  Biso   1.000  C
  H184     1.0000 0.56940  0.72540  0.86740  Biso   1.000  H
  O369     1.0000 0.96912  0.81313  0.85653  Biso   1.000  O
  O370     1.0000 0.96915  0.84863  0.89202  Biso   1.000  O
  N369     1.0000 0.87518  0.70736  0.85493  Biso   1.000  N
  C553     1.0000 0.95913  0.82515  0.88005  Biso   1.000  C
  N370     1.0000 0.89385  0.72983  0.85914  Biso   1.000  N
  C554     1.0000 0.93317  0.81024  0.89502  Biso   1.000  C
  C555     1.0000 0.92133  0.78393  0.88362  Biso   1.000  C
  H185     1.0000 0.93060  0.77460  0.86740  Biso   1.000  H
  O371     1.0000 0.96912  0.31313  0.35653  Biso   1.000  O
  O372     1.0000 0.96915  0.34863  0.39202  Biso   1.000  O
  N371     1.0000 0.87518  0.20736  0.35493  Biso   1.000  N
  C556     1.0000 0.95913  0.32515  0.38005  Biso   1.000  C
  N372     1.0000 0.89385  0.22983  0.35914  Biso   1.000  N
  C557     1.0000 0.93317  0.31024  0.39502  Biso   1.000  C
  C558     1.0000 0.92133  0.28393  0.38362  Biso   1.000  C
  H186     1.0000 0.93060  0.27460  0.36740  Biso   1.000  H
  O373     1.0000 0.46912  0.81313  0.35653  Biso   1.000  O
  O374     1.0000 0.46915  0.84863  0.39202  Biso   1.000  O
  N373     1.0000 0.37518  0.70736  0.35493  Biso   1.000  N
  C559     1.0000 0.45913  0.82515  0.38005  Biso   1.000  C
  N374     1.0000 0.39385  0.72983  0.35914  Biso   1.000  N
  C560     1.0000 0.43317  0.81024  0.39502  Biso   1.000  C
  C561     1.0000 0.42133  0.78393  0.38362  Biso   1.000  C
  H187     1.0000 0.43060  0.77460  0.36740  Biso   1.000  H
  O375     1.0000 0.46912  0.31313  0.85653  Biso   1.000  O
  O376     1.0000 0.46915  0.34863  0.89202  Biso   1.000  O
  N375     1.0000 0.37518  0.20736  0.85493  Biso   1.000  N
  C562     1.0000 0.45913  0.32515  0.88005  Biso   1.000  C
  N376     1.0000 0.39385  0.22983  0.85914  Biso   1.000  N
  C563     1.0000 0.43317  0.31024  0.89502  Biso   1.000  C
  C564     1.0000 0.42133  0.28393  0.88362  Biso   1.000  C
  H188     1.0000 0.43060  0.27460  0.86740  Biso   1.000  H
  O377     1.0000 0.96912  0.18687  0.14347  Biso   1.000  O
  O378     1.0000 0.96915  0.15137  0.10798  Biso   1.000  O
  N377     1.0000 0.87518  0.29264  0.14507  Biso   1.000  N
  C565     1.0000 0.95913  0.17485  0.11995  Biso   1.000  C
  N378     1.0000 0.89385  0.27017  0.14086  Biso   1.000  N
  C566     1.0000 0.93317  0.18976  0.10498  Biso   1.000  C
  C567     1.0000 0.92133  0.21607  0.11638  Biso   1.000  C
  H189     1.0000 0.93060  0.22540  0.13260  Biso   1.000  H
  O379     1.0000 0.96912  0.68687  0.64347  Biso   1.000  O
  O380     1.0000 0.96915  0.65137  0.60798  Biso   1.000  O
  N379     1.0000 0.87518  0.79264  0.64507  Biso   1.000  N
  C568     1.0000 0.95913  0.67485  0.61995  Biso   1.000  C
  N380     1.0000 0.89385  0.77017  0.64086  Biso   1.000  N
  C569     1.0000 0.93317  0.68976  0.60498  Biso   1.000  C
  C570     1.0000 0.92133  0.71607  0.61638  Biso   1.000  C
  H190     1.0000 0.93060  0.72540  0.63260  Biso   1.000  H
  O381     1.0000 0.46912  0.18687  0.64347  Biso   1.000  O
  O382     1.0000 0.46915  0.15137  0.60798  Biso   1.000  O
  N381     1.0000 0.37518  0.29264  0.64507  Biso   1.000  N
  C571     1.0000 0.45913  0.17485  0.61995  Biso   1.000  C
  N382     1.0000 0.39385  0.27017  0.64086  Biso   1.000  N
  C572     1.0000 0.43317  0.18976  0.60498  Biso   1.000  C
  C573     1.0000 0.42133  0.21607  0.61638  Biso   1.000  C
  H191     1.0000 0.43060  0.22540  0.63260  Biso   1.000  H
  O383     1.0000 0.46912  0.68687  0.14347  Biso   1.000  O
  O384     1.0000 0.46915  0.65137  0.10798  Biso   1.000  O
  N383     1.0000 0.37518  0.79264  0.14507  Biso   1.000  N
  C574     1.0000 0.45913  0.67485  0.11995  Biso   1.000  C
  N384     1.0000 0.39385  0.77017  0.14086  Biso   1.000  N
  C575     1.0000 0.43317  0.68976  0.10498  Biso   1.000  C
  C576     1.0000 0.42133  0.71607  0.11638  Biso   1.000  C
  H192     1.0000 0.43060  0.72540  0.13260  Biso   1.000  H
  Cu1      1.0000 0.16838  0.16838  0.00000  Biso   1.000  Cu
  Cu2      1.0000 0.12647  0.12647  0.00000  Biso   1.000  Cu
  Cu3      1.0000 0.16838  0.66838  0.50000  Biso   1.000  Cu
  Cu4      1.0000 0.12647  0.62647  0.50000  Biso   1.000  Cu
  Cu5      1.0000 0.66838  0.16838  0.50000  Biso   1.000  Cu
  Cu6      1.0000 0.62647  0.12647  0.50000  Biso   1.000  Cu
  Cu7      1.0000 0.66838  0.66838  0.00000  Biso   1.000  Cu
  Cu8      1.0000 0.62647  0.62647  0.00000  Biso   1.000  Cu
  Cu9      1.0000 0.83162  0.83162  0.00000  Biso   1.000  Cu
  Cu10     1.0000 0.87353  0.87353  0.00000  Biso   1.000  Cu
  Cu11     1.0000 0.83162  0.33162  0.50000  Biso   1.000  Cu
  Cu12     1.0000 0.87353  0.37353  0.50000  Biso   1.000  Cu
  Cu13     1.0000 0.33162  0.83162  0.50000  Biso   1.000  Cu
  Cu14     1.0000 0.37353  0.87353  0.50000  Biso   1.000  Cu
  Cu15     1.0000 0.33162  0.33162  0.00000  Biso   1.000  Cu
  Cu16     1.0000 0.37353  0.37353  0.00000  Biso   1.000  Cu
  Cu17     1.0000 0.83162  0.16838  0.00000  Biso   1.000  Cu
  Cu18     1.0000 0.87353  0.12647  0.00000  Biso   1.000  Cu
  Cu19     1.0000 0.83162  0.66838  0.50000  Biso   1.000  Cu
  Cu20     1.0000 0.87353  0.62647  0.50000  Biso   1.000  Cu
  Cu21     1.0000 0.33162  0.16838  0.50000  Biso   1.000  Cu
  Cu22     1.0000 0.37353  0.12647  0.50000  Biso   1.000  Cu
  Cu23     1.0000 0.33162  0.66838  0.00000  Biso   1.000  Cu
  Cu24     1.0000 0.37353  0.62647  0.00000  Biso   1.000  Cu
  Cu25     1.0000 0.16838  0.83162  0.00000  Biso   1.000  Cu
  Cu26     1.0000 0.12647  0.87353  0.00000  Biso   1.000  Cu
  Cu27     1.0000 0.16838  0.33162  0.50000  Biso   1.000  Cu
  Cu28     1.0000 0.12647  0.37353  0.50000  Biso   1.000  Cu
  Cu29     1.0000 0.66838  0.83162  0.50000  Biso   1.000  Cu
  Cu30     1.0000 0.62647  0.87353  0.50000  Biso   1.000  Cu
  Cu31     1.0000 0.66838  0.33162  0.00000  Biso   1.000  Cu
  Cu32     1.0000 0.62647  0.37353  0.00000  Biso   1.000  Cu
  Cu33     1.0000 0.00000  0.16838  0.16838  Biso   1.000  Cu
  Cu34     1.0000 0.00000  0.12647  0.12647  Biso   1.000  Cu
  Cu35     1.0000 0.00000  0.66838  0.66838  Biso   1.000  Cu
  Cu36     1.0000 0.00000  0.62647  0.62647  Biso   1.000  Cu
  Cu37     1.0000 0.50000  0.16838  0.66838  Biso   1.000  Cu
  Cu38     1.0000 0.50000  0.12647  0.62647  Biso   1.000  Cu
  Cu39     1.0000 0.50000  0.66838  0.16838  Biso   1.000  Cu
  Cu40     1.0000 0.50000  0.62647  0.12647  Biso   1.000  Cu
  Cu41     1.0000 0.00000  0.83162  0.83162  Biso   1.000  Cu
  Cu42     1.0000 0.00000  0.87353  0.87353  Biso   1.000  Cu
  Cu43     1.0000 0.00000  0.33162  0.33162  Biso   1.000  Cu
  Cu44     1.0000 0.00000  0.37353  0.37353  Biso   1.000  Cu
  Cu45     1.0000 0.50000  0.83162  0.33162  Biso   1.000  Cu
  Cu46     1.0000 0.50000  0.87353  0.37353  Biso   1.000  Cu
  Cu47     1.0000 0.50000  0.33162  0.83162  Biso   1.000  Cu
  Cu48     1.0000 0.50000  0.37353  0.87353  Biso   1.000  Cu
  Cu49     1.0000 0.00000  0.83162  0.16838  Biso   1.000  Cu
  Cu50     1.0000 0.00000  0.87353  0.12647  Biso   1.000  Cu
  Cu51     1.0000 0.00000  0.33162  0.66838  Biso   1.000  Cu
  Cu52     1.0000 0.00000  0.37353  0.62647  Biso   1.000  Cu
  Cu53     1.0000 0.50000  0.83162  0.66838  Biso   1.000  Cu
  Cu54     1.0000 0.50000  0.87353  0.62647  Biso   1.000  Cu
  Cu55     1.0000 0.50000  0.33162  0.16838  Biso   1.000  Cu
  Cu56     1.0000 0.50000  0.37353  0.12647  Biso   1.000  Cu
  Cu57     1.0000 0.00000  0.16838  0.83162  Biso   1.000  Cu
  Cu58     1.0000 0.00000  0.12647  0.87353  Biso   1.000  Cu
  Cu59     1.0000 0.00000  0.66838  0.33162  Biso   1.000  Cu
  Cu60     1.0000 0.00000  0.62647  0.37353  Biso   1.000  Cu
  Cu61     1.0000 0.50000  0.16838  0.33162  Biso   1.000  Cu
  Cu62     1.0000 0.50000  0.12647  0.37353  Biso   1.000  Cu
  Cu63     1.0000 0.50000  0.66838  0.83162  Biso   1.000  Cu
  Cu64     1.0000 0.50000  0.62647  0.87353  Biso   1.000  Cu
  Cu65     1.0000 0.16838  0.00000  0.16838  Biso   1.000  Cu
  Cu66     1.0000 0.12647  0.00000  0.12647  Biso   1.000  Cu
  Cu67     1.0000 0.16838  0.50000  0.66838  Biso   1.000  Cu
  Cu68     1.0000 0.12647  0.50000  0.62647  Biso   1.000  Cu
  Cu69     1.0000 0.66838  0.00000  0.66838  Biso   1.000  Cu
  Cu70     1.0000 0.62647  0.00000  0.62647  Biso   1.000  Cu
  Cu71     1.0000 0.66838  0.50000  0.16838  Biso   1.000  Cu
  Cu72     1.0000 0.62647  0.50000  0.12647  Biso   1.000  Cu
  Cu73     1.0000 0.83162  0.00000  0.83162  Biso   1.000  Cu
  Cu74     1.0000 0.87353  0.00000  0.87353  Biso   1.000  Cu
  Cu75     1.0000 0.83162  0.50000  0.33162  Biso   1.000  Cu
  Cu76     1.0000 0.87353  0.50000  0.37353  Biso   1.000  Cu
  Cu77     1.0000 0.33162  0.00000  0.33162  Biso   1.000  Cu
  Cu78     1.0000 0.37353  0.00000  0.37353  Biso   1.000  Cu
  Cu79     1.0000 0.33162  0.50000  0.83162  Biso   1.000  Cu
  Cu80     1.0000 0.37353  0.50000  0.87353  Biso   1.000  Cu
  Cu81     1.0000 0.16838  0.00000  0.83162  Biso   1.000  Cu
  Cu82     1.0000 0.12647  0.00000  0.87353  Biso   1.000  Cu
  Cu83     1.0000 0.16838  0.50000  0.33162  Biso   1.000  Cu
  Cu84     1.0000 0.12647  0.50000  0.37353  Biso   1.000  Cu
  Cu85     1.0000 0.66838  0.00000  0.33162  Biso   1.000  Cu
  Cu86     1.0000 0.62647  0.00000  0.37353  Biso   1.000  Cu
  Cu87     1.0000 0.66838  0.50000  0.83162  Biso   1.000  Cu
  Cu88     1.0000 0.62647  0.50000  0.87353  Biso   1.000  Cu
  Cu89     1.0000 0.83162  0.00000  0.16838  Biso   1.000  Cu
  Cu90     1.0000 0.87353  0.00000  0.12647  Biso   1.000  Cu
  Cu91     1.0000 0.83162  0.50000  0.66838  Biso   1.000  Cu
  Cu92     1.0000 0.87353  0.50000  0.62647  Biso   1.000  Cu
  Cu93     1.0000 0.33162  0.00000  0.66838  Biso   1.000  Cu
  Cu94     1.0000 0.37353  0.00000  0.62647  Biso   1.000  Cu
  Cu95     1.0000 0.33162  0.50000  0.16838  Biso   1.000  Cu
  Cu96     1.0000 0.37353  0.50000  0.12647  Biso   1.000  Cu
  Cu97     1.0000 0.17617  0.32383  0.87714  Biso   1.000  Cu
  Cu98     1.0000 0.17617  0.82383  0.37714  Biso   1.000  Cu
  Cu99     1.0000 0.82383  0.67617  0.87714  Biso   1.000  Cu
  Cu100    1.0000 0.82383  0.17617  0.37714  Biso   1.000  Cu
  Cu101    1.0000 0.32383  0.17617  0.87714  Biso   1.000  Cu
  Cu102    1.0000 0.82383  0.32383  0.12286  Biso   1.000  Cu
  Cu103    1.0000 0.82383  0.82383  0.62286  Biso   1.000  Cu
  Cu104    1.0000 0.32383  0.32383  0.62286  Biso   1.000  Cu
  Cu105    1.0000 0.17617  0.67617  0.12286  Biso   1.000  Cu
  Cu106    1.0000 0.17617  0.17617  0.62286  Biso   1.000  Cu
  Cu107    1.0000 0.87714  0.17617  0.32383  Biso   1.000  Cu
  Cu108    1.0000 0.37714  0.17617  0.82383  Biso   1.000  Cu
  Cu109    1.0000 0.87714  0.82383  0.67617  Biso   1.000  Cu
  Cu110    1.0000 0.87714  0.32383  0.17617  Biso   1.000  Cu
  Cu111    1.0000 0.37714  0.82383  0.17617  Biso   1.000  Cu
  Cu112    1.0000 0.12286  0.82383  0.32383  Biso   1.000  Cu
  Cu113    1.0000 0.62286  0.82383  0.82383  Biso   1.000  Cu
  Cu114    1.0000 0.62286  0.32383  0.32383  Biso   1.000  Cu
  Cu115    1.0000 0.12286  0.17617  0.67617  Biso   1.000  Cu
  Cu116    1.0000 0.62286  0.17617  0.17617  Biso   1.000  Cu
  Cu117    1.0000 0.32383  0.87714  0.17617  Biso   1.000  Cu
  Cu118    1.0000 0.32383  0.37714  0.67617  Biso   1.000  Cu
  Cu119    1.0000 0.67617  0.87714  0.82383  Biso   1.000  Cu
  Cu120    1.0000 0.67617  0.37714  0.32383  Biso   1.000  Cu
  Cu121    1.0000 0.17617  0.87714  0.32383  Biso   1.000  Cu
  Cu122    1.0000 0.32383  0.12286  0.82383  Biso   1.000  Cu
  Cu123    1.0000 0.32383  0.62286  0.32383  Biso   1.000  Cu
  Cu124    1.0000 0.67617  0.12286  0.17617  Biso   1.000  Cu
  Cu125    1.0000 0.67617  0.62286  0.67617  Biso   1.000  Cu
  Cu126    1.0000 0.17617  0.62286  0.17617  Biso   1.000  Cu
  Cu127    1.0000 0.32383  0.17617  0.12286  Biso   1.000  Cu
  Cu128    1.0000 0.32383  0.67617  0.62286  Biso   1.000  Cu
  Cu129    1.0000 0.67617  0.82383  0.12286  Biso   1.000  Cu
  Cu130    1.0000 0.67617  0.32383  0.62286  Biso   1.000  Cu
  Cu131    1.0000 0.17617  0.32383  0.12286  Biso   1.000  Cu
  Cu132    1.0000 0.32383  0.82383  0.87714  Biso   1.000  Cu
  Cu133    1.0000 0.32383  0.32383  0.37714  Biso   1.000  Cu
  Cu134    1.0000 0.67617  0.17617  0.87714  Biso   1.000  Cu
  Cu135    1.0000 0.67617  0.67617  0.37714  Biso   1.000  Cu
  Cu136    1.0000 0.17617  0.17617  0.37714  Biso   1.000  Cu
  Cu137    1.0000 0.17617  0.87714  0.67617  Biso   1.000  Cu
  Cu138    1.0000 0.17617  0.37714  0.17617  Biso   1.000  Cu
  Cu139    1.0000 0.82383  0.87714  0.32383  Biso   1.000  Cu
  Cu140    1.0000 0.82383  0.37714  0.82383  Biso   1.000  Cu
  Cu141    1.0000 0.32383  0.37714  0.32383  Biso   1.000  Cu
  Cu142    1.0000 0.82383  0.12286  0.67617  Biso   1.000  Cu
  Cu143    1.0000 0.82383  0.62286  0.17617  Biso   1.000  Cu
  Cu144    1.0000 0.32383  0.12286  0.17617  Biso   1.000  Cu
  Cu145    1.0000 0.17617  0.12286  0.32383  Biso   1.000  Cu
  Cu146    1.0000 0.17617  0.62286  0.82383  Biso   1.000  Cu
  Cu147    1.0000 0.87714  0.32383  0.82383  Biso   1.000  Cu
  Cu148    1.0000 0.37714  0.32383  0.32383  Biso   1.000  Cu
  Cu149    1.0000 0.87714  0.67617  0.17617  Biso   1.000  Cu
  Cu150    1.0000 0.37714  0.67617  0.67617  Biso   1.000  Cu
  Cu151    1.0000 0.37714  0.17617  0.17617  Biso   1.000  Cu
  Cu152    1.0000 0.12286  0.32383  0.17617  Biso   1.000  Cu
  Cu153    1.0000 0.62286  0.32383  0.67617  Biso   1.000  Cu
  Cu154    1.0000 0.12286  0.67617  0.82383  Biso   1.000  Cu
  Cu155    1.0000 0.12286  0.17617  0.32383  Biso   1.000  Cu
  Cu156    1.0000 0.62286  0.67617  0.32383  Biso   1.000  Cu
  Cu157    1.0000 0.82383  0.67617  0.12286  Biso   1.000  Cu
  Cu158    1.0000 0.82383  0.17617  0.62286  Biso   1.000  Cu
  Cu159    1.0000 0.17617  0.82383  0.62286  Biso   1.000  Cu
  Cu160    1.0000 0.17617  0.67617  0.87714  Biso   1.000  Cu
  Cu161    1.0000 0.82383  0.32383  0.87714  Biso   1.000  Cu
  Cu162    1.0000 0.82383  0.82383  0.37714  Biso   1.000  Cu
  Cu163    1.0000 0.12286  0.82383  0.67617  Biso   1.000  Cu
  Cu164    1.0000 0.62286  0.82383  0.17617  Biso   1.000  Cu
  Cu165    1.0000 0.62286  0.17617  0.82383  Biso   1.000  Cu
  Cu166    1.0000 0.87714  0.17617  0.67617  Biso   1.000  Cu
  Cu167    1.0000 0.87714  0.82383  0.32383  Biso   1.000  Cu
  Cu168    1.0000 0.37714  0.82383  0.82383  Biso   1.000  Cu
  Cu169    1.0000 0.67617  0.12286  0.82383  Biso   1.000  Cu
  Cu170    1.0000 0.67617  0.62286  0.32383  Biso   1.000  Cu
  Cu171    1.0000 0.32383  0.62286  0.67617  Biso   1.000  Cu
  Cu172    1.0000 0.67617  0.87714  0.17617  Biso   1.000  Cu
  Cu173    1.0000 0.67617  0.37714  0.67617  Biso   1.000  Cu
  Cu174    1.0000 0.32383  0.87714  0.82383  Biso   1.000  Cu
  Cu175    1.0000 0.67617  0.82383  0.87714  Biso   1.000  Cu
  Cu176    1.0000 0.67617  0.32383  0.37714  Biso   1.000  Cu
  Cu177    1.0000 0.32383  0.67617  0.37714  Biso   1.000  Cu
  Cu178    1.0000 0.67617  0.17617  0.12286  Biso   1.000  Cu
  Cu179    1.0000 0.67617  0.67617  0.62286  Biso   1.000  Cu
  Cu180    1.0000 0.32383  0.82383  0.12286  Biso   1.000  Cu
  Cu181    1.0000 0.82383  0.12286  0.32383  Biso   1.000  Cu
  Cu182    1.0000 0.82383  0.62286  0.82383  Biso   1.000  Cu
  Cu183    1.0000 0.17617  0.12286  0.67617  Biso   1.000  Cu
  Cu184    1.0000 0.17617  0.37714  0.82383  Biso   1.000  Cu
  Cu185    1.0000 0.82383  0.87714  0.67617  Biso   1.000  Cu
  Cu186    1.0000 0.82383  0.37714  0.17617  Biso   1.000  Cu
  Cu187    1.0000 0.12286  0.67617  0.17617  Biso   1.000  Cu
  Cu188    1.0000 0.62286  0.67617  0.67617  Biso   1.000  Cu
  Cu189    1.0000 0.12286  0.32383  0.82383  Biso   1.000  Cu
  Cu190    1.0000 0.87714  0.67617  0.82383  Biso   1.000  Cu
  Cu191    1.0000 0.37714  0.67617  0.32383  Biso   1.000  Cu
  Cu192    1.0000 0.37714  0.32383  0.67617  Biso   1.000  Cu
  O385     1.0000 0.16519  0.33481  0.83481  Biso   1.000  O
  O386     1.0000 0.83481  0.66519  0.83481  Biso   1.000  O
  O387     1.0000 0.83481  0.16519  0.33481  Biso   1.000  O
  O388     1.0000 0.33481  0.16519  0.83481  Biso   1.000  O
  O389     1.0000 0.83481  0.33481  0.16519  Biso   1.000  O
  O390     1.0000 0.33481  0.33481  0.66519  Biso   1.000  O
  O391     1.0000 0.16519  0.66519  0.16519  Biso   1.000  O
  O392     1.0000 0.33481  0.66519  0.33481  Biso   1.000  O
  O393     1.0000 0.83481  0.83481  0.66519  Biso   1.000  O
  O394     1.0000 0.33481  0.83481  0.16519  Biso   1.000  O
  O395     1.0000 0.16519  0.83481  0.33481  Biso   1.000  O
  O396     1.0000 0.16519  0.16519  0.66519  Biso   1.000  O
  O397     1.0000 0.66519  0.83481  0.83481  Biso   1.000  O
  O398     1.0000 0.66519  0.33481  0.33481  Biso   1.000  O
  O399     1.0000 0.66519  0.16519  0.16519  Biso   1.000  O
  O400     1.0000 0.66519  0.66519  0.66519  Biso   1.000  O
  O401     1.0000 0.33481  0.16519  0.16519  Biso   1.000  O
  O402     1.0000 0.33481  0.66519  0.66519  Biso   1.000  O
  O403     1.0000 0.66519  0.83481  0.16519  Biso   1.000  O
  O404     1.0000 0.66519  0.33481  0.66519  Biso   1.000  O
  O405     1.0000 0.16519  0.33481  0.16519  Biso   1.000  O
  O406     1.0000 0.33481  0.83481  0.83481  Biso   1.000  O
  O407     1.0000 0.33481  0.33481  0.33481  Biso   1.000  O
  O408     1.0000 0.66519  0.16519  0.83481  Biso   1.000  O
  O409     1.0000 0.66519  0.66519  0.33481  Biso   1.000  O
  O410     1.0000 0.16519  0.16519  0.33481  Biso   1.000  O
  O411     1.0000 0.16519  0.83481  0.66519  Biso   1.000  O
  O412     1.0000 0.83481  0.83481  0.33481  Biso   1.000  O
  O413     1.0000 0.83481  0.16519  0.66519  Biso   1.000  O
  O414     1.0000 0.83481  0.33481  0.83481  Biso   1.000  O
  O415     1.0000 0.83481  0.66519  0.16519  Biso   1.000  O
  O416     1.0000 0.16519  0.66519  0.83481  Biso   1.000  O
  C577     1.0000 0.10395  0.22840  0.89605  Biso   1.000  C
  C578     1.0000 0.08002  0.17697  0.91998  Biso   1.000  C
  H193     1.0000 0.07200  0.15950  0.92800  Biso   1.000  H
  C579     1.0000 0.11683  0.25680  0.88317  Biso   1.000  C
  C580     1.0000 0.10395  0.72840  0.39605  Biso   1.000  C
  C581     1.0000 0.08002  0.67697  0.41998  Biso   1.000  C
  H194     1.0000 0.07200  0.65950  0.42800  Biso   1.000  H
  C582     1.0000 0.11683  0.75680  0.38317  Biso   1.000  C
  C583     1.0000 0.60395  0.22840  0.39605  Biso   1.000  C
  C584     1.0000 0.58002  0.17697  0.41998  Biso   1.000  C
  H195     1.0000 0.57200  0.15950  0.42800  Biso   1.000  H
  C585     1.0000 0.61683  0.25680  0.38317  Biso   1.000  C
  C586     1.0000 0.60395  0.72840  0.89605  Biso   1.000  C
  C587     1.0000 0.58002  0.67697  0.91998  Biso   1.000  C
  H196     1.0000 0.57200  0.65950  0.92800  Biso   1.000  H
  C588     1.0000 0.61683  0.75680  0.88317  Biso   1.000  C
  C589     1.0000 0.89605  0.77160  0.89605  Biso   1.000  C
  C590     1.0000 0.91998  0.82303  0.91998  Biso   1.000  C
  H197     1.0000 0.92800  0.84050  0.92800  Biso   1.000  H
  C591     1.0000 0.88317  0.74320  0.88317  Biso   1.000  C
  C592     1.0000 0.89605  0.27160  0.39605  Biso   1.000  C
  C593     1.0000 0.91998  0.32303  0.41998  Biso   1.000  C
  H198     1.0000 0.92800  0.34050  0.42800  Biso   1.000  H
  C594     1.0000 0.88317  0.24320  0.38317  Biso   1.000  C
  C595     1.0000 0.39605  0.77160  0.39605  Biso   1.000  C
  C596     1.0000 0.41998  0.82303  0.41998  Biso   1.000  C
  H199     1.0000 0.42800  0.84050  0.42800  Biso   1.000  H
  C597     1.0000 0.38317  0.74320  0.38317  Biso   1.000  C
  C598     1.0000 0.39605  0.27160  0.89605  Biso   1.000  C
  C599     1.0000 0.41998  0.32303  0.91998  Biso   1.000  C
  H200     1.0000 0.42800  0.34050  0.92800  Biso   1.000  H
  C600     1.0000 0.38317  0.24320  0.88317  Biso   1.000  C
  C601     1.0000 0.89605  0.22840  0.10395  Biso   1.000  C
  C602     1.0000 0.91998  0.17697  0.08002  Biso   1.000  C
  H201     1.0000 0.92800  0.15950  0.07200  Biso   1.000  H
  C603     1.0000 0.88317  0.25680  0.11683  Biso   1.000  C
  C604     1.0000 0.89605  0.72840  0.60395  Biso   1.000  C
  C605     1.0000 0.91998  0.67697  0.58002  Biso   1.000  C
  H202     1.0000 0.92800  0.65950  0.57200  Biso   1.000  H
  C606     1.0000 0.88317  0.75680  0.61683  Biso   1.000  C
  C607     1.0000 0.39605  0.22840  0.60395  Biso   1.000  C
  C608     1.0000 0.41998  0.17697  0.58002  Biso   1.000  C
  H203     1.0000 0.42800  0.15950  0.57200  Biso   1.000  H
  C609     1.0000 0.38317  0.25680  0.61683  Biso   1.000  C
  C610     1.0000 0.39605  0.72840  0.10395  Biso   1.000  C
  C611     1.0000 0.41998  0.67697  0.08002  Biso   1.000  C
  H204     1.0000 0.42800  0.65950  0.07200  Biso   1.000  H
  C612     1.0000 0.38317  0.75680  0.11683  Biso   1.000  C
  C613     1.0000 0.10395  0.77160  0.10395  Biso   1.000  C
  C614     1.0000 0.08002  0.82303  0.08002  Biso   1.000  C
  H205     1.0000 0.07200  0.84050  0.07200  Biso   1.000  H
  C615     1.0000 0.11683  0.74320  0.11683  Biso   1.000  C
  C616     1.0000 0.10395  0.27160  0.60395  Biso   1.000  C
  C617     1.0000 0.08002  0.32303  0.58002  Biso   1.000  C
  H206     1.0000 0.07200  0.34050  0.57200  Biso   1.000  H
  C618     1.0000 0.11683  0.24320  0.61683  Biso   1.000  C
  C619     1.0000 0.60395  0.77160  0.60395  Biso   1.000  C
  C620     1.0000 0.58002  0.82303  0.58002  Biso   1.000  C
  H207     1.0000 0.57200  0.84050  0.57200  Biso   1.000  H
  C621     1.0000 0.61683  0.74320  0.61683  Biso   1.000  C
  C622     1.0000 0.60395  0.27160  0.10395  Biso   1.000  C
  C623     1.0000 0.58002  0.32303  0.08002  Biso   1.000  C
  H208     1.0000 0.57200  0.34050  0.07200  Biso   1.000  H
  C624     1.0000 0.61683  0.24320  0.11683  Biso   1.000  C
  C625     1.0000 0.89605  0.10395  0.22840  Biso   1.000  C
  C626     1.0000 0.91998  0.08002  0.17697  Biso   1.000  C
  H209     1.0000 0.92800  0.07200  0.15950  Biso   1.000  H
  C627     1.0000 0.88317  0.11683  0.25680  Biso   1.000  C
  C628     1.0000 0.89605  0.60395  0.72840  Biso   1.000  C
  C629     1.0000 0.91998  0.58002  0.67697  Biso   1.000  C
  H210     1.0000 0.92800  0.57200  0.65950  Biso   1.000  H
  C630     1.0000 0.88317  0.61683  0.75680  Biso   1.000  C
  C631     1.0000 0.39605  0.10395  0.72840  Biso   1.000  C
  C632     1.0000 0.41998  0.08002  0.67697  Biso   1.000  C
  H211     1.0000 0.42800  0.07200  0.65950  Biso   1.000  H
  C633     1.0000 0.38317  0.11683  0.75680  Biso   1.000  C
  C634     1.0000 0.39605  0.60395  0.22840  Biso   1.000  C
  C635     1.0000 0.41998  0.58002  0.17697  Biso   1.000  C
  H212     1.0000 0.42800  0.57200  0.15950  Biso   1.000  H
  C636     1.0000 0.38317  0.61683  0.25680  Biso   1.000  C
  C637     1.0000 0.89605  0.89605  0.77160  Biso   1.000  C
  C638     1.0000 0.91998  0.91998  0.82303  Biso   1.000  C
  H213     1.0000 0.92800  0.92800  0.84050  Biso   1.000  H
  C639     1.0000 0.88317  0.88317  0.74320  Biso   1.000  C
  C640     1.0000 0.89605  0.39605  0.27160  Biso   1.000  C
  C641     1.0000 0.91998  0.41998  0.32303  Biso   1.000  C
  H214     1.0000 0.92800  0.42800  0.34050  Biso   1.000  H
  C642     1.0000 0.88317  0.38317  0.24320  Biso   1.000  C
  C643     1.0000 0.39605  0.89605  0.27160  Biso   1.000  C
  C644     1.0000 0.41998  0.91998  0.32303  Biso   1.000  C
  H215     1.0000 0.42800  0.92800  0.34050  Biso   1.000  H
  C645     1.0000 0.38317  0.88317  0.24320  Biso   1.000  C
  C646     1.0000 0.39605  0.39605  0.77160  Biso   1.000  C
  C647     1.0000 0.41998  0.41998  0.82303  Biso   1.000  C
  H216     1.0000 0.42800  0.42800  0.84050  Biso   1.000  H
  C648     1.0000 0.38317  0.38317  0.74320  Biso   1.000  C
  C649     1.0000 0.10395  0.89605  0.22840  Biso   1.000  C
  C650     1.0000 0.08002  0.91998  0.17697  Biso   1.000  C
  H217     1.0000 0.07200  0.92800  0.15950  Biso   1.000  H
  C651     1.0000 0.11683  0.88317  0.25680  Biso   1.000  C
  C652     1.0000 0.10395  0.39605  0.72840  Biso   1.000  C
  C653     1.0000 0.08002  0.41998  0.67697  Biso   1.000  C
  H218     1.0000 0.07200  0.42800  0.65950  Biso   1.000  H
  C654     1.0000 0.11683  0.38317  0.75680  Biso   1.000  C
  C655     1.0000 0.60395  0.89605  0.72840  Biso   1.000  C
  C656     1.0000 0.58002  0.91998  0.67697  Biso   1.000  C
  H219     1.0000 0.57200  0.92800  0.65950  Biso   1.000  H
  C657     1.0000 0.61683  0.88317  0.75680  Biso   1.000  C
  C658     1.0000 0.60395  0.39605  0.22840  Biso   1.000  C
  C659     1.0000 0.58002  0.41998  0.17697  Biso   1.000  C
  H220     1.0000 0.57200  0.42800  0.15950  Biso   1.000  H
  C660     1.0000 0.61683  0.38317  0.25680  Biso   1.000  C
  C661     1.0000 0.10395  0.10395  0.77160  Biso   1.000  C
  C662     1.0000 0.08002  0.08002  0.82303  Biso   1.000  C
  H221     1.0000 0.07200  0.07200  0.84050  Biso   1.000  H
  C663     1.0000 0.11683  0.11683  0.74320  Biso   1.000  C
  C664     1.0000 0.10395  0.60395  0.27160  Biso   1.000  C
  C665     1.0000 0.08002  0.58002  0.32303  Biso   1.000  C
  H222     1.0000 0.07200  0.57200  0.34050  Biso   1.000  H
  C666     1.0000 0.11683  0.61683  0.24320  Biso   1.000  C
  C667     1.0000 0.60395  0.10395  0.27160  Biso   1.000  C
  C668     1.0000 0.58002  0.08002  0.32303  Biso   1.000  C
  H223     1.0000 0.57200  0.07200  0.34050  Biso   1.000  H
  C669     1.0000 0.61683  0.11683  0.24320  Biso   1.000  C
  C670     1.0000 0.60395  0.60395  0.77160  Biso   1.000  C
  C671     1.0000 0.58002  0.58002  0.82303  Biso   1.000  C
  H224     1.0000 0.57200  0.57200  0.84050  Biso   1.000  H
  C672     1.0000 0.61683  0.61683  0.74320  Biso   1.000  C
  C673     1.0000 0.22840  0.89605  0.10395  Biso   1.000  C
  C674     1.0000 0.17697  0.91998  0.08002  Biso   1.000  C
  H225     1.0000 0.15950  0.92800  0.07200  Biso   1.000  H
  C675     1.0000 0.25680  0.88317  0.11683  Biso   1.000  C
  C676     1.0000 0.22840  0.39605  0.60395  Biso   1.000  C
  C677     1.0000 0.17697  0.41998  0.58002  Biso   1.000  C
  H226     1.0000 0.15950  0.42800  0.57200  Biso   1.000  H
  C678     1.0000 0.25680  0.38317  0.61683  Biso   1.000  C
  C679     1.0000 0.72840  0.89605  0.60395  Biso   1.000  C
  C680     1.0000 0.67697  0.91998  0.58002  Biso   1.000  C
  H227     1.0000 0.65950  0.92800  0.57200  Biso   1.000  H
  C681     1.0000 0.75680  0.88317  0.61683  Biso   1.000  C
  C682     1.0000 0.72840  0.39605  0.10395  Biso   1.000  C
  C683     1.0000 0.67697  0.41998  0.08002  Biso   1.000  C
  H228     1.0000 0.65950  0.42800  0.07200  Biso   1.000  H
  C684     1.0000 0.75680  0.38317  0.11683  Biso   1.000  C
  C685     1.0000 0.77160  0.89605  0.89605  Biso   1.000  C
  C686     1.0000 0.82303  0.91998  0.91998  Biso   1.000  C
  H229     1.0000 0.84050  0.92800  0.92800  Biso   1.000  H
  C687     1.0000 0.74320  0.88317  0.88317  Biso   1.000  C
  C688     1.0000 0.77160  0.39605  0.39605  Biso   1.000  C
  C689     1.0000 0.82303  0.41998  0.41998  Biso   1.000  C
  H230     1.0000 0.84050  0.42800  0.42800  Biso   1.000  H
  C690     1.0000 0.74320  0.38317  0.38317  Biso   1.000  C
  C691     1.0000 0.27160  0.89605  0.39605  Biso   1.000  C
  C692     1.0000 0.32303  0.91998  0.41998  Biso   1.000  C
  H231     1.0000 0.34050  0.92800  0.42800  Biso   1.000  H
  C693     1.0000 0.24320  0.88317  0.38317  Biso   1.000  C
  C694     1.0000 0.27160  0.39605  0.89605  Biso   1.000  C
  C695     1.0000 0.32303  0.41998  0.91998  Biso   1.000  C
  H232     1.0000 0.34050  0.42800  0.92800  Biso   1.000  H
  C696     1.0000 0.24320  0.38317  0.88317  Biso   1.000  C
  C697     1.0000 0.22840  0.10395  0.89605  Biso   1.000  C
  C698     1.0000 0.17697  0.08002  0.91998  Biso   1.000  C
  H233     1.0000 0.15950  0.07200  0.92800  Biso   1.000  H
  C699     1.0000 0.25680  0.11683  0.88317  Biso   1.000  C
  C700     1.0000 0.22840  0.60395  0.39605  Biso   1.000  C
  C701     1.0000 0.17697  0.58002  0.41998  Biso   1.000  C
  H234     1.0000 0.15950  0.57200  0.42800  Biso   1.000  H
  C702     1.0000 0.25680  0.61683  0.38317  Biso   1.000  C
  C703     1.0000 0.72840  0.10395  0.39605  Biso   1.000  C
  C704     1.0000 0.67697  0.08002  0.41998  Biso   1.000  C
  H235     1.0000 0.65950  0.07200  0.42800  Biso   1.000  H
  C705     1.0000 0.75680  0.11683  0.38317  Biso   1.000  C
  C706     1.0000 0.72840  0.60395  0.89605  Biso   1.000  C
  C707     1.0000 0.67697  0.58002  0.91998  Biso   1.000  C
  H236     1.0000 0.65950  0.57200  0.92800  Biso   1.000  H
  C708     1.0000 0.75680  0.61683  0.88317  Biso   1.000  C
  C709     1.0000 0.77160  0.10395  0.10395  Biso   1.000  C
  C710     1.0000 0.82303  0.08002  0.08002  Biso   1.000  C
  H237     1.0000 0.84050  0.07200  0.07200  Biso   1.000  H
  C711     1.0000 0.74320  0.11683  0.11683  Biso   1.000  C
  C712     1.0000 0.77160  0.60395  0.60395  Biso   1.000  C
  C713     1.0000 0.82303  0.58002  0.58002  Biso   1.000  C
  H238     1.0000 0.84050  0.57200  0.57200  Biso   1.000  H
  C714     1.0000 0.74320  0.61683  0.61683  Biso   1.000  C
  C715     1.0000 0.27160  0.10395  0.60395  Biso   1.000  C
  C716     1.0000 0.32303  0.08002  0.58002  Biso   1.000  C
  H239     1.0000 0.34050  0.07200  0.57200  Biso   1.000  H
  C717     1.0000 0.24320  0.11683  0.61683  Biso   1.000  C
  C718     1.0000 0.27160  0.60395  0.10395  Biso   1.000  C
  C719     1.0000 0.32303  0.58002  0.08002  Biso   1.000  C
  H240     1.0000 0.34050  0.57200  0.07200  Biso   1.000  H
  C720     1.0000 0.24320  0.61683  0.11683  Biso   1.000  C
  C721     1.0000 0.22840  0.10395  0.10395  Biso   1.000  C
  C722     1.0000 0.17697  0.08002  0.08002  Biso   1.000  C
  H241     1.0000 0.15950  0.07200  0.07200  Biso   1.000  H
  C723     1.0000 0.25680  0.11683  0.11683  Biso   1.000  C
  C724     1.0000 0.22840  0.60395  0.60395  Biso   1.000  C
  C725     1.0000 0.17697  0.58002  0.58002  Biso   1.000  C
  H242     1.0000 0.15950  0.57200  0.57200  Biso   1.000  H
  C726     1.0000 0.25680  0.61683  0.61683  Biso   1.000  C
  C727     1.0000 0.72840  0.10395  0.60395  Biso   1.000  C
  C728     1.0000 0.67697  0.08002  0.58002  Biso   1.000  C
  H243     1.0000 0.65950  0.07200  0.57200  Biso   1.000  H
  C729     1.0000 0.75680  0.11683  0.61683  Biso   1.000  C
  C730     1.0000 0.72840  0.60395  0.10395  Biso   1.000  C
  C731     1.0000 0.67697  0.58002  0.08002  Biso   1.000  C
  H244     1.0000 0.65950  0.57200  0.07200  Biso   1.000  H
  C732     1.0000 0.75680  0.61683  0.11683  Biso   1.000  C
  C733     1.0000 0.77160  0.89605  0.10395  Biso   1.000  C
  C734     1.0000 0.82303  0.91998  0.08002  Biso   1.000  C
  H245     1.0000 0.84050  0.92800  0.07200  Biso   1.000  H
  C735     1.0000 0.74320  0.88317  0.11683  Biso   1.000  C
  C736     1.0000 0.77160  0.39605  0.60395  Biso   1.000  C
  C737     1.0000 0.82303  0.41998  0.58002  Biso   1.000  C
  H246     1.0000 0.84050  0.42800  0.57200  Biso   1.000  H
  C738     1.0000 0.74320  0.38317  0.61683  Biso   1.000  C
  C739     1.0000 0.27160  0.89605  0.60395  Biso   1.000  C
  C740     1.0000 0.32303  0.91998  0.58002  Biso   1.000  C
  H247     1.0000 0.34050  0.92800  0.57200  Biso   1.000  H
  C741     1.0000 0.24320  0.88317  0.61683  Biso   1.000  C
  C742     1.0000 0.27160  0.39605  0.10395  Biso   1.000  C
  C743     1.0000 0.32303  0.41998  0.08002  Biso   1.000  C
  H248     1.0000 0.34050  0.42800  0.07200  Biso   1.000  H
  C744     1.0000 0.24320  0.38317  0.11683  Biso   1.000  C
  C745     1.0000 0.22840  0.89605  0.89605  Biso   1.000  C
  C746     1.0000 0.17697  0.91998  0.91998  Biso   1.000  C
  H249     1.0000 0.15950  0.92800  0.92800  Biso   1.000  H
  C747     1.0000 0.25680  0.88317  0.88317  Biso   1.000  C
  C748     1.0000 0.22840  0.39605  0.39605  Biso   1.000  C
  C749     1.0000 0.17697  0.41998  0.41998  Biso   1.000  C
  H250     1.0000 0.15950  0.42800  0.42800  Biso   1.000  H
  C750     1.0000 0.25680  0.38317  0.38317  Biso   1.000  C
  C751     1.0000 0.72840  0.89605  0.39605  Biso   1.000  C
  C752     1.0000 0.67697  0.91998  0.41998  Biso   1.000  C
  H251     1.0000 0.65950  0.92800  0.42800  Biso   1.000  H
  C753     1.0000 0.75680  0.88317  0.38317  Biso   1.000  C
  C754     1.0000 0.72840  0.39605  0.89605  Biso   1.000  C
  C755     1.0000 0.67697  0.41998  0.91998  Biso   1.000  C
  H252     1.0000 0.65950  0.42800  0.92800  Biso   1.000  H
  C756     1.0000 0.75680  0.38317  0.88317  Biso   1.000  C
  C757     1.0000 0.77160  0.10395  0.89605  Biso   1.000  C
  C758     1.0000 0.82303  0.08002  0.91998  Biso   1.000  C
  H253     1.0000 0.84050  0.07200  0.92800  Biso   1.000  H
  C759     1.0000 0.74320  0.11683  0.88317  Biso   1.000  C
  C760     1.0000 0.77160  0.60395  0.39605  Biso   1.000  C
  C761     1.0000 0.82303  0.58002  0.41998  Biso   1.000  C
  H254     1.0000 0.84050  0.57200  0.42800  Biso   1.000  H
  C762     1.0000 0.74320  0.61683  0.38317  Biso   1.000  C
  C763     1.0000 0.27160  0.10395  0.39605  Biso   1.000  C
  C764     1.0000 0.32303  0.08002  0.41998  Biso   1.000  C
  H255     1.0000 0.34050  0.07200  0.42800  Biso   1.000  H
  C765     1.0000 0.24320  0.11683  0.38317  Biso   1.000  C
  C766     1.0000 0.27160  0.60395  0.89605  Biso   1.000  C
  C767     1.0000 0.32303  0.58002  0.91998  Biso   1.000  C
  H256     1.0000 0.34050  0.57200  0.92800  Biso   1.000  H
  C768     1.0000 0.24320  0.61683  0.88317  Biso   1.000  C
  C769     1.0000 0.10395  0.89605  0.77160  Biso   1.000  C
  C770     1.0000 0.08002  0.91998  0.82303  Biso   1.000  C
  H257     1.0000 0.07200  0.92800  0.84050  Biso   1.000  H
  C771     1.0000 0.11683  0.88317  0.74320  Biso   1.000  C
  C772     1.0000 0.10395  0.39605  0.27160  Biso   1.000  C
  C773     1.0000 0.08002  0.41998  0.32303  Biso   1.000  C
  H258     1.0000 0.07200  0.42800  0.34050  Biso   1.000  H
  C774     1.0000 0.11683  0.38317  0.24320  Biso   1.000  C
  C775     1.0000 0.60395  0.89605  0.27160  Biso   1.000  C
  C776     1.0000 0.58002  0.91998  0.32303  Biso   1.000  C
  H259     1.0000 0.57200  0.92800  0.34050  Biso   1.000  H
  C777     1.0000 0.61683  0.88317  0.24320  Biso   1.000  C
  C778     1.0000 0.60395  0.39605  0.77160  Biso   1.000  C
  C779     1.0000 0.58002  0.41998  0.82303  Biso   1.000  C
  H260     1.0000 0.57200  0.42800  0.84050  Biso   1.000  H
  C780     1.0000 0.61683  0.38317  0.74320  Biso   1.000  C
  C781     1.0000 0.89605  0.89605  0.22840  Biso   1.000  C
  C782     1.0000 0.91998  0.91998  0.17697  Biso   1.000  C
  H261     1.0000 0.92800  0.92800  0.15950  Biso   1.000  H
  C783     1.0000 0.88317  0.88317  0.25680  Biso   1.000  C
  C784     1.0000 0.89605  0.39605  0.72840  Biso   1.000  C
  C785     1.0000 0.91998  0.41998  0.67697  Biso   1.000  C
  H262     1.0000 0.92800  0.42800  0.65950  Biso   1.000  H
  C786     1.0000 0.88317  0.38317  0.75680  Biso   1.000  C
  C787     1.0000 0.39605  0.89605  0.72840  Biso   1.000  C
  C788     1.0000 0.41998  0.91998  0.67697  Biso   1.000  C
  H263     1.0000 0.42800  0.92800  0.65950  Biso   1.000  H
  C789     1.0000 0.38317  0.88317  0.75680  Biso   1.000  C
  C790     1.0000 0.39605  0.39605  0.22840  Biso   1.000  C
  C791     1.0000 0.41998  0.41998  0.17697  Biso   1.000  C
  H264     1.0000 0.42800  0.42800  0.15950  Biso   1.000  H
  C792     1.0000 0.38317  0.38317  0.25680  Biso   1.000  C
  C793     1.0000 0.89605  0.10395  0.77160  Biso   1.000  C
  C794     1.0000 0.91998  0.08002  0.82303  Biso   1.000  C
  H265     1.0000 0.92800  0.07200  0.84050  Biso   1.000  H
  C795     1.0000 0.88317  0.11683  0.74320  Biso   1.000  C
  C796     1.0000 0.89605  0.60395  0.27160  Biso   1.000  C
  C797     1.0000 0.91998  0.58002  0.32303  Biso   1.000  C
  H266     1.0000 0.92800  0.57200  0.34050  Biso   1.000  H
  C798     1.0000 0.88317  0.61683  0.24320  Biso   1.000  C
  C799     1.0000 0.39605  0.10395  0.27160  Biso   1.000  C
  C800     1.0000 0.41998  0.08002  0.32303  Biso   1.000  C
  H267     1.0000 0.42800  0.07200  0.34050  Biso   1.000  H
  C801     1.0000 0.38317  0.11683  0.24320  Biso   1.000  C
  C802     1.0000 0.39605  0.60395  0.77160  Biso   1.000  C
  C803     1.0000 0.41998  0.58002  0.82303  Biso   1.000  C
  H268     1.0000 0.42800  0.57200  0.84050  Biso   1.000  H
  C804     1.0000 0.38317  0.61683  0.74320  Biso   1.000  C
  C805     1.0000 0.10395  0.10395  0.22840  Biso   1.000  C
  C806     1.0000 0.08002  0.08002  0.17697  Biso   1.000  C
  H269     1.0000 0.07200  0.07200  0.15950  Biso   1.000  H
  C807     1.0000 0.11683  0.11683  0.25680  Biso   1.000  C
  C808     1.0000 0.10395  0.60395  0.72840  Biso   1.000  C
  C809     1.0000 0.08002  0.58002  0.67697  Biso   1.000  C
  H270     1.0000 0.07200  0.57200  0.65950  Biso   1.000  H
  C810     1.0000 0.11683  0.61683  0.75680  Biso   1.000  C
  C811     1.0000 0.60395  0.10395  0.72840  Biso   1.000  C
  C812     1.0000 0.58002  0.08002  0.67697  Biso   1.000  C
  H271     1.0000 0.57200  0.07200  0.65950  Biso   1.000  H
  C813     1.0000 0.61683  0.11683  0.75680  Biso   1.000  C
  C814     1.0000 0.60395  0.60395  0.22840  Biso   1.000  C
  C815     1.0000 0.58002  0.58002  0.17697  Biso   1.000  C
  H272     1.0000 0.57200  0.57200  0.15950  Biso   1.000  H
  C816     1.0000 0.61683  0.61683  0.25680  Biso   1.000  C
  C817     1.0000 0.89605  0.22840  0.89605  Biso   1.000  C
  C818     1.0000 0.91998  0.17697  0.91998  Biso   1.000  C
  H273     1.0000 0.92800  0.15950  0.92800  Biso   1.000  H
  C819     1.0000 0.88317  0.25680  0.88317  Biso   1.000  C
  C820     1.0000 0.89605  0.72840  0.39605  Biso   1.000  C
  C821     1.0000 0.91998  0.67697  0.41998  Biso   1.000  C
  H274     1.0000 0.92800  0.65950  0.42800  Biso   1.000  H
  C822     1.0000 0.88317  0.75680  0.38317  Biso   1.000  C
  C823     1.0000 0.39605  0.22840  0.39605  Biso   1.000  C
  C824     1.0000 0.41998  0.17697  0.41998  Biso   1.000  C
  H275     1.0000 0.42800  0.15950  0.42800  Biso   1.000  H
  C825     1.0000 0.38317  0.25680  0.38317  Biso   1.000  C
  C826     1.0000 0.39605  0.72840  0.89605  Biso   1.000  C
  C827     1.0000 0.41998  0.67697  0.91998  Biso   1.000  C
  H276     1.0000 0.42800  0.65950  0.92800  Biso   1.000  H
  C828     1.0000 0.38317  0.75680  0.88317  Biso   1.000  C
  C829     1.0000 0.89605  0.77160  0.10395  Biso   1.000  C
  C830     1.0000 0.91998  0.82303  0.08002  Biso   1.000  C
  H277     1.0000 0.92800  0.84050  0.07200  Biso   1.000  H
  C831     1.0000 0.88317  0.74320  0.11683  Biso   1.000  C
  C832     1.0000 0.89605  0.27160  0.60395  Biso   1.000  C
  C833     1.0000 0.91998  0.32303  0.58002  Biso   1.000  C
  H278     1.0000 0.92800  0.34050  0.57200  Biso   1.000  H
  C834     1.0000 0.88317  0.24320  0.61683  Biso   1.000  C
  C835     1.0000 0.39605  0.77160  0.60395  Biso   1.000  C
  C836     1.0000 0.41998  0.82303  0.58002  Biso   1.000  C
  H279     1.0000 0.42800  0.84050  0.57200  Biso   1.000  H
  C837     1.0000 0.38317  0.74320  0.61683  Biso   1.000  C
  C838     1.0000 0.39605  0.27160  0.10395  Biso   1.000  C
  C839     1.0000 0.41998  0.32303  0.08002  Biso   1.000  C
  H280     1.0000 0.42800  0.34050  0.07200  Biso   1.000  H
  C840     1.0000 0.38317  0.24320  0.11683  Biso   1.000  C
  C841     1.0000 0.10395  0.22840  0.10395  Biso   1.000  C
  C842     1.0000 0.08002  0.17697  0.08002  Biso   1.000  C
  H281     1.0000 0.07200  0.15950  0.07200  Biso   1.000  H
  C843     1.0000 0.11683  0.25680  0.11683  Biso   1.000  C
  C844     1.0000 0.10395  0.72840  0.60395  Biso   1.000  C
  C845     1.0000 0.08002  0.67697  0.58002  Biso   1.000  C
  H282     1.0000 0.07200  0.65950  0.57200  Biso   1.000  H
  C846     1.0000 0.11683  0.75680  0.61683  Biso   1.000  C
  C847     1.0000 0.60395  0.22840  0.60395  Biso   1.000  C
  C848     1.0000 0.58002  0.17697  0.58002  Biso   1.000  C
  H283     1.0000 0.57200  0.15950  0.57200  Biso   1.000  H
  C849     1.0000 0.61683  0.25680  0.61683  Biso   1.000  C
  C850     1.0000 0.60395  0.72840  0.10395  Biso   1.000  C
  C851     1.0000 0.58002  0.67697  0.08002  Biso   1.000  C
  H284     1.0000 0.57200  0.65950  0.07200  Biso   1.000  H
  C852     1.0000 0.61683  0.75680  0.11683  Biso   1.000  C
  C853     1.0000 0.10395  0.77160  0.89605  Biso   1.000  C
  C854     1.0000 0.08002  0.82303  0.91998  Biso   1.000  C
  H285     1.0000 0.07200  0.84050  0.92800  Biso   1.000  H
  C855     1.0000 0.11683  0.74320  0.88317  Biso   1.000  C
  C856     1.0000 0.10395  0.27160  0.39605  Biso   1.000  C
  C857     1.0000 0.08002  0.32303  0.41998  Biso   1.000  C
  H286     1.0000 0.07200  0.34050  0.42800  Biso   1.000  H
  C858     1.0000 0.11683  0.24320  0.38317  Biso   1.000  C
  C859     1.0000 0.60395  0.77160  0.39605  Biso   1.000  C
  C860     1.0000 0.58002  0.82303  0.41998  Biso   1.000  C
  H287     1.0000 0.57200  0.84050  0.42800  Biso   1.000  H
  C861     1.0000 0.61683  0.74320  0.38317  Biso   1.000  C
  C862     1.0000 0.60395  0.27160  0.89605  Biso   1.000  C
  C863     1.0000 0.58002  0.32303  0.91998  Biso   1.000  C
  H288     1.0000 0.57200  0.34050  0.92800  Biso   1.000  H
  C864     1.0000 0.61683  0.24320  0.88317  Biso   1.000  C
