data_image0
_cell_length_a       41.0051
_cell_length_b       41.0051
_cell_length_c       41.0051
_cell_angle_alpha    90
_cell_angle_beta     90
_cell_angle_gamma    90

_symmetry_space_group_name_H-M    "P 1"
_symmetry_int_tables_number       1

loop_
  _symmetry_equiv_pos_as_xyz
  'x, y, z'

loop_
  _atom_site_label
  _atom_site_occupancy
  _atom_site_fract_x
  _atom_site_fract_y
  _atom_site_fract_z
  _atom_site_thermal_displace_type
  _atom_site_B_iso_or_equiv
  _atom_site_type_symbol
  O1       1.0000 0.65253  0.74707  0.94990  Biso   1.000  O
  O2       1.0000 0.69521  0.71654  0.96213  Biso   1.000  O
  C1       1.0000 0.67077  0.72306  0.94486  Biso   1.000  C
  C2       1.0000 0.66351  0.70127  0.91716  Biso   1.000  C
  S1       1.0000 0.63026  0.70964  0.89261  Biso   1.000  S
  C3       1.0000 0.68150  0.67387  0.90758  Biso   1.000  C
  C4       1.0000 0.63920  0.67679  0.86800  Biso   1.000  C
  H1       1.0000 0.69990  0.66590  0.91810  Biso   1.000  H
  C5       1.0000 0.66690  0.65990  0.87880  Biso   1.000  C
  O3       1.0000 0.65253  0.24707  0.44990  Biso   1.000  O
  O4       1.0000 0.69521  0.21654  0.46213  Biso   1.000  O
  C6       1.0000 0.67077  0.22306  0.44486  Biso   1.000  C
  C7       1.0000 0.66351  0.20127  0.41716  Biso   1.000  C
  S2       1.0000 0.63026  0.20964  0.39261  Biso   1.000  S
  C8       1.0000 0.68150  0.17387  0.40758  Biso   1.000  C
  C9       1.0000 0.63920  0.17679  0.36800  Biso   1.000  C
  H2       1.0000 0.69990  0.16590  0.41810  Biso   1.000  H
  C10      1.0000 0.66690  0.15990  0.37880  Biso   1.000  C
  O5       1.0000 0.15253  0.74707  0.44990  Biso   1.000  O
  O6       1.0000 0.19521  0.71654  0.46213  Biso   1.000  O
  C11      1.0000 0.17077  0.72306  0.44486  Biso   1.000  C
  C12      1.0000 0.16351  0.70127  0.41716  Biso   1.000  C
  S3       1.0000 0.13026  0.70964  0.39261  Biso   1.000  S
  C13      1.0000 0.18150  0.67387  0.40758  Biso   1.000  C
  C14      1.0000 0.13920  0.67679  0.36800  Biso   1.000  C
  H3       1.0000 0.19990  0.66590  0.41810  Biso   1.000  H
  C15      1.0000 0.16690  0.65990  0.37880  Biso   1.000  C
  O7       1.0000 0.15253  0.24707  0.94990  Biso   1.000  O
  O8       1.0000 0.19521  0.21654  0.96213  Biso   1.000  O
  C16      1.0000 0.17077  0.22306  0.94486  Biso   1.000  C
  C17      1.0000 0.16351  0.20127  0.91716  Biso   1.000  C
  S4       1.0000 0.13026  0.20964  0.89261  Biso   1.000  S
  C18      1.0000 0.18150  0.17387  0.90758  Biso   1.000  C
  C19      1.0000 0.13920  0.17679  0.86800  Biso   1.000  C
  H4       1.0000 0.19990  0.16590  0.91810  Biso   1.000  H
  C20      1.0000 0.16690  0.15990  0.87880  Biso   1.000  C
  O9       1.0000 0.34747  0.25293  0.94990  Biso   1.000  O
  O10      1.0000 0.30479  0.28346  0.96213  Biso   1.000  O
  C21      1.0000 0.32923  0.27694  0.94486  Biso   1.000  C
  C22      1.0000 0.33649  0.29873  0.91716  Biso   1.000  C
  S5       1.0000 0.36974  0.29036  0.89261  Biso   1.000  S
  C23      1.0000 0.31850  0.32613  0.90758  Biso   1.000  C
  C24      1.0000 0.36080  0.32321  0.86800  Biso   1.000  C
  H5       1.0000 0.30010  0.33410  0.91810  Biso   1.000  H
  C25      1.0000 0.33310  0.34010  0.87880  Biso   1.000  C
  O11      1.0000 0.34747  0.75293  0.44990  Biso   1.000  O
  O12      1.0000 0.30479  0.78346  0.46213  Biso   1.000  O
  C26      1.0000 0.32923  0.77694  0.44486  Biso   1.000  C
  C27      1.0000 0.33649  0.79873  0.41716  Biso   1.000  C
  S6       1.0000 0.36974  0.79036  0.39261  Biso   1.000  S
  C28      1.0000 0.31850  0.82613  0.40758  Biso   1.000  C
  C29      1.0000 0.36080  0.82321  0.36800  Biso   1.000  C
  H6       1.0000 0.30010  0.83410  0.41810  Biso   1.000  H
  C30      1.0000 0.33310  0.84010  0.37880  Biso   1.000  C
  O13      1.0000 0.84747  0.25293  0.44990  Biso   1.000  O
  O14      1.0000 0.80479  0.28346  0.46213  Biso   1.000  O
  C31      1.0000 0.82923  0.27694  0.44486  Biso   1.000  C
  C32      1.0000 0.83649  0.29873  0.41716  Biso   1.000  C
  S7       1.0000 0.86974  0.29036  0.39261  Biso   1.000  S
  C33      1.0000 0.81850  0.32613  0.40758  Biso   1.000  C
  C34      1.0000 0.86080  0.32321  0.36800  Biso   1.000  C
  H7       1.0000 0.80010  0.33410  0.41810  Biso   1.000  H
  C35      1.0000 0.83310  0.34010  0.37880  Biso   1.000  C
  O15      1.0000 0.84747  0.75293  0.94990  Biso   1.000  O
  O16      1.0000 0.80479  0.78346  0.96213  Biso   1.000  O
  C36      1.0000 0.82923  0.77694  0.94486  Biso   1.000  C
  C37      1.0000 0.83649  0.79873  0.91716  Biso   1.000  C
  S8       1.0000 0.86974  0.79036  0.89261  Biso   1.000  S
  C38      1.0000 0.81850  0.82613  0.90758  Biso   1.000  C
  C39      1.0000 0.86080  0.82321  0.86800  Biso   1.000  C
  H8       1.0000 0.80010  0.83410  0.91810  Biso   1.000  H
  C40      1.0000 0.83310  0.84010  0.87880  Biso   1.000  C
  O17      1.0000 0.34747  0.74707  0.05010  Biso   1.000  O
  O18      1.0000 0.30479  0.71654  0.03787  Biso   1.000  O
  C41      1.0000 0.32923  0.72306  0.05514  Biso   1.000  C
  C42      1.0000 0.33649  0.70127  0.08284  Biso   1.000  C
  S9       1.0000 0.36974  0.70964  0.10739  Biso   1.000  S
  C43      1.0000 0.31850  0.67387  0.09242  Biso   1.000  C
  C44      1.0000 0.36080  0.67679  0.13200  Biso   1.000  C
  H9       1.0000 0.30010  0.66590  0.08190  Biso   1.000  H
  C45      1.0000 0.33310  0.65990  0.12120  Biso   1.000  C
  O19      1.0000 0.34747  0.24707  0.55010  Biso   1.000  O
  O20      1.0000 0.30479  0.21654  0.53787  Biso   1.000  O
  C46      1.0000 0.32923  0.22306  0.55514  Biso   1.000  C
  C47      1.0000 0.33649  0.20127  0.58284  Biso   1.000  C
  S10      1.0000 0.36974  0.20964  0.60739  Biso   1.000  S
  C48      1.0000 0.31850  0.17387  0.59242  Biso   1.000  C
  C49      1.0000 0.36080  0.17679  0.63200  Biso   1.000  C
  H10      1.0000 0.30010  0.16590  0.58190  Biso   1.000  H
  C50      1.0000 0.33310  0.15990  0.62120  Biso   1.000  C
  O21      1.0000 0.84747  0.74707  0.55010  Biso   1.000  O
  O22      1.0000 0.80479  0.71654  0.53787  Biso   1.000  O
  C51      1.0000 0.82923  0.72306  0.55514  Biso   1.000  C
  C52      1.0000 0.83649  0.70127  0.58284  Biso   1.000  C
  S11      1.0000 0.86974  0.70964  0.60739  Biso   1.000  S
  C53      1.0000 0.81850  0.67387  0.59242  Biso   1.000  C
  C54      1.0000 0.86080  0.67679  0.63200  Biso   1.000  C
  H11      1.0000 0.80010  0.66590  0.58190  Biso   1.000  H
  C55      1.0000 0.83310  0.65990  0.62120  Biso   1.000  C
  O23      1.0000 0.84747  0.24707  0.05010  Biso   1.000  O
  O24      1.0000 0.80479  0.21654  0.03787  Biso   1.000  O
  C56      1.0000 0.82923  0.22306  0.05514  Biso   1.000  C
  C57      1.0000 0.83649  0.20127  0.08284  Biso   1.000  C
  S12      1.0000 0.86974  0.20964  0.10739  Biso   1.000  S
  C58      1.0000 0.81850  0.17387  0.09242  Biso   1.000  C
  C59      1.0000 0.86080  0.17679  0.13200  Biso   1.000  C
  H12      1.0000 0.80010  0.16590  0.08190  Biso   1.000  H
  C60      1.0000 0.83310  0.15990  0.12120  Biso   1.000  C
  O25      1.0000 0.65253  0.25293  0.05010  Biso   1.000  O
  O26      1.0000 0.69521  0.28346  0.03787  Biso   1.000  O
  C61      1.0000 0.67077  0.27694  0.05514  Biso   1.000  C
  C62      1.0000 0.66351  0.29873  0.08284  Biso   1.000  C
  S13      1.0000 0.63026  0.29036  0.10739  Biso   1.000  S
  C63      1.0000 0.68150  0.32613  0.09242  Biso   1.000  C
  C64      1.0000 0.63920  0.32321  0.13200  Biso   1.000  C
  H13      1.0000 0.69990  0.33410  0.08190  Biso   1.000  H
  C65      1.0000 0.66690  0.34010  0.12120  Biso   1.000  C
  O27      1.0000 0.65253  0.75293  0.55010  Biso   1.000  O
  O28      1.0000 0.69521  0.78346  0.53787  Biso   1.000  O
  C66      1.0000 0.67077  0.77694  0.55514  Biso   1.000  C
  C67      1.0000 0.66351  0.79873  0.58284  Biso   1.000  C
  S14      1.0000 0.63026  0.79036  0.60739  Biso   1.000  S
  C68      1.0000 0.68150  0.82613  0.59242  Biso   1.000  C
  C69      1.0000 0.63920  0.82321  0.63200  Biso   1.000  C
  H14      1.0000 0.69990  0.83410  0.58190  Biso   1.000  H
  C70      1.0000 0.66690  0.84010  0.62120  Biso   1.000  C
  O29      1.0000 0.15253  0.25293  0.55010  Biso   1.000  O
  O30      1.0000 0.19521  0.28346  0.53787  Biso   1.000  O
  C71      1.0000 0.17077  0.27694  0.55514  Biso   1.000  C
  C72      1.0000 0.16351  0.29873  0.58284  Biso   1.000  C
  S15      1.0000 0.13026  0.29036  0.60739  Biso   1.000  S
  C73      1.0000 0.18150  0.32613  0.59242  Biso   1.000  C
  C74      1.0000 0.13920  0.32321  0.63200  Biso   1.000  C
  H15      1.0000 0.19990  0.33410  0.58190  Biso   1.000  H
  C75      1.0000 0.16690  0.34010  0.62120  Biso   1.000  C
  O31      1.0000 0.15253  0.75293  0.05010  Biso   1.000  O
  O32      1.0000 0.19521  0.78346  0.03787  Biso   1.000  O
  C76      1.0000 0.17077  0.77694  0.05514  Biso   1.000  C
  C77      1.0000 0.16351  0.79873  0.08284  Biso   1.000  C
  S16      1.0000 0.13026  0.79036  0.10739  Biso   1.000  S
  C78      1.0000 0.18150  0.82613  0.09242  Biso   1.000  C
  C79      1.0000 0.13920  0.82321  0.13200  Biso   1.000  C
  H16      1.0000 0.19990  0.83410  0.08190  Biso   1.000  H
  C80      1.0000 0.16690  0.84010  0.12120  Biso   1.000  C
  O33      1.0000 0.94990  0.65253  0.74707  Biso   1.000  O
  O34      1.0000 0.96213  0.69521  0.71654  Biso   1.000  O
  C81      1.0000 0.94486  0.67077  0.72306  Biso   1.000  C
  C82      1.0000 0.91716  0.66351  0.70127  Biso   1.000  C
  S17      1.0000 0.89261  0.63026  0.70964  Biso   1.000  S
  C83      1.0000 0.90758  0.68150  0.67387  Biso   1.000  C
  C84      1.0000 0.86800  0.63920  0.67679  Biso   1.000  C
  H17      1.0000 0.91810  0.69990  0.66590  Biso   1.000  H
  C85      1.0000 0.87880  0.66690  0.65990  Biso   1.000  C
  O35      1.0000 0.94990  0.15253  0.24707  Biso   1.000  O
  O36      1.0000 0.96213  0.19521  0.21654  Biso   1.000  O
  C86      1.0000 0.94486  0.17077  0.22306  Biso   1.000  C
  C87      1.0000 0.91716  0.16351  0.20127  Biso   1.000  C
  S18      1.0000 0.89261  0.13026  0.20964  Biso   1.000  S
  C88      1.0000 0.90758  0.18150  0.17387  Biso   1.000  C
  C89      1.0000 0.86800  0.13920  0.17679  Biso   1.000  C
  H18      1.0000 0.91810  0.19990  0.16590  Biso   1.000  H
  C90      1.0000 0.87880  0.16690  0.15990  Biso   1.000  C
  O37      1.0000 0.44990  0.65253  0.24707  Biso   1.000  O
  O38      1.0000 0.46213  0.69521  0.21654  Biso   1.000  O
  C91      1.0000 0.44486  0.67077  0.22306  Biso   1.000  C
  C92      1.0000 0.41716  0.66351  0.20127  Biso   1.000  C
  S19      1.0000 0.39261  0.63026  0.20964  Biso   1.000  S
  C93      1.0000 0.40758  0.68150  0.17387  Biso   1.000  C
  C94      1.0000 0.36800  0.63920  0.17679  Biso   1.000  C
  H19      1.0000 0.41810  0.69990  0.16590  Biso   1.000  H
  C95      1.0000 0.37880  0.66690  0.15990  Biso   1.000  C
  O39      1.0000 0.44990  0.15253  0.74707  Biso   1.000  O
  O40      1.0000 0.46213  0.19521  0.71654  Biso   1.000  O
  C96      1.0000 0.44486  0.17077  0.72306  Biso   1.000  C
  C97      1.0000 0.41716  0.16351  0.70127  Biso   1.000  C
  S20      1.0000 0.39261  0.13026  0.70964  Biso   1.000  S
  C98      1.0000 0.40758  0.18150  0.67387  Biso   1.000  C
  C99      1.0000 0.36800  0.13920  0.67679  Biso   1.000  C
  H20      1.0000 0.41810  0.19990  0.66590  Biso   1.000  H
  C100     1.0000 0.37880  0.16690  0.65990  Biso   1.000  C
  O41      1.0000 0.94990  0.34747  0.25293  Biso   1.000  O
  O42      1.0000 0.96213  0.30479  0.28346  Biso   1.000  O
  C101     1.0000 0.94486  0.32923  0.27694  Biso   1.000  C
  C102     1.0000 0.91716  0.33649  0.29873  Biso   1.000  C
  S21      1.0000 0.89261  0.36974  0.29036  Biso   1.000  S
  C103     1.0000 0.90758  0.31850  0.32613  Biso   1.000  C
  C104     1.0000 0.86800  0.36080  0.32321  Biso   1.000  C
  H21      1.0000 0.91810  0.30010  0.33410  Biso   1.000  H
  C105     1.0000 0.87880  0.33310  0.34010  Biso   1.000  C
  O43      1.0000 0.94990  0.84747  0.75293  Biso   1.000  O
  O44      1.0000 0.96213  0.80479  0.78346  Biso   1.000  O
  C106     1.0000 0.94486  0.82923  0.77694  Biso   1.000  C
  C107     1.0000 0.91716  0.83649  0.79873  Biso   1.000  C
  S22      1.0000 0.89261  0.86974  0.79036  Biso   1.000  S
  C108     1.0000 0.90758  0.81850  0.82613  Biso   1.000  C
  C109     1.0000 0.86800  0.86080  0.82321  Biso   1.000  C
  H22      1.0000 0.91810  0.80010  0.83410  Biso   1.000  H
  C110     1.0000 0.87880  0.83310  0.84010  Biso   1.000  C
  O45      1.0000 0.44990  0.34747  0.75293  Biso   1.000  O
  O46      1.0000 0.46213  0.30479  0.78346  Biso   1.000  O
  C111     1.0000 0.44486  0.32923  0.77694  Biso   1.000  C
  C112     1.0000 0.41716  0.33649  0.79873  Biso   1.000  C
  S23      1.0000 0.39261  0.36974  0.79036  Biso   1.000  S
  C113     1.0000 0.40758  0.31850  0.82613  Biso   1.000  C
  C114     1.0000 0.36800  0.36080  0.82321  Biso   1.000  C
  H23      1.0000 0.41810  0.30010  0.83410  Biso   1.000  H
  C115     1.0000 0.37880  0.33310  0.84010  Biso   1.000  C
  O47      1.0000 0.44990  0.84747  0.25293  Biso   1.000  O
  O48      1.0000 0.46213  0.80479  0.28346  Biso   1.000  O
  C116     1.0000 0.44486  0.82923  0.27694  Biso   1.000  C
  C117     1.0000 0.41716  0.83649  0.29873  Biso   1.000  C
  S24      1.0000 0.39261  0.86974  0.29036  Biso   1.000  S
  C118     1.0000 0.40758  0.81850  0.32613  Biso   1.000  C
  C119     1.0000 0.36800  0.86080  0.32321  Biso   1.000  C
  H24      1.0000 0.41810  0.80010  0.33410  Biso   1.000  H
  C120     1.0000 0.37880  0.83310  0.34010  Biso   1.000  C
  O49      1.0000 0.05010  0.34747  0.74707  Biso   1.000  O
  O50      1.0000 0.03787  0.30479  0.71654  Biso   1.000  O
  C121     1.0000 0.05514  0.32923  0.72306  Biso   1.000  C
  C122     1.0000 0.08284  0.33649  0.70127  Biso   1.000  C
  S25      1.0000 0.10739  0.36974  0.70964  Biso   1.000  S
  C123     1.0000 0.09242  0.31850  0.67387  Biso   1.000  C
  C124     1.0000 0.13200  0.36080  0.67679  Biso   1.000  C
  H25      1.0000 0.08190  0.30010  0.66590  Biso   1.000  H
  C125     1.0000 0.12120  0.33310  0.65990  Biso   1.000  C
  O51      1.0000 0.05010  0.84747  0.24707  Biso   1.000  O
  O52      1.0000 0.03787  0.80479  0.21654  Biso   1.000  O
  C126     1.0000 0.05514  0.82923  0.22306  Biso   1.000  C
  C127     1.0000 0.08284  0.83649  0.20127  Biso   1.000  C
  S26      1.0000 0.10739  0.86974  0.20964  Biso   1.000  S
  C128     1.0000 0.09242  0.81850  0.17387  Biso   1.000  C
  C129     1.0000 0.13200  0.86080  0.17679  Biso   1.000  C
  H26      1.0000 0.08190  0.80010  0.16590  Biso   1.000  H
  C130     1.0000 0.12120  0.83310  0.15990  Biso   1.000  C
  O53      1.0000 0.55010  0.34747  0.24707  Biso   1.000  O
  O54      1.0000 0.53787  0.30479  0.21654  Biso   1.000  O
  C131     1.0000 0.55514  0.32923  0.22306  Biso   1.000  C
  C132     1.0000 0.58284  0.33649  0.20127  Biso   1.000  C
  S27      1.0000 0.60739  0.36974  0.20964  Biso   1.000  S
  C133     1.0000 0.59242  0.31850  0.17387  Biso   1.000  C
  C134     1.0000 0.63200  0.36080  0.17679  Biso   1.000  C
  H27      1.0000 0.58190  0.30010  0.16590  Biso   1.000  H
  C135     1.0000 0.62120  0.33310  0.15990  Biso   1.000  C
  O55      1.0000 0.55010  0.84747  0.74707  Biso   1.000  O
  O56      1.0000 0.53787  0.80479  0.71654  Biso   1.000  O
  C136     1.0000 0.55514  0.82923  0.72306  Biso   1.000  C
  C137     1.0000 0.58284  0.83649  0.70127  Biso   1.000  C
  S28      1.0000 0.60739  0.86974  0.70964  Biso   1.000  S
  C138     1.0000 0.59242  0.81850  0.67387  Biso   1.000  C
  C139     1.0000 0.63200  0.86080  0.67679  Biso   1.000  C
  H28      1.0000 0.58190  0.80010  0.66590  Biso   1.000  H
  C140     1.0000 0.62120  0.83310  0.65990  Biso   1.000  C
  O57      1.0000 0.05010  0.65253  0.25293  Biso   1.000  O
  O58      1.0000 0.03787  0.69521  0.28346  Biso   1.000  O
  C141     1.0000 0.05514  0.67077  0.27694  Biso   1.000  C
  C142     1.0000 0.08284  0.66351  0.29873  Biso   1.000  C
  S29      1.0000 0.10739  0.63026  0.29036  Biso   1.000  S
  C143     1.0000 0.09242  0.68150  0.32613  Biso   1.000  C
  C144     1.0000 0.13200  0.63920  0.32321  Biso   1.000  C
  H29      1.0000 0.08190  0.69990  0.33410  Biso   1.000  H
  C145     1.0000 0.12120  0.66690  0.34010  Biso   1.000  C
  O59      1.0000 0.05010  0.15253  0.75293  Biso   1.000  O
  O60      1.0000 0.03787  0.19521  0.78346  Biso   1.000  O
  C146     1.0000 0.05514  0.17077  0.77694  Biso   1.000  C
  C147     1.0000 0.08284  0.16351  0.79873  Biso   1.000  C
  S30      1.0000 0.10739  0.13026  0.79036  Biso   1.000  S
  C148     1.0000 0.09242  0.18150  0.82613  Biso   1.000  C
  C149     1.0000 0.13200  0.13920  0.82321  Biso   1.000  C
  H30      1.0000 0.08190  0.19990  0.83410  Biso   1.000  H
  C150     1.0000 0.12120  0.16690  0.84010  Biso   1.000  C
  O61      1.0000 0.55010  0.65253  0.75293  Biso   1.000  O
  O62      1.0000 0.53787  0.69521  0.78346  Biso   1.000  O
  C151     1.0000 0.55514  0.67077  0.77694  Biso   1.000  C
  C152     1.0000 0.58284  0.66351  0.79873  Biso   1.000  C
  S31      1.0000 0.60739  0.63026  0.79036  Biso   1.000  S
  C153     1.0000 0.59242  0.68150  0.82613  Biso   1.000  C
  C154     1.0000 0.63200  0.63920  0.82321  Biso   1.000  C
  H31      1.0000 0.58190  0.69990  0.83410  Biso   1.000  H
  C155     1.0000 0.62120  0.66690  0.84010  Biso   1.000  C
  O63      1.0000 0.55010  0.15253  0.25293  Biso   1.000  O
  O64      1.0000 0.53787  0.19521  0.28346  Biso   1.000  O
  C156     1.0000 0.55514  0.17077  0.27694  Biso   1.000  C
  C157     1.0000 0.58284  0.16351  0.29873  Biso   1.000  C
  S32      1.0000 0.60739  0.13026  0.29036  Biso   1.000  S
  C158     1.0000 0.59242  0.18150  0.32613  Biso   1.000  C
  C159     1.0000 0.63200  0.13920  0.32321  Biso   1.000  C
  H32      1.0000 0.58190  0.19990  0.33410  Biso   1.000  H
  C160     1.0000 0.62120  0.16690  0.34010  Biso   1.000  C
  O65      1.0000 0.74707  0.94990  0.65253  Biso   1.000  O
  O66      1.0000 0.71654  0.96213  0.69521  Biso   1.000  O
  C161     1.0000 0.72306  0.94486  0.67077  Biso   1.000  C
  C162     1.0000 0.70127  0.91716  0.66351  Biso   1.000  C
  S33      1.0000 0.70964  0.89261  0.63026  Biso   1.000  S
  C163     1.0000 0.67387  0.90758  0.68150  Biso   1.000  C
  C164     1.0000 0.67679  0.86800  0.63920  Biso   1.000  C
  H33      1.0000 0.66590  0.91810  0.69990  Biso   1.000  H
  C165     1.0000 0.65990  0.87880  0.66690  Biso   1.000  C
  O67      1.0000 0.74707  0.44990  0.15253  Biso   1.000  O
  O68      1.0000 0.71654  0.46213  0.19521  Biso   1.000  O
  C166     1.0000 0.72306  0.44486  0.17077  Biso   1.000  C
  C167     1.0000 0.70127  0.41716  0.16351  Biso   1.000  C
  S34      1.0000 0.70964  0.39261  0.13026  Biso   1.000  S
  C168     1.0000 0.67387  0.40758  0.18150  Biso   1.000  C
  C169     1.0000 0.67679  0.36800  0.13920  Biso   1.000  C
  H34      1.0000 0.66590  0.41810  0.19990  Biso   1.000  H
  C170     1.0000 0.65990  0.37880  0.16690  Biso   1.000  C
  O69      1.0000 0.24707  0.94990  0.15253  Biso   1.000  O
  O70      1.0000 0.21654  0.96213  0.19521  Biso   1.000  O
  C171     1.0000 0.22306  0.94486  0.17077  Biso   1.000  C
  C172     1.0000 0.20127  0.91716  0.16351  Biso   1.000  C
  S35      1.0000 0.20964  0.89261  0.13026  Biso   1.000  S
  C173     1.0000 0.17387  0.90758  0.18150  Biso   1.000  C
  C174     1.0000 0.17679  0.86800  0.13920  Biso   1.000  C
  H35      1.0000 0.16590  0.91810  0.19990  Biso   1.000  H
  C175     1.0000 0.15990  0.87880  0.16690  Biso   1.000  C
  O71      1.0000 0.24707  0.44990  0.65253  Biso   1.000  O
  O72      1.0000 0.21654  0.46213  0.69521  Biso   1.000  O
  C176     1.0000 0.22306  0.44486  0.67077  Biso   1.000  C
  C177     1.0000 0.20127  0.41716  0.66351  Biso   1.000  C
  S36      1.0000 0.20964  0.39261  0.63026  Biso   1.000  S
  C178     1.0000 0.17387  0.40758  0.68150  Biso   1.000  C
  C179     1.0000 0.17679  0.36800  0.63920  Biso   1.000  C
  H36      1.0000 0.16590  0.41810  0.69990  Biso   1.000  H
  C180     1.0000 0.15990  0.37880  0.66690  Biso   1.000  C
  O73      1.0000 0.25293  0.94990  0.34747  Biso   1.000  O
  O74      1.0000 0.28346  0.96213  0.30479  Biso   1.000  O
  C181     1.0000 0.27694  0.94486  0.32923  Biso   1.000  C
  C182     1.0000 0.29873  0.91716  0.33649  Biso   1.000  C
  S37      1.0000 0.29036  0.89261  0.36974  Biso   1.000  S
  C183     1.0000 0.32613  0.90758  0.31850  Biso   1.000  C
  C184     1.0000 0.32321  0.86800  0.36080  Biso   1.000  C
  H37      1.0000 0.33410  0.91810  0.30010  Biso   1.000  H
  C185     1.0000 0.34010  0.87880  0.33310  Biso   1.000  C
  O75      1.0000 0.25293  0.44990  0.84747  Biso   1.000  O
  O76      1.0000 0.28346  0.46213  0.80479  Biso   1.000  O
  C186     1.0000 0.27694  0.44486  0.82923  Biso   1.000  C
  C187     1.0000 0.29873  0.41716  0.83649  Biso   1.000  C
  S38      1.0000 0.29036  0.39261  0.86974  Biso   1.000  S
  C188     1.0000 0.32613  0.40758  0.81850  Biso   1.000  C
  C189     1.0000 0.32321  0.36800  0.86080  Biso   1.000  C
  H38      1.0000 0.33410  0.41810  0.80010  Biso   1.000  H
  C190     1.0000 0.34010  0.37880  0.83310  Biso   1.000  C
  O77      1.0000 0.75293  0.94990  0.84747  Biso   1.000  O
  O78      1.0000 0.78346  0.96213  0.80479  Biso   1.000  O
  C191     1.0000 0.77694  0.94486  0.82923  Biso   1.000  C
  C192     1.0000 0.79873  0.91716  0.83649  Biso   1.000  C
  S39      1.0000 0.79036  0.89261  0.86974  Biso   1.000  S
  C193     1.0000 0.82613  0.90758  0.81850  Biso   1.000  C
  C194     1.0000 0.82321  0.86800  0.86080  Biso   1.000  C
  H39      1.0000 0.83410  0.91810  0.80010  Biso   1.000  H
  C195     1.0000 0.84010  0.87880  0.83310  Biso   1.000  C
  O79      1.0000 0.75293  0.44990  0.34747  Biso   1.000  O
  O80      1.0000 0.78346  0.46213  0.30479  Biso   1.000  O
  C196     1.0000 0.77694  0.44486  0.32923  Biso   1.000  C
  C197     1.0000 0.79873  0.41716  0.33649  Biso   1.000  C
  S40      1.0000 0.79036  0.39261  0.36974  Biso   1.000  S
  C198     1.0000 0.82613  0.40758  0.31850  Biso   1.000  C
  C199     1.0000 0.82321  0.36800  0.36080  Biso   1.000  C
  H40      1.0000 0.83410  0.41810  0.30010  Biso   1.000  H
  C200     1.0000 0.84010  0.37880  0.33310  Biso   1.000  C
  O81      1.0000 0.74707  0.05010  0.34747  Biso   1.000  O
  O82      1.0000 0.71654  0.03787  0.30479  Biso   1.000  O
  C201     1.0000 0.72306  0.05514  0.32923  Biso   1.000  C
  C202     1.0000 0.70127  0.08284  0.33649  Biso   1.000  C
  S41      1.0000 0.70964  0.10739  0.36974  Biso   1.000  S
  C203     1.0000 0.67387  0.09242  0.31850  Biso   1.000  C
  C204     1.0000 0.67679  0.13200  0.36080  Biso   1.000  C
  H41      1.0000 0.66590  0.08190  0.30010  Biso   1.000  H
  C205     1.0000 0.65990  0.12120  0.33310  Biso   1.000  C
  O83      1.0000 0.74707  0.55010  0.84747  Biso   1.000  O
  O84      1.0000 0.71654  0.53787  0.80479  Biso   1.000  O
  C206     1.0000 0.72306  0.55514  0.82923  Biso   1.000  C
  C207     1.0000 0.70127  0.58284  0.83649  Biso   1.000  C
  S42      1.0000 0.70964  0.60739  0.86974  Biso   1.000  S
  C208     1.0000 0.67387  0.59242  0.81850  Biso   1.000  C
  C209     1.0000 0.67679  0.63200  0.86080  Biso   1.000  C
  H42      1.0000 0.66590  0.58190  0.80010  Biso   1.000  H
  C210     1.0000 0.65990  0.62120  0.83310  Biso   1.000  C
  O85      1.0000 0.24707  0.05010  0.84747  Biso   1.000  O
  O86      1.0000 0.21654  0.03787  0.80479  Biso   1.000  O
  C211     1.0000 0.22306  0.05514  0.82923  Biso   1.000  C
  C212     1.0000 0.20127  0.08284  0.83649  Biso   1.000  C
  S43      1.0000 0.20964  0.10739  0.86974  Biso   1.000  S
  C213     1.0000 0.17387  0.09242  0.81850  Biso   1.000  C
  C214     1.0000 0.17679  0.13200  0.86080  Biso   1.000  C
  H43      1.0000 0.16590  0.08190  0.80010  Biso   1.000  H
  C215     1.0000 0.15990  0.12120  0.83310  Biso   1.000  C
  O87      1.0000 0.24707  0.55010  0.34747  Biso   1.000  O
  O88      1.0000 0.21654  0.53787  0.30479  Biso   1.000  O
  C216     1.0000 0.22306  0.55514  0.32923  Biso   1.000  C
  C217     1.0000 0.20127  0.58284  0.33649  Biso   1.000  C
  S44      1.0000 0.20964  0.60739  0.36974  Biso   1.000  S
  C218     1.0000 0.17387  0.59242  0.31850  Biso   1.000  C
  C219     1.0000 0.17679  0.63200  0.36080  Biso   1.000  C
  H44      1.0000 0.16590  0.58190  0.30010  Biso   1.000  H
  C220     1.0000 0.15990  0.62120  0.33310  Biso   1.000  C
  O89      1.0000 0.25293  0.05010  0.65253  Biso   1.000  O
  O90      1.0000 0.28346  0.03787  0.69521  Biso   1.000  O
  C221     1.0000 0.27694  0.05514  0.67077  Biso   1.000  C
  C222     1.0000 0.29873  0.08284  0.66351  Biso   1.000  C
  S45      1.0000 0.29036  0.10739  0.63026  Biso   1.000  S
  C223     1.0000 0.32613  0.09242  0.68150  Biso   1.000  C
  C224     1.0000 0.32321  0.13200  0.63920  Biso   1.000  C
  H45      1.0000 0.33410  0.08190  0.69990  Biso   1.000  H
  C225     1.0000 0.34010  0.12120  0.66690  Biso   1.000  C
  O91      1.0000 0.25293  0.55010  0.15253  Biso   1.000  O
  O92      1.0000 0.28346  0.53787  0.19521  Biso   1.000  O
  C226     1.0000 0.27694  0.55514  0.17077  Biso   1.000  C
  C227     1.0000 0.29873  0.58284  0.16351  Biso   1.000  C
  S46      1.0000 0.29036  0.60739  0.13026  Biso   1.000  S
  C228     1.0000 0.32613  0.59242  0.18150  Biso   1.000  C
  C229     1.0000 0.32321  0.63200  0.13920  Biso   1.000  C
  H46      1.0000 0.33410  0.58190  0.19990  Biso   1.000  H
  C230     1.0000 0.34010  0.62120  0.16690  Biso   1.000  C
  O93      1.0000 0.75293  0.05010  0.15253  Biso   1.000  O
  O94      1.0000 0.78346  0.03787  0.19521  Biso   1.000  O
  C231     1.0000 0.77694  0.05514  0.17077  Biso   1.000  C
  C232     1.0000 0.79873  0.08284  0.16351  Biso   1.000  C
  S47      1.0000 0.79036  0.10739  0.13026  Biso   1.000  S
  C233     1.0000 0.82613  0.09242  0.18150  Biso   1.000  C
  C234     1.0000 0.82321  0.13200  0.13920  Biso   1.000  C
  H47      1.0000 0.83410  0.08190  0.19990  Biso   1.000  H
  C235     1.0000 0.84010  0.12120  0.16690  Biso   1.000  C
  O95      1.0000 0.75293  0.55010  0.65253  Biso   1.000  O
  O96      1.0000 0.78346  0.53787  0.69521  Biso   1.000  O
  C236     1.0000 0.77694  0.55514  0.67077  Biso   1.000  C
  C237     1.0000 0.79873  0.58284  0.66351  Biso   1.000  C
  S48      1.0000 0.79036  0.60739  0.63026  Biso   1.000  S
  C238     1.0000 0.82613  0.59242  0.68150  Biso   1.000  C
  C239     1.0000 0.82321  0.63200  0.63920  Biso   1.000  C
  H48      1.0000 0.83410  0.58190  0.69990  Biso   1.000  H
  C240     1.0000 0.84010  0.62120  0.66690  Biso   1.000  C
  O97      1.0000 0.24707  0.15253  0.55010  Biso   1.000  O
  O98      1.0000 0.21654  0.19521  0.53787  Biso   1.000  O
  C241     1.0000 0.22306  0.17077  0.55514  Biso   1.000  C
  C242     1.0000 0.20127  0.16351  0.58284  Biso   1.000  C
  S49      1.0000 0.20964  0.13026  0.60739  Biso   1.000  S
  C243     1.0000 0.17387  0.18150  0.59242  Biso   1.000  C
  C244     1.0000 0.17679  0.13920  0.63200  Biso   1.000  C
  H49      1.0000 0.16590  0.19990  0.58190  Biso   1.000  H
  C245     1.0000 0.15990  0.16690  0.62120  Biso   1.000  C
  O99      1.0000 0.24707  0.65253  0.05010  Biso   1.000  O
  O100     1.0000 0.21654  0.69521  0.03787  Biso   1.000  O
  C246     1.0000 0.22306  0.67077  0.05514  Biso   1.000  C
  C247     1.0000 0.20127  0.66351  0.08284  Biso   1.000  C
  S50      1.0000 0.20964  0.63026  0.10739  Biso   1.000  S
  C248     1.0000 0.17387  0.68150  0.09242  Biso   1.000  C
  C249     1.0000 0.17679  0.63920  0.13200  Biso   1.000  C
  H50      1.0000 0.16590  0.69990  0.08190  Biso   1.000  H
  C250     1.0000 0.15990  0.66690  0.12120  Biso   1.000  C
  O101     1.0000 0.74707  0.15253  0.05010  Biso   1.000  O
  O102     1.0000 0.71654  0.19521  0.03787  Biso   1.000  O
  C251     1.0000 0.72306  0.17077  0.05514  Biso   1.000  C
  C252     1.0000 0.70127  0.16351  0.08284  Biso   1.000  C
  S51      1.0000 0.70964  0.13026  0.10739  Biso   1.000  S
  C253     1.0000 0.67387  0.18150  0.09242  Biso   1.000  C
  C254     1.0000 0.67679  0.13920  0.13200  Biso   1.000  C
  H51      1.0000 0.66590  0.19990  0.08190  Biso   1.000  H
  C255     1.0000 0.65990  0.16690  0.12120  Biso   1.000  C
  O103     1.0000 0.74707  0.65253  0.55010  Biso   1.000  O
  O104     1.0000 0.71654  0.69521  0.53787  Biso   1.000  O
  C256     1.0000 0.72306  0.67077  0.55514  Biso   1.000  C
  C257     1.0000 0.70127  0.66351  0.58284  Biso   1.000  C
  S52      1.0000 0.70964  0.63026  0.60739  Biso   1.000  S
  C258     1.0000 0.67387  0.68150  0.59242  Biso   1.000  C
  C259     1.0000 0.67679  0.63920  0.63200  Biso   1.000  C
  H52      1.0000 0.66590  0.69990  0.58190  Biso   1.000  H
  C260     1.0000 0.65990  0.66690  0.62120  Biso   1.000  C
  O105     1.0000 0.75293  0.84747  0.55010  Biso   1.000  O
  O106     1.0000 0.78346  0.80479  0.53787  Biso   1.000  O
  C261     1.0000 0.77694  0.82923  0.55514  Biso   1.000  C
  C262     1.0000 0.79873  0.83649  0.58284  Biso   1.000  C
  S53      1.0000 0.79036  0.86974  0.60739  Biso   1.000  S
  C263     1.0000 0.82613  0.81850  0.59242  Biso   1.000  C
  C264     1.0000 0.82321  0.86080  0.63200  Biso   1.000  C
  H53      1.0000 0.83410  0.80010  0.58190  Biso   1.000  H
  C265     1.0000 0.84010  0.83310  0.62120  Biso   1.000  C
  O107     1.0000 0.75293  0.34747  0.05010  Biso   1.000  O
  O108     1.0000 0.78346  0.30479  0.03787  Biso   1.000  O
  C266     1.0000 0.77694  0.32923  0.05514  Biso   1.000  C
  C267     1.0000 0.79873  0.33649  0.08284  Biso   1.000  C
  S54      1.0000 0.79036  0.36974  0.10739  Biso   1.000  S
  C268     1.0000 0.82613  0.31850  0.09242  Biso   1.000  C
  C269     1.0000 0.82321  0.36080  0.13200  Biso   1.000  C
  H54      1.0000 0.83410  0.30010  0.08190  Biso   1.000  H
  C270     1.0000 0.84010  0.33310  0.12120  Biso   1.000  C
  O109     1.0000 0.25293  0.84747  0.05010  Biso   1.000  O
  O110     1.0000 0.28346  0.80479  0.03787  Biso   1.000  O
  C271     1.0000 0.27694  0.82923  0.05514  Biso   1.000  C
  C272     1.0000 0.29873  0.83649  0.08284  Biso   1.000  C
  S55      1.0000 0.29036  0.86974  0.10739  Biso   1.000  S
  C273     1.0000 0.32613  0.81850  0.09242  Biso   1.000  C
  C274     1.0000 0.32321  0.86080  0.13200  Biso   1.000  C
  H55      1.0000 0.33410  0.80010  0.08190  Biso   1.000  H
  C275     1.0000 0.34010  0.83310  0.12120  Biso   1.000  C
  O111     1.0000 0.25293  0.34747  0.55010  Biso   1.000  O
  O112     1.0000 0.28346  0.30479  0.53787  Biso   1.000  O
  C276     1.0000 0.27694  0.32923  0.55514  Biso   1.000  C
  C277     1.0000 0.29873  0.33649  0.58284  Biso   1.000  C
  S56      1.0000 0.29036  0.36974  0.60739  Biso   1.000  S
  C278     1.0000 0.32613  0.31850  0.59242  Biso   1.000  C
  C279     1.0000 0.32321  0.36080  0.63200  Biso   1.000  C
  H56      1.0000 0.33410  0.30010  0.58190  Biso   1.000  H
  C280     1.0000 0.34010  0.33310  0.62120  Biso   1.000  C
  O113     1.0000 0.24707  0.84747  0.44990  Biso   1.000  O
  O114     1.0000 0.21654  0.80479  0.46213  Biso   1.000  O
  C281     1.0000 0.22306  0.82923  0.44486  Biso   1.000  C
  C282     1.0000 0.20127  0.83649  0.41716  Biso   1.000  C
  S57      1.0000 0.20964  0.86974  0.39261  Biso   1.000  S
  C283     1.0000 0.17387  0.81850  0.40758  Biso   1.000  C
  C284     1.0000 0.17679  0.86080  0.36800  Biso   1.000  C
  H57      1.0000 0.16590  0.80010  0.41810  Biso   1.000  H
  C285     1.0000 0.15990  0.83310  0.37880  Biso   1.000  C
  O115     1.0000 0.24707  0.34747  0.94990  Biso   1.000  O
  O116     1.0000 0.21654  0.30479  0.96213  Biso   1.000  O
  C286     1.0000 0.22306  0.32923  0.94486  Biso   1.000  C
  C287     1.0000 0.20127  0.33649  0.91716  Biso   1.000  C
  S58      1.0000 0.20964  0.36974  0.89261  Biso   1.000  S
  C288     1.0000 0.17387  0.31850  0.90758  Biso   1.000  C
  C289     1.0000 0.17679  0.36080  0.86800  Biso   1.000  C
  H58      1.0000 0.16590  0.30010  0.91810  Biso   1.000  H
  C290     1.0000 0.15990  0.33310  0.87880  Biso   1.000  C
  O117     1.0000 0.74707  0.84747  0.94990  Biso   1.000  O
  O118     1.0000 0.71654  0.80479  0.96213  Biso   1.000  O
  C291     1.0000 0.72306  0.82923  0.94486  Biso   1.000  C
  C292     1.0000 0.70127  0.83649  0.91716  Biso   1.000  C
  S59      1.0000 0.70964  0.86974  0.89261  Biso   1.000  S
  C293     1.0000 0.67387  0.81850  0.90758  Biso   1.000  C
  C294     1.0000 0.67679  0.86080  0.86800  Biso   1.000  C
  H59      1.0000 0.66590  0.80010  0.91810  Biso   1.000  H
  C295     1.0000 0.65990  0.83310  0.87880  Biso   1.000  C
  O119     1.0000 0.74707  0.34747  0.44990  Biso   1.000  O
  O120     1.0000 0.71654  0.30479  0.46213  Biso   1.000  O
  C296     1.0000 0.72306  0.32923  0.44486  Biso   1.000  C
  C297     1.0000 0.70127  0.33649  0.41716  Biso   1.000  C
  S60      1.0000 0.70964  0.36974  0.39261  Biso   1.000  S
  C298     1.0000 0.67387  0.31850  0.40758  Biso   1.000  C
  C299     1.0000 0.67679  0.36080  0.36800  Biso   1.000  C
  H60      1.0000 0.66590  0.30010  0.41810  Biso   1.000  H
  C300     1.0000 0.65990  0.33310  0.37880  Biso   1.000  C
  O121     1.0000 0.75293  0.15253  0.44990  Biso   1.000  O
  O122     1.0000 0.78346  0.19521  0.46213  Biso   1.000  O
  C301     1.0000 0.77694  0.17077  0.44486  Biso   1.000  C
  C302     1.0000 0.79873  0.16351  0.41716  Biso   1.000  C
  S61      1.0000 0.79036  0.13026  0.39261  Biso   1.000  S
  C303     1.0000 0.82613  0.18150  0.40758  Biso   1.000  C
  C304     1.0000 0.82321  0.13920  0.36800  Biso   1.000  C
  H61      1.0000 0.83410  0.19990  0.41810  Biso   1.000  H
  C305     1.0000 0.84010  0.16690  0.37880  Biso   1.000  C
  O123     1.0000 0.75293  0.65253  0.94990  Biso   1.000  O
  O124     1.0000 0.78346  0.69521  0.96213  Biso   1.000  O
  C306     1.0000 0.77694  0.67077  0.94486  Biso   1.000  C
  C307     1.0000 0.79873  0.66351  0.91716  Biso   1.000  C
  S62      1.0000 0.79036  0.63026  0.89261  Biso   1.000  S
  C308     1.0000 0.82613  0.68150  0.90758  Biso   1.000  C
  C309     1.0000 0.82321  0.63920  0.86800  Biso   1.000  C
  H62      1.0000 0.83410  0.69990  0.91810  Biso   1.000  H
  C310     1.0000 0.84010  0.66690  0.87880  Biso   1.000  C
  O125     1.0000 0.25293  0.15253  0.94990  Biso   1.000  O
  O126     1.0000 0.28346  0.19521  0.96213  Biso   1.000  O
  C311     1.0000 0.27694  0.17077  0.94486  Biso   1.000  C
  C312     1.0000 0.29873  0.16351  0.91716  Biso   1.000  C
  S63      1.0000 0.29036  0.13026  0.89261  Biso   1.000  S
  C313     1.0000 0.32613  0.18150  0.90758  Biso   1.000  C
  C314     1.0000 0.32321  0.13920  0.86800  Biso   1.000  C
  H63      1.0000 0.33410  0.19990  0.91810  Biso   1.000  H
  C315     1.0000 0.34010  0.16690  0.87880  Biso   1.000  C
  O127     1.0000 0.25293  0.65253  0.44990  Biso   1.000  O
  O128     1.0000 0.28346  0.69521  0.46213  Biso   1.000  O
  C316     1.0000 0.27694  0.67077  0.44486  Biso   1.000  C
  C317     1.0000 0.29873  0.66351  0.41716  Biso   1.000  C
  S64      1.0000 0.29036  0.63026  0.39261  Biso   1.000  S
  C318     1.0000 0.32613  0.68150  0.40758  Biso   1.000  C
  C319     1.0000 0.32321  0.63920  0.36800  Biso   1.000  C
  H64      1.0000 0.33410  0.69990  0.41810  Biso   1.000  H
  C320     1.0000 0.34010  0.66690  0.37880  Biso   1.000  C
  O129     1.0000 0.15253  0.44990  0.75293  Biso   1.000  O
  O130     1.0000 0.19521  0.46213  0.78346  Biso   1.000  O
  C321     1.0000 0.17077  0.44486  0.77694  Biso   1.000  C
  C322     1.0000 0.16351  0.41716  0.79873  Biso   1.000  C
  S65      1.0000 0.13026  0.39261  0.79036  Biso   1.000  S
  C323     1.0000 0.18150  0.40758  0.82613  Biso   1.000  C
  C324     1.0000 0.13920  0.36800  0.82321  Biso   1.000  C
  H65      1.0000 0.19990  0.41810  0.83410  Biso   1.000  H
  C325     1.0000 0.16690  0.37880  0.84010  Biso   1.000  C
  O131     1.0000 0.15253  0.94990  0.25293  Biso   1.000  O
  O132     1.0000 0.19521  0.96213  0.28346  Biso   1.000  O
  C326     1.0000 0.17077  0.94486  0.27694  Biso   1.000  C
  C327     1.0000 0.16351  0.91716  0.29873  Biso   1.000  C
  S66      1.0000 0.13026  0.89261  0.29036  Biso   1.000  S
  C328     1.0000 0.18150  0.90758  0.32613  Biso   1.000  C
  C329     1.0000 0.13920  0.86800  0.32321  Biso   1.000  C
  H66      1.0000 0.19990  0.91810  0.33410  Biso   1.000  H
  C330     1.0000 0.16690  0.87880  0.34010  Biso   1.000  C
  O133     1.0000 0.65253  0.44990  0.25293  Biso   1.000  O
  O134     1.0000 0.69521  0.46213  0.28346  Biso   1.000  O
  C331     1.0000 0.67077  0.44486  0.27694  Biso   1.000  C
  C332     1.0000 0.66351  0.41716  0.29873  Biso   1.000  C
  S67      1.0000 0.63026  0.39261  0.29036  Biso   1.000  S
  C333     1.0000 0.68150  0.40758  0.32613  Biso   1.000  C
  C334     1.0000 0.63920  0.36800  0.32321  Biso   1.000  C
  H67      1.0000 0.69990  0.41810  0.33410  Biso   1.000  H
  C335     1.0000 0.66690  0.37880  0.34010  Biso   1.000  C
  O135     1.0000 0.65253  0.94990  0.75293  Biso   1.000  O
  O136     1.0000 0.69521  0.96213  0.78346  Biso   1.000  O
  C336     1.0000 0.67077  0.94486  0.77694  Biso   1.000  C
  C337     1.0000 0.66351  0.91716  0.79873  Biso   1.000  C
  S68      1.0000 0.63026  0.89261  0.79036  Biso   1.000  S
  C338     1.0000 0.68150  0.90758  0.82613  Biso   1.000  C
  C339     1.0000 0.63920  0.86800  0.82321  Biso   1.000  C
  H68      1.0000 0.69990  0.91810  0.83410  Biso   1.000  H
  C340     1.0000 0.66690  0.87880  0.84010  Biso   1.000  C
  O137     1.0000 0.84747  0.44990  0.24707  Biso   1.000  O
  O138     1.0000 0.80479  0.46213  0.21654  Biso   1.000  O
  C341     1.0000 0.82923  0.44486  0.22306  Biso   1.000  C
  C342     1.0000 0.83649  0.41716  0.20127  Biso   1.000  C
  S69      1.0000 0.86974  0.39261  0.20964  Biso   1.000  S
  C343     1.0000 0.81850  0.40758  0.17387  Biso   1.000  C
  C344     1.0000 0.86080  0.36800  0.17679  Biso   1.000  C
  H69      1.0000 0.80010  0.41810  0.16590  Biso   1.000  H
  C345     1.0000 0.83310  0.37880  0.15990  Biso   1.000  C
  O139     1.0000 0.84747  0.94990  0.74707  Biso   1.000  O
  O140     1.0000 0.80479  0.96213  0.71654  Biso   1.000  O
  C346     1.0000 0.82923  0.94486  0.72306  Biso   1.000  C
  C347     1.0000 0.83649  0.91716  0.70127  Biso   1.000  C
  S70      1.0000 0.86974  0.89261  0.70964  Biso   1.000  S
  C348     1.0000 0.81850  0.90758  0.67387  Biso   1.000  C
  C349     1.0000 0.86080  0.86800  0.67679  Biso   1.000  C
  H70      1.0000 0.80010  0.91810  0.66590  Biso   1.000  H
  C350     1.0000 0.83310  0.87880  0.65990  Biso   1.000  C
  O141     1.0000 0.34747  0.44990  0.74707  Biso   1.000  O
  O142     1.0000 0.30479  0.46213  0.71654  Biso   1.000  O
  C351     1.0000 0.32923  0.44486  0.72306  Biso   1.000  C
  C352     1.0000 0.33649  0.41716  0.70127  Biso   1.000  C
  S71      1.0000 0.36974  0.39261  0.70964  Biso   1.000  S
  C353     1.0000 0.31850  0.40758  0.67387  Biso   1.000  C
  C354     1.0000 0.36080  0.36800  0.67679  Biso   1.000  C
  H71      1.0000 0.30010  0.41810  0.66590  Biso   1.000  H
  C355     1.0000 0.33310  0.37880  0.65990  Biso   1.000  C
  O143     1.0000 0.34747  0.94990  0.24707  Biso   1.000  O
  O144     1.0000 0.30479  0.96213  0.21654  Biso   1.000  O
  C356     1.0000 0.32923  0.94486  0.22306  Biso   1.000  C
  C357     1.0000 0.33649  0.91716  0.20127  Biso   1.000  C
  S72      1.0000 0.36974  0.89261  0.20964  Biso   1.000  S
  C358     1.0000 0.31850  0.90758  0.17387  Biso   1.000  C
  C359     1.0000 0.36080  0.86800  0.17679  Biso   1.000  C
  H72      1.0000 0.30010  0.91810  0.16590  Biso   1.000  H
  C360     1.0000 0.33310  0.87880  0.15990  Biso   1.000  C
  O145     1.0000 0.84747  0.55010  0.75293  Biso   1.000  O
  O146     1.0000 0.80479  0.53787  0.78346  Biso   1.000  O
  C361     1.0000 0.82923  0.55514  0.77694  Biso   1.000  C
  C362     1.0000 0.83649  0.58284  0.79873  Biso   1.000  C
  S73      1.0000 0.86974  0.60739  0.79036  Biso   1.000  S
  C363     1.0000 0.81850  0.59242  0.82613  Biso   1.000  C
  C364     1.0000 0.86080  0.63200  0.82321  Biso   1.000  C
  H73      1.0000 0.80010  0.58190  0.83410  Biso   1.000  H
  C365     1.0000 0.83310  0.62120  0.84010  Biso   1.000  C
  O147     1.0000 0.84747  0.05010  0.25293  Biso   1.000  O
  O148     1.0000 0.80479  0.03787  0.28346  Biso   1.000  O
  C366     1.0000 0.82923  0.05514  0.27694  Biso   1.000  C
  C367     1.0000 0.83649  0.08284  0.29873  Biso   1.000  C
  S74      1.0000 0.86974  0.10739  0.29036  Biso   1.000  S
  C368     1.0000 0.81850  0.09242  0.32613  Biso   1.000  C
  C369     1.0000 0.86080  0.13200  0.32321  Biso   1.000  C
  H74      1.0000 0.80010  0.08190  0.33410  Biso   1.000  H
  C370     1.0000 0.83310  0.12120  0.34010  Biso   1.000  C
  O149     1.0000 0.34747  0.55010  0.25293  Biso   1.000  O
  O150     1.0000 0.30479  0.53787  0.28346  Biso   1.000  O
  C371     1.0000 0.32923  0.55514  0.27694  Biso   1.000  C
  C372     1.0000 0.33649  0.58284  0.29873  Biso   1.000  C
  S75      1.0000 0.36974  0.60739  0.29036  Biso   1.000  S
  C373     1.0000 0.31850  0.59242  0.32613  Biso   1.000  C
  C374     1.0000 0.36080  0.63200  0.32321  Biso   1.000  C
  H75      1.0000 0.30010  0.58190  0.33410  Biso   1.000  H
  C375     1.0000 0.33310  0.62120  0.34010  Biso   1.000  C
  O151     1.0000 0.34747  0.05010  0.75293  Biso   1.000  O
  O152     1.0000 0.30479  0.03787  0.78346  Biso   1.000  O
  C376     1.0000 0.32923  0.05514  0.77694  Biso   1.000  C
  C377     1.0000 0.33649  0.08284  0.79873  Biso   1.000  C
  S76      1.0000 0.36974  0.10739  0.79036  Biso   1.000  S
  C378     1.0000 0.31850  0.09242  0.82613  Biso   1.000  C
  C379     1.0000 0.36080  0.13200  0.82321  Biso   1.000  C
  H76      1.0000 0.30010  0.08190  0.83410  Biso   1.000  H
  C380     1.0000 0.33310  0.12120  0.84010  Biso   1.000  C
  O153     1.0000 0.15253  0.55010  0.24707  Biso   1.000  O
  O154     1.0000 0.19521  0.53787  0.21654  Biso   1.000  O
  C381     1.0000 0.17077  0.55514  0.22306  Biso   1.000  C
  C382     1.0000 0.16351  0.58284  0.20127  Biso   1.000  C
  S77      1.0000 0.13026  0.60739  0.20964  Biso   1.000  S
  C383     1.0000 0.18150  0.59242  0.17387  Biso   1.000  C
  C384     1.0000 0.13920  0.63200  0.17679  Biso   1.000  C
  H77      1.0000 0.19990  0.58190  0.16590  Biso   1.000  H
  C385     1.0000 0.16690  0.62120  0.15990  Biso   1.000  C
  O155     1.0000 0.15253  0.05010  0.74707  Biso   1.000  O
  O156     1.0000 0.19521  0.03787  0.71654  Biso   1.000  O
  C386     1.0000 0.17077  0.05514  0.72306  Biso   1.000  C
  C387     1.0000 0.16351  0.08284  0.70127  Biso   1.000  C
  S78      1.0000 0.13026  0.10739  0.70964  Biso   1.000  S
  C388     1.0000 0.18150  0.09242  0.67387  Biso   1.000  C
  C389     1.0000 0.13920  0.13200  0.67679  Biso   1.000  C
  H78      1.0000 0.19990  0.08190  0.66590  Biso   1.000  H
  C390     1.0000 0.16690  0.12120  0.65990  Biso   1.000  C
  O157     1.0000 0.65253  0.55010  0.74707  Biso   1.000  O
  O158     1.0000 0.69521  0.53787  0.71654  Biso   1.000  O
  C391     1.0000 0.67077  0.55514  0.72306  Biso   1.000  C
  C392     1.0000 0.66351  0.58284  0.70127  Biso   1.000  C
  S79      1.0000 0.63026  0.60739  0.70964  Biso   1.000  S
  C393     1.0000 0.68150  0.59242  0.67387  Biso   1.000  C
  C394     1.0000 0.63920  0.63200  0.67679  Biso   1.000  C
  H79      1.0000 0.69990  0.58190  0.66590  Biso   1.000  H
  C395     1.0000 0.66690  0.62120  0.65990  Biso   1.000  C
  O159     1.0000 0.65253  0.05010  0.24707  Biso   1.000  O
  O160     1.0000 0.69521  0.03787  0.21654  Biso   1.000  O
  C396     1.0000 0.67077  0.05514  0.22306  Biso   1.000  C
  C397     1.0000 0.66351  0.08284  0.20127  Biso   1.000  C
  S80      1.0000 0.63026  0.10739  0.20964  Biso   1.000  S
  C398     1.0000 0.68150  0.09242  0.17387  Biso   1.000  C
  C399     1.0000 0.63920  0.13200  0.17679  Biso   1.000  C
  H80      1.0000 0.69990  0.08190  0.16590  Biso   1.000  H
  C400     1.0000 0.66690  0.12120  0.15990  Biso   1.000  C
  O161     1.0000 0.44990  0.24707  0.84747  Biso   1.000  O
  O162     1.0000 0.46213  0.21654  0.80479  Biso   1.000  O
  C401     1.0000 0.44486  0.22306  0.82923  Biso   1.000  C
  C402     1.0000 0.41716  0.20127  0.83649  Biso   1.000  C
  S81      1.0000 0.39261  0.20964  0.86974  Biso   1.000  S
  C403     1.0000 0.40758  0.17387  0.81850  Biso   1.000  C
  C404     1.0000 0.36800  0.17679  0.86080  Biso   1.000  C
  H81      1.0000 0.41810  0.16590  0.80010  Biso   1.000  H
  C405     1.0000 0.37880  0.15990  0.83310  Biso   1.000  C
  O163     1.0000 0.44990  0.74707  0.34747  Biso   1.000  O
  O164     1.0000 0.46213  0.71654  0.30479  Biso   1.000  O
  C406     1.0000 0.44486  0.72306  0.32923  Biso   1.000  C
  C407     1.0000 0.41716  0.70127  0.33649  Biso   1.000  C
  S82      1.0000 0.39261  0.70964  0.36974  Biso   1.000  S
  C408     1.0000 0.40758  0.67387  0.31850  Biso   1.000  C
  C409     1.0000 0.36800  0.67679  0.36080  Biso   1.000  C
  H82      1.0000 0.41810  0.66590  0.30010  Biso   1.000  H
  C410     1.0000 0.37880  0.65990  0.33310  Biso   1.000  C
  O165     1.0000 0.94990  0.24707  0.34747  Biso   1.000  O
  O166     1.0000 0.96213  0.21654  0.30479  Biso   1.000  O
  C411     1.0000 0.94486  0.22306  0.32923  Biso   1.000  C
  C412     1.0000 0.91716  0.20127  0.33649  Biso   1.000  C
  S83      1.0000 0.89261  0.20964  0.36974  Biso   1.000  S
  C413     1.0000 0.90758  0.17387  0.31850  Biso   1.000  C
  C414     1.0000 0.86800  0.17679  0.36080  Biso   1.000  C
  H83      1.0000 0.91810  0.16590  0.30010  Biso   1.000  H
  C415     1.0000 0.87880  0.15990  0.33310  Biso   1.000  C
  O167     1.0000 0.94990  0.74707  0.84747  Biso   1.000  O
  O168     1.0000 0.96213  0.71654  0.80479  Biso   1.000  O
  C416     1.0000 0.94486  0.72306  0.82923  Biso   1.000  C
  C417     1.0000 0.91716  0.70127  0.83649  Biso   1.000  C
  S84      1.0000 0.89261  0.70964  0.86974  Biso   1.000  S
  C418     1.0000 0.90758  0.67387  0.81850  Biso   1.000  C
  C419     1.0000 0.86800  0.67679  0.86080  Biso   1.000  C
  H84      1.0000 0.91810  0.66590  0.80010  Biso   1.000  H
  C420     1.0000 0.87880  0.65990  0.83310  Biso   1.000  C
  O169     1.0000 0.44990  0.75293  0.15253  Biso   1.000  O
  O170     1.0000 0.46213  0.78346  0.19521  Biso   1.000  O
  C421     1.0000 0.44486  0.77694  0.17077  Biso   1.000  C
  C422     1.0000 0.41716  0.79873  0.16351  Biso   1.000  C
  S85      1.0000 0.39261  0.79036  0.13026  Biso   1.000  S
  C423     1.0000 0.40758  0.82613  0.18150  Biso   1.000  C
  C424     1.0000 0.36800  0.82321  0.13920  Biso   1.000  C
  H85      1.0000 0.41810  0.83410  0.19990  Biso   1.000  H
  C425     1.0000 0.37880  0.84010  0.16690  Biso   1.000  C
  O171     1.0000 0.44990  0.25293  0.65253  Biso   1.000  O
  O172     1.0000 0.46213  0.28346  0.69521  Biso   1.000  O
  C426     1.0000 0.44486  0.27694  0.67077  Biso   1.000  C
  C427     1.0000 0.41716  0.29873  0.66351  Biso   1.000  C
  S86      1.0000 0.39261  0.29036  0.63026  Biso   1.000  S
  C428     1.0000 0.40758  0.32613  0.68150  Biso   1.000  C
  C429     1.0000 0.36800  0.32321  0.63920  Biso   1.000  C
  H86      1.0000 0.41810  0.33410  0.69990  Biso   1.000  H
  C430     1.0000 0.37880  0.34010  0.66690  Biso   1.000  C
  O173     1.0000 0.94990  0.75293  0.65253  Biso   1.000  O
  O174     1.0000 0.96213  0.78346  0.69521  Biso   1.000  O
  C431     1.0000 0.94486  0.77694  0.67077  Biso   1.000  C
  C432     1.0000 0.91716  0.79873  0.66351  Biso   1.000  C
  S87      1.0000 0.89261  0.79036  0.63026  Biso   1.000  S
  C433     1.0000 0.90758  0.82613  0.68150  Biso   1.000  C
  C434     1.0000 0.86800  0.82321  0.63920  Biso   1.000  C
  H87      1.0000 0.91810  0.83410  0.69990  Biso   1.000  H
  C435     1.0000 0.87880  0.84010  0.66690  Biso   1.000  C
  O175     1.0000 0.94990  0.25293  0.15253  Biso   1.000  O
  O176     1.0000 0.96213  0.28346  0.19521  Biso   1.000  O
  C436     1.0000 0.94486  0.27694  0.17077  Biso   1.000  C
  C437     1.0000 0.91716  0.29873  0.16351  Biso   1.000  C
  S88      1.0000 0.89261  0.29036  0.13026  Biso   1.000  S
  C438     1.0000 0.90758  0.32613  0.18150  Biso   1.000  C
  C439     1.0000 0.86800  0.32321  0.13920  Biso   1.000  C
  H88      1.0000 0.91810  0.33410  0.19990  Biso   1.000  H
  C440     1.0000 0.87880  0.34010  0.16690  Biso   1.000  C
  O177     1.0000 0.55010  0.24707  0.15253  Biso   1.000  O
  O178     1.0000 0.53787  0.21654  0.19521  Biso   1.000  O
  C441     1.0000 0.55514  0.22306  0.17077  Biso   1.000  C
  C442     1.0000 0.58284  0.20127  0.16351  Biso   1.000  C
  S89      1.0000 0.60739  0.20964  0.13026  Biso   1.000  S
  C443     1.0000 0.59242  0.17387  0.18150  Biso   1.000  C
  C444     1.0000 0.63200  0.17679  0.13920  Biso   1.000  C
  H89      1.0000 0.58190  0.16590  0.19990  Biso   1.000  H
  C445     1.0000 0.62120  0.15990  0.16690  Biso   1.000  C
  O179     1.0000 0.55010  0.74707  0.65253  Biso   1.000  O
  O180     1.0000 0.53787  0.71654  0.69521  Biso   1.000  O
  C446     1.0000 0.55514  0.72306  0.67077  Biso   1.000  C
  C447     1.0000 0.58284  0.70127  0.66351  Biso   1.000  C
  S90      1.0000 0.60739  0.70964  0.63026  Biso   1.000  S
  C448     1.0000 0.59242  0.67387  0.68150  Biso   1.000  C
  C449     1.0000 0.63200  0.67679  0.63920  Biso   1.000  C
  H90      1.0000 0.58190  0.66590  0.69990  Biso   1.000  H
  C450     1.0000 0.62120  0.65990  0.66690  Biso   1.000  C
  O181     1.0000 0.05010  0.24707  0.65253  Biso   1.000  O
  O182     1.0000 0.03787  0.21654  0.69521  Biso   1.000  O
  C451     1.0000 0.05514  0.22306  0.67077  Biso   1.000  C
  C452     1.0000 0.08284  0.20127  0.66351  Biso   1.000  C
  S91      1.0000 0.10739  0.20964  0.63026  Biso   1.000  S
  C453     1.0000 0.09242  0.17387  0.68150  Biso   1.000  C
  C454     1.0000 0.13200  0.17679  0.63920  Biso   1.000  C
  H91      1.0000 0.08190  0.16590  0.69990  Biso   1.000  H
  C455     1.0000 0.12120  0.15990  0.66690  Biso   1.000  C
  O183     1.0000 0.05010  0.74707  0.15253  Biso   1.000  O
  O184     1.0000 0.03787  0.71654  0.19521  Biso   1.000  O
  C456     1.0000 0.05514  0.72306  0.17077  Biso   1.000  C
  C457     1.0000 0.08284  0.70127  0.16351  Biso   1.000  C
  S92      1.0000 0.10739  0.70964  0.13026  Biso   1.000  S
  C458     1.0000 0.09242  0.67387  0.18150  Biso   1.000  C
  C459     1.0000 0.13200  0.67679  0.13920  Biso   1.000  C
  H92      1.0000 0.08190  0.66590  0.19990  Biso   1.000  H
  C460     1.0000 0.12120  0.65990  0.16690  Biso   1.000  C
  O185     1.0000 0.55010  0.75293  0.84747  Biso   1.000  O
  O186     1.0000 0.53787  0.78346  0.80479  Biso   1.000  O
  C461     1.0000 0.55514  0.77694  0.82923  Biso   1.000  C
  C462     1.0000 0.58284  0.79873  0.83649  Biso   1.000  C
  S93      1.0000 0.60739  0.79036  0.86974  Biso   1.000  S
  C463     1.0000 0.59242  0.82613  0.81850  Biso   1.000  C
  C464     1.0000 0.63200  0.82321  0.86080  Biso   1.000  C
  H93      1.0000 0.58190  0.83410  0.80010  Biso   1.000  H
  C465     1.0000 0.62120  0.84010  0.83310  Biso   1.000  C
  O187     1.0000 0.55010  0.25293  0.34747  Biso   1.000  O
  O188     1.0000 0.53787  0.28346  0.30479  Biso   1.000  O
  C466     1.0000 0.55514  0.27694  0.32923  Biso   1.000  C
  C467     1.0000 0.58284  0.29873  0.33649  Biso   1.000  C
  S94      1.0000 0.60739  0.29036  0.36974  Biso   1.000  S
  C468     1.0000 0.59242  0.32613  0.31850  Biso   1.000  C
  C469     1.0000 0.63200  0.32321  0.36080  Biso   1.000  C
  H94      1.0000 0.58190  0.33410  0.30010  Biso   1.000  H
  C470     1.0000 0.62120  0.34010  0.33310  Biso   1.000  C
  O189     1.0000 0.05010  0.75293  0.34747  Biso   1.000  O
  O190     1.0000 0.03787  0.78346  0.30479  Biso   1.000  O
  C471     1.0000 0.05514  0.77694  0.32923  Biso   1.000  C
  C472     1.0000 0.08284  0.79873  0.33649  Biso   1.000  C
  S95      1.0000 0.10739  0.79036  0.36974  Biso   1.000  S
  C473     1.0000 0.09242  0.82613  0.31850  Biso   1.000  C
  C474     1.0000 0.13200  0.82321  0.36080  Biso   1.000  C
  H95      1.0000 0.08190  0.83410  0.30010  Biso   1.000  H
  C475     1.0000 0.12120  0.84010  0.33310  Biso   1.000  C
  O191     1.0000 0.05010  0.25293  0.84747  Biso   1.000  O
  O192     1.0000 0.03787  0.28346  0.80479  Biso   1.000  O
  C476     1.0000 0.05514  0.27694  0.82923  Biso   1.000  C
  C477     1.0000 0.08284  0.29873  0.83649  Biso   1.000  C
  S96      1.0000 0.10739  0.29036  0.86974  Biso   1.000  S
  C478     1.0000 0.09242  0.32613  0.81850  Biso   1.000  C
  C479     1.0000 0.13200  0.32321  0.86080  Biso   1.000  C
  H96      1.0000 0.08190  0.33410  0.80010  Biso   1.000  H
  C480     1.0000 0.12120  0.34010  0.83310  Biso   1.000  C
  O193     1.0000 0.34747  0.25293  0.05010  Biso   1.000  O
  O194     1.0000 0.30479  0.28346  0.03787  Biso   1.000  O
  C481     1.0000 0.32923  0.27694  0.05514  Biso   1.000  C
  C482     1.0000 0.33649  0.29873  0.08284  Biso   1.000  C
  S97      1.0000 0.36974  0.29036  0.10739  Biso   1.000  S
  C483     1.0000 0.31850  0.32613  0.09242  Biso   1.000  C
  C484     1.0000 0.36080  0.32321  0.13200  Biso   1.000  C
  H97      1.0000 0.30010  0.33410  0.08190  Biso   1.000  H
  C485     1.0000 0.33310  0.34010  0.12120  Biso   1.000  C
  O195     1.0000 0.34747  0.75293  0.55010  Biso   1.000  O
  O196     1.0000 0.30479  0.78346  0.53787  Biso   1.000  O
  C486     1.0000 0.32923  0.77694  0.55514  Biso   1.000  C
  C487     1.0000 0.33649  0.79873  0.58284  Biso   1.000  C
  S98      1.0000 0.36974  0.79036  0.60739  Biso   1.000  S
  C488     1.0000 0.31850  0.82613  0.59242  Biso   1.000  C
  C489     1.0000 0.36080  0.82321  0.63200  Biso   1.000  C
  H98      1.0000 0.30010  0.83410  0.58190  Biso   1.000  H
  C490     1.0000 0.33310  0.84010  0.62120  Biso   1.000  C
  O197     1.0000 0.84747  0.25293  0.55010  Biso   1.000  O
  O198     1.0000 0.80479  0.28346  0.53787  Biso   1.000  O
  C491     1.0000 0.82923  0.27694  0.55514  Biso   1.000  C
  C492     1.0000 0.83649  0.29873  0.58284  Biso   1.000  C
  S99      1.0000 0.86974  0.29036  0.60739  Biso   1.000  S
  C493     1.0000 0.81850  0.32613  0.59242  Biso   1.000  C
  C494     1.0000 0.86080  0.32321  0.63200  Biso   1.000  C
  H99      1.0000 0.80010  0.33410  0.58190  Biso   1.000  H
  C495     1.0000 0.83310  0.34010  0.62120  Biso   1.000  C
  O199     1.0000 0.84747  0.75293  0.05010  Biso   1.000  O
  O200     1.0000 0.80479  0.78346  0.03787  Biso   1.000  O
  C496     1.0000 0.82923  0.77694  0.05514  Biso   1.000  C
  C497     1.0000 0.83649  0.79873  0.08284  Biso   1.000  C
  S100     1.0000 0.86974  0.79036  0.10739  Biso   1.000  S
  C498     1.0000 0.81850  0.82613  0.09242  Biso   1.000  C
  C499     1.0000 0.86080  0.82321  0.13200  Biso   1.000  C
  H100     1.0000 0.80010  0.83410  0.08190  Biso   1.000  H
  C500     1.0000 0.83310  0.84010  0.12120  Biso   1.000  C
  O201     1.0000 0.65253  0.74707  0.05010  Biso   1.000  O
  O202     1.0000 0.69521  0.71654  0.03787  Biso   1.000  O
  C501     1.0000 0.67077  0.72306  0.05514  Biso   1.000  C
  C502     1.0000 0.66351  0.70127  0.08284  Biso   1.000  C
  S101     1.0000 0.63026  0.70964  0.10739  Biso   1.000  S
  C503     1.0000 0.68150  0.67387  0.09242  Biso   1.000  C
  C504     1.0000 0.63920  0.67679  0.13200  Biso   1.000  C
  H101     1.0000 0.69990  0.66590  0.08190  Biso   1.000  H
  C505     1.0000 0.66690  0.65990  0.12120  Biso   1.000  C
  O203     1.0000 0.65253  0.24707  0.55010  Biso   1.000  O
  O204     1.0000 0.69521  0.21654  0.53787  Biso   1.000  O
  C506     1.0000 0.67077  0.22306  0.55514  Biso   1.000  C
  C507     1.0000 0.66351  0.20127  0.58284  Biso   1.000  C
  S102     1.0000 0.63026  0.20964  0.60739  Biso   1.000  S
  C508     1.0000 0.68150  0.17387  0.59242  Biso   1.000  C
  C509     1.0000 0.63920  0.17679  0.63200  Biso   1.000  C
  H102     1.0000 0.69990  0.16590  0.58190  Biso   1.000  H
  C510     1.0000 0.66690  0.15990  0.62120  Biso   1.000  C
  O205     1.0000 0.15253  0.74707  0.55010  Biso   1.000  O
  O206     1.0000 0.19521  0.71654  0.53787  Biso   1.000  O
  C511     1.0000 0.17077  0.72306  0.55514  Biso   1.000  C
  C512     1.0000 0.16351  0.70127  0.58284  Biso   1.000  C
  S103     1.0000 0.13026  0.70964  0.60739  Biso   1.000  S
  C513     1.0000 0.18150  0.67387  0.59242  Biso   1.000  C
  C514     1.0000 0.13920  0.67679  0.63200  Biso   1.000  C
  H103     1.0000 0.19990  0.66590  0.58190  Biso   1.000  H
  C515     1.0000 0.16690  0.65990  0.62120  Biso   1.000  C
  O207     1.0000 0.15253  0.24707  0.05010  Biso   1.000  O
  O208     1.0000 0.19521  0.21654  0.03787  Biso   1.000  O
  C516     1.0000 0.17077  0.22306  0.05514  Biso   1.000  C
  C517     1.0000 0.16351  0.20127  0.08284  Biso   1.000  C
  S104     1.0000 0.13026  0.20964  0.10739  Biso   1.000  S
  C518     1.0000 0.18150  0.17387  0.09242  Biso   1.000  C
  C519     1.0000 0.13920  0.17679  0.13200  Biso   1.000  C
  H104     1.0000 0.19990  0.16590  0.08190  Biso   1.000  H
  C520     1.0000 0.16690  0.15990  0.12120  Biso   1.000  C
  O209     1.0000 0.65253  0.25293  0.94990  Biso   1.000  O
  O210     1.0000 0.69521  0.28346  0.96213  Biso   1.000  O
  C521     1.0000 0.67077  0.27694  0.94486  Biso   1.000  C
  C522     1.0000 0.66351  0.29873  0.91716  Biso   1.000  C
  S105     1.0000 0.63026  0.29036  0.89261  Biso   1.000  S
  C523     1.0000 0.68150  0.32613  0.90758  Biso   1.000  C
  C524     1.0000 0.63920  0.32321  0.86800  Biso   1.000  C
  H105     1.0000 0.69990  0.33410  0.91810  Biso   1.000  H
  C525     1.0000 0.66690  0.34010  0.87880  Biso   1.000  C
  O211     1.0000 0.65253  0.75293  0.44990  Biso   1.000  O
  O212     1.0000 0.69521  0.78346  0.46213  Biso   1.000  O
  C526     1.0000 0.67077  0.77694  0.44486  Biso   1.000  C
  C527     1.0000 0.66351  0.79873  0.41716  Biso   1.000  C
  S106     1.0000 0.63026  0.79036  0.39261  Biso   1.000  S
  C528     1.0000 0.68150  0.82613  0.40758  Biso   1.000  C
  C529     1.0000 0.63920  0.82321  0.36800  Biso   1.000  C
  H106     1.0000 0.69990  0.83410  0.41810  Biso   1.000  H
  C530     1.0000 0.66690  0.84010  0.37880  Biso   1.000  C
  O213     1.0000 0.15253  0.25293  0.44990  Biso   1.000  O
  O214     1.0000 0.19521  0.28346  0.46213  Biso   1.000  O
  C531     1.0000 0.17077  0.27694  0.44486  Biso   1.000  C
  C532     1.0000 0.16351  0.29873  0.41716  Biso   1.000  C
  S107     1.0000 0.13026  0.29036  0.39261  Biso   1.000  S
  C533     1.0000 0.18150  0.32613  0.40758  Biso   1.000  C
  C534     1.0000 0.13920  0.32321  0.36800  Biso   1.000  C
  H107     1.0000 0.19990  0.33410  0.41810  Biso   1.000  H
  C535     1.0000 0.16690  0.34010  0.37880  Biso   1.000  C
  O215     1.0000 0.15253  0.75293  0.94990  Biso   1.000  O
  O216     1.0000 0.19521  0.78346  0.96213  Biso   1.000  O
  C536     1.0000 0.17077  0.77694  0.94486  Biso   1.000  C
  C537     1.0000 0.16351  0.79873  0.91716  Biso   1.000  C
  S108     1.0000 0.13026  0.79036  0.89261  Biso   1.000  S
  C538     1.0000 0.18150  0.82613  0.90758  Biso   1.000  C
  C539     1.0000 0.13920  0.82321  0.86800  Biso   1.000  C
  H108     1.0000 0.19990  0.83410  0.91810  Biso   1.000  H
  C540     1.0000 0.16690  0.84010  0.87880  Biso   1.000  C
  O217     1.0000 0.34747  0.74707  0.94990  Biso   1.000  O
  O218     1.0000 0.30479  0.71654  0.96213  Biso   1.000  O
  C541     1.0000 0.32923  0.72306  0.94486  Biso   1.000  C
  C542     1.0000 0.33649  0.70127  0.91716  Biso   1.000  C
  S109     1.0000 0.36974  0.70964  0.89261  Biso   1.000  S
  C543     1.0000 0.31850  0.67387  0.90758  Biso   1.000  C
  C544     1.0000 0.36080  0.67679  0.86800  Biso   1.000  C
  H109     1.0000 0.30010  0.66590  0.91810  Biso   1.000  H
  C545     1.0000 0.33310  0.65990  0.87880  Biso   1.000  C
  O219     1.0000 0.34747  0.24707  0.44990  Biso   1.000  O
  O220     1.0000 0.30479  0.21654  0.46213  Biso   1.000  O
  C546     1.0000 0.32923  0.22306  0.44486  Biso   1.000  C
  C547     1.0000 0.33649  0.20127  0.41716  Biso   1.000  C
  S110     1.0000 0.36974  0.20964  0.39261  Biso   1.000  S
  C548     1.0000 0.31850  0.17387  0.40758  Biso   1.000  C
  C549     1.0000 0.36080  0.17679  0.36800  Biso   1.000  C
  H110     1.0000 0.30010  0.16590  0.41810  Biso   1.000  H
  C550     1.0000 0.33310  0.15990  0.37880  Biso   1.000  C
  O221     1.0000 0.84747  0.74707  0.44990  Biso   1.000  O
  O222     1.0000 0.80479  0.71654  0.46213  Biso   1.000  O
  C551     1.0000 0.82923  0.72306  0.44486  Biso   1.000  C
  C552     1.0000 0.83649  0.70127  0.41716  Biso   1.000  C
  S111     1.0000 0.86974  0.70964  0.39261  Biso   1.000  S
  C553     1.0000 0.81850  0.67387  0.40758  Biso   1.000  C
  C554     1.0000 0.86080  0.67679  0.36800  Biso   1.000  C
  H111     1.0000 0.80010  0.66590  0.41810  Biso   1.000  H
  C555     1.0000 0.83310  0.65990  0.37880  Biso   1.000  C
  O223     1.0000 0.84747  0.24707  0.94990  Biso   1.000  O
  O224     1.0000 0.80479  0.21654  0.96213  Biso   1.000  O
  C556     1.0000 0.82923  0.22306  0.94486  Biso   1.000  C
  C557     1.0000 0.83649  0.20127  0.91716  Biso   1.000  C
  S112     1.0000 0.86974  0.20964  0.89261  Biso   1.000  S
  C558     1.0000 0.81850  0.17387  0.90758  Biso   1.000  C
  C559     1.0000 0.86080  0.17679  0.86800  Biso   1.000  C
  H112     1.0000 0.80010  0.16590  0.91810  Biso   1.000  H
  C560     1.0000 0.83310  0.15990  0.87880  Biso   1.000  C
  O225     1.0000 0.05010  0.34747  0.25293  Biso   1.000  O
  O226     1.0000 0.03787  0.30479  0.28346  Biso   1.000  O
  C561     1.0000 0.05514  0.32923  0.27694  Biso   1.000  C
  C562     1.0000 0.08284  0.33649  0.29873  Biso   1.000  C
  S113     1.0000 0.10739  0.36974  0.29036  Biso   1.000  S
  C563     1.0000 0.09242  0.31850  0.32613  Biso   1.000  C
  C564     1.0000 0.13200  0.36080  0.32321  Biso   1.000  C
  H113     1.0000 0.08190  0.30010  0.33410  Biso   1.000  H
  C565     1.0000 0.12120  0.33310  0.34010  Biso   1.000  C
  O227     1.0000 0.05010  0.84747  0.75293  Biso   1.000  O
  O228     1.0000 0.03787  0.80479  0.78346  Biso   1.000  O
  C566     1.0000 0.05514  0.82923  0.77694  Biso   1.000  C
  C567     1.0000 0.08284  0.83649  0.79873  Biso   1.000  C
  S114     1.0000 0.10739  0.86974  0.79036  Biso   1.000  S
  C568     1.0000 0.09242  0.81850  0.82613  Biso   1.000  C
  C569     1.0000 0.13200  0.86080  0.82321  Biso   1.000  C
  H114     1.0000 0.08190  0.80010  0.83410  Biso   1.000  H
  C570     1.0000 0.12120  0.83310  0.84010  Biso   1.000  C
  O229     1.0000 0.55010  0.34747  0.75293  Biso   1.000  O
  O230     1.0000 0.53787  0.30479  0.78346  Biso   1.000  O
  C571     1.0000 0.55514  0.32923  0.77694  Biso   1.000  C
  C572     1.0000 0.58284  0.33649  0.79873  Biso   1.000  C
  S115     1.0000 0.60739  0.36974  0.79036  Biso   1.000  S
  C573     1.0000 0.59242  0.31850  0.82613  Biso   1.000  C
  C574     1.0000 0.63200  0.36080  0.82321  Biso   1.000  C
  H115     1.0000 0.58190  0.30010  0.83410  Biso   1.000  H
  C575     1.0000 0.62120  0.33310  0.84010  Biso   1.000  C
  O231     1.0000 0.55010  0.84747  0.25293  Biso   1.000  O
  O232     1.0000 0.53787  0.80479  0.28346  Biso   1.000  O
  C576     1.0000 0.55514  0.82923  0.27694  Biso   1.000  C
  C577     1.0000 0.58284  0.83649  0.29873  Biso   1.000  C
  S116     1.0000 0.60739  0.86974  0.29036  Biso   1.000  S
  C578     1.0000 0.59242  0.81850  0.32613  Biso   1.000  C
  C579     1.0000 0.63200  0.86080  0.32321  Biso   1.000  C
  H116     1.0000 0.58190  0.80010  0.33410  Biso   1.000  H
  C580     1.0000 0.62120  0.83310  0.34010  Biso   1.000  C
  O233     1.0000 0.05010  0.65253  0.74707  Biso   1.000  O
  O234     1.0000 0.03787  0.69521  0.71654  Biso   1.000  O
  C581     1.0000 0.05514  0.67077  0.72306  Biso   1.000  C
  C582     1.0000 0.08284  0.66351  0.70127  Biso   1.000  C
  S117     1.0000 0.10739  0.63026  0.70964  Biso   1.000  S
  C583     1.0000 0.09242  0.68150  0.67387  Biso   1.000  C
  C584     1.0000 0.13200  0.63920  0.67679  Biso   1.000  C
  H117     1.0000 0.08190  0.69990  0.66590  Biso   1.000  H
  C585     1.0000 0.12120  0.66690  0.65990  Biso   1.000  C
  O235     1.0000 0.05010  0.15253  0.24707  Biso   1.000  O
  O236     1.0000 0.03787  0.19521  0.21654  Biso   1.000  O
  C586     1.0000 0.05514  0.17077  0.22306  Biso   1.000  C
  C587     1.0000 0.08284  0.16351  0.20127  Biso   1.000  C
  S118     1.0000 0.10739  0.13026  0.20964  Biso   1.000  S
  C588     1.0000 0.09242  0.18150  0.17387  Biso   1.000  C
  C589     1.0000 0.13200  0.13920  0.17679  Biso   1.000  C
  H118     1.0000 0.08190  0.19990  0.16590  Biso   1.000  H
  C590     1.0000 0.12120  0.16690  0.15990  Biso   1.000  C
  O237     1.0000 0.55010  0.65253  0.24707  Biso   1.000  O
  O238     1.0000 0.53787  0.69521  0.21654  Biso   1.000  O
  C591     1.0000 0.55514  0.67077  0.22306  Biso   1.000  C
  C592     1.0000 0.58284  0.66351  0.20127  Biso   1.000  C
  S119     1.0000 0.60739  0.63026  0.20964  Biso   1.000  S
  C593     1.0000 0.59242  0.68150  0.17387  Biso   1.000  C
  C594     1.0000 0.63200  0.63920  0.17679  Biso   1.000  C
  H119     1.0000 0.58190  0.69990  0.16590  Biso   1.000  H
  C595     1.0000 0.62120  0.66690  0.15990  Biso   1.000  C
  O239     1.0000 0.55010  0.15253  0.74707  Biso   1.000  O
  O240     1.0000 0.53787  0.19521  0.71654  Biso   1.000  O
  C596     1.0000 0.55514  0.17077  0.72306  Biso   1.000  C
  C597     1.0000 0.58284  0.16351  0.70127  Biso   1.000  C
  S120     1.0000 0.60739  0.13026  0.70964  Biso   1.000  S
  C598     1.0000 0.59242  0.18150  0.67387  Biso   1.000  C
  C599     1.0000 0.63200  0.13920  0.67679  Biso   1.000  C
  H120     1.0000 0.58190  0.19990  0.66590  Biso   1.000  H
  C600     1.0000 0.62120  0.16690  0.65990  Biso   1.000  C
  O241     1.0000 0.94990  0.65253  0.25293  Biso   1.000  O
  O242     1.0000 0.96213  0.69521  0.28346  Biso   1.000  O
  C601     1.0000 0.94486  0.67077  0.27694  Biso   1.000  C
  C602     1.0000 0.91716  0.66351  0.29873  Biso   1.000  C
  S121     1.0000 0.89261  0.63026  0.29036  Biso   1.000  S
  C603     1.0000 0.90758  0.68150  0.32613  Biso   1.000  C
  C604     1.0000 0.86800  0.63920  0.32321  Biso   1.000  C
  H121     1.0000 0.91810  0.69990  0.33410  Biso   1.000  H
  C605     1.0000 0.87880  0.66690  0.34010  Biso   1.000  C
  O243     1.0000 0.94990  0.15253  0.75293  Biso   1.000  O
  O244     1.0000 0.96213  0.19521  0.78346  Biso   1.000  O
  C606     1.0000 0.94486  0.17077  0.77694  Biso   1.000  C
  C607     1.0000 0.91716  0.16351  0.79873  Biso   1.000  C
  S122     1.0000 0.89261  0.13026  0.79036  Biso   1.000  S
  C608     1.0000 0.90758  0.18150  0.82613  Biso   1.000  C
  C609     1.0000 0.86800  0.13920  0.82321  Biso   1.000  C
  H122     1.0000 0.91810  0.19990  0.83410  Biso   1.000  H
  C610     1.0000 0.87880  0.16690  0.84010  Biso   1.000  C
  O245     1.0000 0.44990  0.65253  0.75293  Biso   1.000  O
  O246     1.0000 0.46213  0.69521  0.78346  Biso   1.000  O
  C611     1.0000 0.44486  0.67077  0.77694  Biso   1.000  C
  C612     1.0000 0.41716  0.66351  0.79873  Biso   1.000  C
  S123     1.0000 0.39261  0.63026  0.79036  Biso   1.000  S
  C613     1.0000 0.40758  0.68150  0.82613  Biso   1.000  C
  C614     1.0000 0.36800  0.63920  0.82321  Biso   1.000  C
  H123     1.0000 0.41810  0.69990  0.83410  Biso   1.000  H
  C615     1.0000 0.37880  0.66690  0.84010  Biso   1.000  C
  O247     1.0000 0.44990  0.15253  0.25293  Biso   1.000  O
  O248     1.0000 0.46213  0.19521  0.28346  Biso   1.000  O
  C616     1.0000 0.44486  0.17077  0.27694  Biso   1.000  C
  C617     1.0000 0.41716  0.16351  0.29873  Biso   1.000  C
  S124     1.0000 0.39261  0.13026  0.29036  Biso   1.000  S
  C618     1.0000 0.40758  0.18150  0.32613  Biso   1.000  C
  C619     1.0000 0.36800  0.13920  0.32321  Biso   1.000  C
  H124     1.0000 0.41810  0.19990  0.33410  Biso   1.000  H
  C620     1.0000 0.37880  0.16690  0.34010  Biso   1.000  C
  O249     1.0000 0.94990  0.34747  0.74707  Biso   1.000  O
  O250     1.0000 0.96213  0.30479  0.71654  Biso   1.000  O
  C621     1.0000 0.94486  0.32923  0.72306  Biso   1.000  C
  C622     1.0000 0.91716  0.33649  0.70127  Biso   1.000  C
  S125     1.0000 0.89261  0.36974  0.70964  Biso   1.000  S
  C623     1.0000 0.90758  0.31850  0.67387  Biso   1.000  C
  C624     1.0000 0.86800  0.36080  0.67679  Biso   1.000  C
  H125     1.0000 0.91810  0.30010  0.66590  Biso   1.000  H
  C625     1.0000 0.87880  0.33310  0.65990  Biso   1.000  C
  O251     1.0000 0.94990  0.84747  0.24707  Biso   1.000  O
  O252     1.0000 0.96213  0.80479  0.21654  Biso   1.000  O
  C626     1.0000 0.94486  0.82923  0.22306  Biso   1.000  C
  C627     1.0000 0.91716  0.83649  0.20127  Biso   1.000  C
  S126     1.0000 0.89261  0.86974  0.20964  Biso   1.000  S
  C628     1.0000 0.90758  0.81850  0.17387  Biso   1.000  C
  C629     1.0000 0.86800  0.86080  0.17679  Biso   1.000  C
  H126     1.0000 0.91810  0.80010  0.16590  Biso   1.000  H
  C630     1.0000 0.87880  0.83310  0.15990  Biso   1.000  C
  O253     1.0000 0.44990  0.34747  0.24707  Biso   1.000  O
  O254     1.0000 0.46213  0.30479  0.21654  Biso   1.000  O
  C631     1.0000 0.44486  0.32923  0.22306  Biso   1.000  C
  C632     1.0000 0.41716  0.33649  0.20127  Biso   1.000  C
  S127     1.0000 0.39261  0.36974  0.20964  Biso   1.000  S
  C633     1.0000 0.40758  0.31850  0.17387  Biso   1.000  C
  C634     1.0000 0.36800  0.36080  0.17679  Biso   1.000  C
  H127     1.0000 0.41810  0.30010  0.16590  Biso   1.000  H
  C635     1.0000 0.37880  0.33310  0.15990  Biso   1.000  C
  O255     1.0000 0.44990  0.84747  0.74707  Biso   1.000  O
  O256     1.0000 0.46213  0.80479  0.71654  Biso   1.000  O
  C636     1.0000 0.44486  0.82923  0.72306  Biso   1.000  C
  C637     1.0000 0.41716  0.83649  0.70127  Biso   1.000  C
  S128     1.0000 0.39261  0.86974  0.70964  Biso   1.000  S
  C638     1.0000 0.40758  0.81850  0.67387  Biso   1.000  C
  C639     1.0000 0.36800  0.86080  0.67679  Biso   1.000  C
  H128     1.0000 0.41810  0.80010  0.66590  Biso   1.000  H
  C640     1.0000 0.37880  0.83310  0.65990  Biso   1.000  C
  O257     1.0000 0.25293  0.05010  0.34747  Biso   1.000  O
  O258     1.0000 0.28346  0.03787  0.30479  Biso   1.000  O
  C641     1.0000 0.27694  0.05514  0.32923  Biso   1.000  C
  C642     1.0000 0.29873  0.08284  0.33649  Biso   1.000  C
  S129     1.0000 0.29036  0.10739  0.36974  Biso   1.000  S
  C643     1.0000 0.32613  0.09242  0.31850  Biso   1.000  C
  C644     1.0000 0.32321  0.13200  0.36080  Biso   1.000  C
  H129     1.0000 0.33410  0.08190  0.30010  Biso   1.000  H
  C645     1.0000 0.34010  0.12120  0.33310  Biso   1.000  C
  O259     1.0000 0.25293  0.55010  0.84747  Biso   1.000  O
  O260     1.0000 0.28346  0.53787  0.80479  Biso   1.000  O
  C646     1.0000 0.27694  0.55514  0.82923  Biso   1.000  C
  C647     1.0000 0.29873  0.58284  0.83649  Biso   1.000  C
  S130     1.0000 0.29036  0.60739  0.86974  Biso   1.000  S
  C648     1.0000 0.32613  0.59242  0.81850  Biso   1.000  C
  C649     1.0000 0.32321  0.63200  0.86080  Biso   1.000  C
  H130     1.0000 0.33410  0.58190  0.80010  Biso   1.000  H
  C650     1.0000 0.34010  0.62120  0.83310  Biso   1.000  C
  O261     1.0000 0.75293  0.05010  0.84747  Biso   1.000  O
  O262     1.0000 0.78346  0.03787  0.80479  Biso   1.000  O
  C651     1.0000 0.77694  0.05514  0.82923  Biso   1.000  C
  C652     1.0000 0.79873  0.08284  0.83649  Biso   1.000  C
  S131     1.0000 0.79036  0.10739  0.86974  Biso   1.000  S
  C653     1.0000 0.82613  0.09242  0.81850  Biso   1.000  C
  C654     1.0000 0.82321  0.13200  0.86080  Biso   1.000  C
  H131     1.0000 0.83410  0.08190  0.80010  Biso   1.000  H
  C655     1.0000 0.84010  0.12120  0.83310  Biso   1.000  C
  O263     1.0000 0.75293  0.55010  0.34747  Biso   1.000  O
  O264     1.0000 0.78346  0.53787  0.30479  Biso   1.000  O
  C656     1.0000 0.77694  0.55514  0.32923  Biso   1.000  C
  C657     1.0000 0.79873  0.58284  0.33649  Biso   1.000  C
  S132     1.0000 0.79036  0.60739  0.36974  Biso   1.000  S
  C658     1.0000 0.82613  0.59242  0.31850  Biso   1.000  C
  C659     1.0000 0.82321  0.63200  0.36080  Biso   1.000  C
  H132     1.0000 0.83410  0.58190  0.30010  Biso   1.000  H
  C660     1.0000 0.84010  0.62120  0.33310  Biso   1.000  C
  O265     1.0000 0.74707  0.05010  0.65253  Biso   1.000  O
  O266     1.0000 0.71654  0.03787  0.69521  Biso   1.000  O
  C661     1.0000 0.72306  0.05514  0.67077  Biso   1.000  C
  C662     1.0000 0.70127  0.08284  0.66351  Biso   1.000  C
  S133     1.0000 0.70964  0.10739  0.63026  Biso   1.000  S
  C663     1.0000 0.67387  0.09242  0.68150  Biso   1.000  C
  C664     1.0000 0.67679  0.13200  0.63920  Biso   1.000  C
  H133     1.0000 0.66590  0.08190  0.69990  Biso   1.000  H
  C665     1.0000 0.65990  0.12120  0.66690  Biso   1.000  C
  O267     1.0000 0.74707  0.55010  0.15253  Biso   1.000  O
  O268     1.0000 0.71654  0.53787  0.19521  Biso   1.000  O
  C666     1.0000 0.72306  0.55514  0.17077  Biso   1.000  C
  C667     1.0000 0.70127  0.58284  0.16351  Biso   1.000  C
  S134     1.0000 0.70964  0.60739  0.13026  Biso   1.000  S
  C668     1.0000 0.67387  0.59242  0.18150  Biso   1.000  C
  C669     1.0000 0.67679  0.63200  0.13920  Biso   1.000  C
  H134     1.0000 0.66590  0.58190  0.19990  Biso   1.000  H
  C670     1.0000 0.65990  0.62120  0.16690  Biso   1.000  C
  O269     1.0000 0.24707  0.05010  0.15253  Biso   1.000  O
  O270     1.0000 0.21654  0.03787  0.19521  Biso   1.000  O
  C671     1.0000 0.22306  0.05514  0.17077  Biso   1.000  C
  C672     1.0000 0.20127  0.08284  0.16351  Biso   1.000  C
  S135     1.0000 0.20964  0.10739  0.13026  Biso   1.000  S
  C673     1.0000 0.17387  0.09242  0.18150  Biso   1.000  C
  C674     1.0000 0.17679  0.13200  0.13920  Biso   1.000  C
  H135     1.0000 0.16590  0.08190  0.19990  Biso   1.000  H
  C675     1.0000 0.15990  0.12120  0.16690  Biso   1.000  C
  O271     1.0000 0.24707  0.55010  0.65253  Biso   1.000  O
  O272     1.0000 0.21654  0.53787  0.69521  Biso   1.000  O
  C676     1.0000 0.22306  0.55514  0.67077  Biso   1.000  C
  C677     1.0000 0.20127  0.58284  0.66351  Biso   1.000  C
  S136     1.0000 0.20964  0.60739  0.63026  Biso   1.000  S
  C678     1.0000 0.17387  0.59242  0.68150  Biso   1.000  C
  C679     1.0000 0.17679  0.63200  0.63920  Biso   1.000  C
  H136     1.0000 0.16590  0.58190  0.69990  Biso   1.000  H
  C680     1.0000 0.15990  0.62120  0.66690  Biso   1.000  C
  O273     1.0000 0.25293  0.94990  0.65253  Biso   1.000  O
  O274     1.0000 0.28346  0.96213  0.69521  Biso   1.000  O
  C681     1.0000 0.27694  0.94486  0.67077  Biso   1.000  C
  C682     1.0000 0.29873  0.91716  0.66351  Biso   1.000  C
  S137     1.0000 0.29036  0.89261  0.63026  Biso   1.000  S
  C683     1.0000 0.32613  0.90758  0.68150  Biso   1.000  C
  C684     1.0000 0.32321  0.86800  0.63920  Biso   1.000  C
  H137     1.0000 0.33410  0.91810  0.69990  Biso   1.000  H
  C685     1.0000 0.34010  0.87880  0.66690  Biso   1.000  C
  O275     1.0000 0.25293  0.44990  0.15253  Biso   1.000  O
  O276     1.0000 0.28346  0.46213  0.19521  Biso   1.000  O
  C686     1.0000 0.27694  0.44486  0.17077  Biso   1.000  C
  C687     1.0000 0.29873  0.41716  0.16351  Biso   1.000  C
  S138     1.0000 0.29036  0.39261  0.13026  Biso   1.000  S
  C688     1.0000 0.32613  0.40758  0.18150  Biso   1.000  C
  C689     1.0000 0.32321  0.36800  0.13920  Biso   1.000  C
  H138     1.0000 0.33410  0.41810  0.19990  Biso   1.000  H
  C690     1.0000 0.34010  0.37880  0.16690  Biso   1.000  C
  O277     1.0000 0.75293  0.94990  0.15253  Biso   1.000  O
  O278     1.0000 0.78346  0.96213  0.19521  Biso   1.000  O
  C691     1.0000 0.77694  0.94486  0.17077  Biso   1.000  C
  C692     1.0000 0.79873  0.91716  0.16351  Biso   1.000  C
  S139     1.0000 0.79036  0.89261  0.13026  Biso   1.000  S
  C693     1.0000 0.82613  0.90758  0.18150  Biso   1.000  C
  C694     1.0000 0.82321  0.86800  0.13920  Biso   1.000  C
  H139     1.0000 0.83410  0.91810  0.19990  Biso   1.000  H
  C695     1.0000 0.84010  0.87880  0.16690  Biso   1.000  C
  O279     1.0000 0.75293  0.44990  0.65253  Biso   1.000  O
  O280     1.0000 0.78346  0.46213  0.69521  Biso   1.000  O
  C696     1.0000 0.77694  0.44486  0.67077  Biso   1.000  C
  C697     1.0000 0.79873  0.41716  0.66351  Biso   1.000  C
  S140     1.0000 0.79036  0.39261  0.63026  Biso   1.000  S
  C698     1.0000 0.82613  0.40758  0.68150  Biso   1.000  C
  C699     1.0000 0.82321  0.36800  0.63920  Biso   1.000  C
  H140     1.0000 0.83410  0.41810  0.69990  Biso   1.000  H
  C700     1.0000 0.84010  0.37880  0.66690  Biso   1.000  C
  O281     1.0000 0.74707  0.94990  0.34747  Biso   1.000  O
  O282     1.0000 0.71654  0.96213  0.30479  Biso   1.000  O
  C701     1.0000 0.72306  0.94486  0.32923  Biso   1.000  C
  C702     1.0000 0.70127  0.91716  0.33649  Biso   1.000  C
  S141     1.0000 0.70964  0.89261  0.36974  Biso   1.000  S
  C703     1.0000 0.67387  0.90758  0.31850  Biso   1.000  C
  C704     1.0000 0.67679  0.86800  0.36080  Biso   1.000  C
  H141     1.0000 0.66590  0.91810  0.30010  Biso   1.000  H
  C705     1.0000 0.65990  0.87880  0.33310  Biso   1.000  C
  O283     1.0000 0.74707  0.44990  0.84747  Biso   1.000  O
  O284     1.0000 0.71654  0.46213  0.80479  Biso   1.000  O
  C706     1.0000 0.72306  0.44486  0.82923  Biso   1.000  C
  C707     1.0000 0.70127  0.41716  0.83649  Biso   1.000  C
  S142     1.0000 0.70964  0.39261  0.86974  Biso   1.000  S
  C708     1.0000 0.67387  0.40758  0.81850  Biso   1.000  C
  C709     1.0000 0.67679  0.36800  0.86080  Biso   1.000  C
  H142     1.0000 0.66590  0.41810  0.80010  Biso   1.000  H
  C710     1.0000 0.65990  0.37880  0.83310  Biso   1.000  C
  O285     1.0000 0.24707  0.94990  0.84747  Biso   1.000  O
  O286     1.0000 0.21654  0.96213  0.80479  Biso   1.000  O
  C711     1.0000 0.22306  0.94486  0.82923  Biso   1.000  C
  C712     1.0000 0.20127  0.91716  0.83649  Biso   1.000  C
  S143     1.0000 0.20964  0.89261  0.86974  Biso   1.000  S
  C713     1.0000 0.17387  0.90758  0.81850  Biso   1.000  C
  C714     1.0000 0.17679  0.86800  0.86080  Biso   1.000  C
  H143     1.0000 0.16590  0.91810  0.80010  Biso   1.000  H
  C715     1.0000 0.15990  0.87880  0.83310  Biso   1.000  C
  O287     1.0000 0.24707  0.44990  0.34747  Biso   1.000  O
  O288     1.0000 0.21654  0.46213  0.30479  Biso   1.000  O
  C716     1.0000 0.22306  0.44486  0.32923  Biso   1.000  C
  C717     1.0000 0.20127  0.41716  0.33649  Biso   1.000  C
  S144     1.0000 0.20964  0.39261  0.36974  Biso   1.000  S
  C718     1.0000 0.17387  0.40758  0.31850  Biso   1.000  C
  C719     1.0000 0.17679  0.36800  0.36080  Biso   1.000  C
  H144     1.0000 0.16590  0.41810  0.30010  Biso   1.000  H
  C720     1.0000 0.15990  0.37880  0.33310  Biso   1.000  C
  O289     1.0000 0.75293  0.84747  0.44990  Biso   1.000  O
  O290     1.0000 0.78346  0.80479  0.46213  Biso   1.000  O
  C721     1.0000 0.77694  0.82923  0.44486  Biso   1.000  C
  C722     1.0000 0.79873  0.83649  0.41716  Biso   1.000  C
  S145     1.0000 0.79036  0.86974  0.39261  Biso   1.000  S
  C723     1.0000 0.82613  0.81850  0.40758  Biso   1.000  C
  C724     1.0000 0.82321  0.86080  0.36800  Biso   1.000  C
  H145     1.0000 0.83410  0.80010  0.41810  Biso   1.000  H
  C725     1.0000 0.84010  0.83310  0.37880  Biso   1.000  C
  O291     1.0000 0.75293  0.34747  0.94990  Biso   1.000  O
  O292     1.0000 0.78346  0.30479  0.96213  Biso   1.000  O
  C726     1.0000 0.77694  0.32923  0.94486  Biso   1.000  C
  C727     1.0000 0.79873  0.33649  0.91716  Biso   1.000  C
  S146     1.0000 0.79036  0.36974  0.89261  Biso   1.000  S
  C728     1.0000 0.82613  0.31850  0.90758  Biso   1.000  C
  C729     1.0000 0.82321  0.36080  0.86800  Biso   1.000  C
  H146     1.0000 0.83410  0.30010  0.91810  Biso   1.000  H
  C730     1.0000 0.84010  0.33310  0.87880  Biso   1.000  C
  O293     1.0000 0.25293  0.84747  0.94990  Biso   1.000  O
  O294     1.0000 0.28346  0.80479  0.96213  Biso   1.000  O
  C731     1.0000 0.27694  0.82923  0.94486  Biso   1.000  C
  C732     1.0000 0.29873  0.83649  0.91716  Biso   1.000  C
  S147     1.0000 0.29036  0.86974  0.89261  Biso   1.000  S
  C733     1.0000 0.32613  0.81850  0.90758  Biso   1.000  C
  C734     1.0000 0.32321  0.86080  0.86800  Biso   1.000  C
  H147     1.0000 0.33410  0.80010  0.91810  Biso   1.000  H
  C735     1.0000 0.34010  0.83310  0.87880  Biso   1.000  C
  O295     1.0000 0.25293  0.34747  0.44990  Biso   1.000  O
  O296     1.0000 0.28346  0.30479  0.46213  Biso   1.000  O
  C736     1.0000 0.27694  0.32923  0.44486  Biso   1.000  C
  C737     1.0000 0.29873  0.33649  0.41716  Biso   1.000  C
  S148     1.0000 0.29036  0.36974  0.39261  Biso   1.000  S
  C738     1.0000 0.32613  0.31850  0.40758  Biso   1.000  C
  C739     1.0000 0.32321  0.36080  0.36800  Biso   1.000  C
  H148     1.0000 0.33410  0.30010  0.41810  Biso   1.000  H
  C740     1.0000 0.34010  0.33310  0.37880  Biso   1.000  C
  O297     1.0000 0.24707  0.15253  0.44990  Biso   1.000  O
  O298     1.0000 0.21654  0.19521  0.46213  Biso   1.000  O
  C741     1.0000 0.22306  0.17077  0.44486  Biso   1.000  C
  C742     1.0000 0.20127  0.16351  0.41716  Biso   1.000  C
  S149     1.0000 0.20964  0.13026  0.39261  Biso   1.000  S
  C743     1.0000 0.17387  0.18150  0.40758  Biso   1.000  C
  C744     1.0000 0.17679  0.13920  0.36800  Biso   1.000  C
  H149     1.0000 0.16590  0.19990  0.41810  Biso   1.000  H
  C745     1.0000 0.15990  0.16690  0.37880  Biso   1.000  C
  O299     1.0000 0.24707  0.65253  0.94990  Biso   1.000  O
  O300     1.0000 0.21654  0.69521  0.96213  Biso   1.000  O
  C746     1.0000 0.22306  0.67077  0.94486  Biso   1.000  C
  C747     1.0000 0.20127  0.66351  0.91716  Biso   1.000  C
  S150     1.0000 0.20964  0.63026  0.89261  Biso   1.000  S
  C748     1.0000 0.17387  0.68150  0.90758  Biso   1.000  C
  C749     1.0000 0.17679  0.63920  0.86800  Biso   1.000  C
  H150     1.0000 0.16590  0.69990  0.91810  Biso   1.000  H
  C750     1.0000 0.15990  0.66690  0.87880  Biso   1.000  C
  O301     1.0000 0.74707  0.15253  0.94990  Biso   1.000  O
  O302     1.0000 0.71654  0.19521  0.96213  Biso   1.000  O
  C751     1.0000 0.72306  0.17077  0.94486  Biso   1.000  C
  C752     1.0000 0.70127  0.16351  0.91716  Biso   1.000  C
  S151     1.0000 0.70964  0.13026  0.89261  Biso   1.000  S
  C753     1.0000 0.67387  0.18150  0.90758  Biso   1.000  C
  C754     1.0000 0.67679  0.13920  0.86800  Biso   1.000  C
  H151     1.0000 0.66590  0.19990  0.91810  Biso   1.000  H
  C755     1.0000 0.65990  0.16690  0.87880  Biso   1.000  C
  O303     1.0000 0.74707  0.65253  0.44990  Biso   1.000  O
  O304     1.0000 0.71654  0.69521  0.46213  Biso   1.000  O
  C756     1.0000 0.72306  0.67077  0.44486  Biso   1.000  C
  C757     1.0000 0.70127  0.66351  0.41716  Biso   1.000  C
  S152     1.0000 0.70964  0.63026  0.39261  Biso   1.000  S
  C758     1.0000 0.67387  0.68150  0.40758  Biso   1.000  C
  C759     1.0000 0.67679  0.63920  0.36800  Biso   1.000  C
  H152     1.0000 0.66590  0.69990  0.41810  Biso   1.000  H
  C760     1.0000 0.65990  0.66690  0.37880  Biso   1.000  C
  O305     1.0000 0.75293  0.15253  0.55010  Biso   1.000  O
  O306     1.0000 0.78346  0.19521  0.53787  Biso   1.000  O
  C761     1.0000 0.77694  0.17077  0.55514  Biso   1.000  C
  C762     1.0000 0.79873  0.16351  0.58284  Biso   1.000  C
  S153     1.0000 0.79036  0.13026  0.60739  Biso   1.000  S
  C763     1.0000 0.82613  0.18150  0.59242  Biso   1.000  C
  C764     1.0000 0.82321  0.13920  0.63200  Biso   1.000  C
  H153     1.0000 0.83410  0.19990  0.58190  Biso   1.000  H
  C765     1.0000 0.84010  0.16690  0.62120  Biso   1.000  C
  O307     1.0000 0.75293  0.65253  0.05010  Biso   1.000  O
  O308     1.0000 0.78346  0.69521  0.03787  Biso   1.000  O
  C766     1.0000 0.77694  0.67077  0.05514  Biso   1.000  C
  C767     1.0000 0.79873  0.66351  0.08284  Biso   1.000  C
  S154     1.0000 0.79036  0.63026  0.10739  Biso   1.000  S
  C768     1.0000 0.82613  0.68150  0.09242  Biso   1.000  C
  C769     1.0000 0.82321  0.63920  0.13200  Biso   1.000  C
  H154     1.0000 0.83410  0.69990  0.08190  Biso   1.000  H
  C770     1.0000 0.84010  0.66690  0.12120  Biso   1.000  C
  O309     1.0000 0.25293  0.15253  0.05010  Biso   1.000  O
  O310     1.0000 0.28346  0.19521  0.03787  Biso   1.000  O
  C771     1.0000 0.27694  0.17077  0.05514  Biso   1.000  C
  C772     1.0000 0.29873  0.16351  0.08284  Biso   1.000  C
  S155     1.0000 0.29036  0.13026  0.10739  Biso   1.000  S
  C773     1.0000 0.32613  0.18150  0.09242  Biso   1.000  C
  C774     1.0000 0.32321  0.13920  0.13200  Biso   1.000  C
  H155     1.0000 0.33410  0.19990  0.08190  Biso   1.000  H
  C775     1.0000 0.34010  0.16690  0.12120  Biso   1.000  C
  O311     1.0000 0.25293  0.65253  0.55010  Biso   1.000  O
  O312     1.0000 0.28346  0.69521  0.53787  Biso   1.000  O
  C776     1.0000 0.27694  0.67077  0.55514  Biso   1.000  C
  C777     1.0000 0.29873  0.66351  0.58284  Biso   1.000  C
  S156     1.0000 0.29036  0.63026  0.60739  Biso   1.000  S
  C778     1.0000 0.32613  0.68150  0.59242  Biso   1.000  C
  C779     1.0000 0.32321  0.63920  0.63200  Biso   1.000  C
  H156     1.0000 0.33410  0.69990  0.58190  Biso   1.000  H
  C780     1.0000 0.34010  0.66690  0.62120  Biso   1.000  C
  O313     1.0000 0.24707  0.84747  0.55010  Biso   1.000  O
  O314     1.0000 0.21654  0.80479  0.53787  Biso   1.000  O
  C781     1.0000 0.22306  0.82923  0.55514  Biso   1.000  C
  C782     1.0000 0.20127  0.83649  0.58284  Biso   1.000  C
  S157     1.0000 0.20964  0.86974  0.60739  Biso   1.000  S
  C783     1.0000 0.17387  0.81850  0.59242  Biso   1.000  C
  C784     1.0000 0.17679  0.86080  0.63200  Biso   1.000  C
  H157     1.0000 0.16590  0.80010  0.58190  Biso   1.000  H
  C785     1.0000 0.15990  0.83310  0.62120  Biso   1.000  C
  O315     1.0000 0.24707  0.34747  0.05010  Biso   1.000  O
  O316     1.0000 0.21654  0.30479  0.03787  Biso   1.000  O
  C786     1.0000 0.22306  0.32923  0.05514  Biso   1.000  C
  C787     1.0000 0.20127  0.33649  0.08284  Biso   1.000  C
  S158     1.0000 0.20964  0.36974  0.10739  Biso   1.000  S
  C788     1.0000 0.17387  0.31850  0.09242  Biso   1.000  C
  C789     1.0000 0.17679  0.36080  0.13200  Biso   1.000  C
  H158     1.0000 0.16590  0.30010  0.08190  Biso   1.000  H
  C790     1.0000 0.15990  0.33310  0.12120  Biso   1.000  C
  O317     1.0000 0.74707  0.84747  0.05010  Biso   1.000  O
  O318     1.0000 0.71654  0.80479  0.03787  Biso   1.000  O
  C791     1.0000 0.72306  0.82923  0.05514  Biso   1.000  C
  C792     1.0000 0.70127  0.83649  0.08284  Biso   1.000  C
  S159     1.0000 0.70964  0.86974  0.10739  Biso   1.000  S
  C793     1.0000 0.67387  0.81850  0.09242  Biso   1.000  C
  C794     1.0000 0.67679  0.86080  0.13200  Biso   1.000  C
  H159     1.0000 0.66590  0.80010  0.08190  Biso   1.000  H
  C795     1.0000 0.65990  0.83310  0.12120  Biso   1.000  C
  O319     1.0000 0.74707  0.34747  0.55010  Biso   1.000  O
  O320     1.0000 0.71654  0.30479  0.53787  Biso   1.000  O
  C796     1.0000 0.72306  0.32923  0.55514  Biso   1.000  C
  C797     1.0000 0.70127  0.33649  0.58284  Biso   1.000  C
  S160     1.0000 0.70964  0.36974  0.60739  Biso   1.000  S
  C798     1.0000 0.67387  0.31850  0.59242  Biso   1.000  C
  C799     1.0000 0.67679  0.36080  0.63200  Biso   1.000  C
  H160     1.0000 0.66590  0.30010  0.58190  Biso   1.000  H
  C800     1.0000 0.65990  0.33310  0.62120  Biso   1.000  C
  O321     1.0000 0.84747  0.55010  0.24707  Biso   1.000  O
  O322     1.0000 0.80479  0.53787  0.21654  Biso   1.000  O
  C801     1.0000 0.82923  0.55514  0.22306  Biso   1.000  C
  C802     1.0000 0.83649  0.58284  0.20127  Biso   1.000  C
  S161     1.0000 0.86974  0.60739  0.20964  Biso   1.000  S
  C803     1.0000 0.81850  0.59242  0.17387  Biso   1.000  C
  C804     1.0000 0.86080  0.63200  0.17679  Biso   1.000  C
  H161     1.0000 0.80010  0.58190  0.16590  Biso   1.000  H
  C805     1.0000 0.83310  0.62120  0.15990  Biso   1.000  C
  O323     1.0000 0.84747  0.05010  0.74707  Biso   1.000  O
  O324     1.0000 0.80479  0.03787  0.71654  Biso   1.000  O
  C806     1.0000 0.82923  0.05514  0.72306  Biso   1.000  C
  C807     1.0000 0.83649  0.08284  0.70127  Biso   1.000  C
  S162     1.0000 0.86974  0.10739  0.70964  Biso   1.000  S
  C808     1.0000 0.81850  0.09242  0.67387  Biso   1.000  C
  C809     1.0000 0.86080  0.13200  0.67679  Biso   1.000  C
  H162     1.0000 0.80010  0.08190  0.66590  Biso   1.000  H
  C810     1.0000 0.83310  0.12120  0.65990  Biso   1.000  C
  O325     1.0000 0.34747  0.55010  0.74707  Biso   1.000  O
  O326     1.0000 0.30479  0.53787  0.71654  Biso   1.000  O
  C811     1.0000 0.32923  0.55514  0.72306  Biso   1.000  C
  C812     1.0000 0.33649  0.58284  0.70127  Biso   1.000  C
  S163     1.0000 0.36974  0.60739  0.70964  Biso   1.000  S
  C813     1.0000 0.31850  0.59242  0.67387  Biso   1.000  C
  C814     1.0000 0.36080  0.63200  0.67679  Biso   1.000  C
  H163     1.0000 0.30010  0.58190  0.66590  Biso   1.000  H
  C815     1.0000 0.33310  0.62120  0.65990  Biso   1.000  C
  O327     1.0000 0.34747  0.05010  0.24707  Biso   1.000  O
  O328     1.0000 0.30479  0.03787  0.21654  Biso   1.000  O
  C816     1.0000 0.32923  0.05514  0.22306  Biso   1.000  C
  C817     1.0000 0.33649  0.08284  0.20127  Biso   1.000  C
  S164     1.0000 0.36974  0.10739  0.20964  Biso   1.000  S
  C818     1.0000 0.31850  0.09242  0.17387  Biso   1.000  C
  C819     1.0000 0.36080  0.13200  0.17679  Biso   1.000  C
  H164     1.0000 0.30010  0.08190  0.16590  Biso   1.000  H
  C820     1.0000 0.33310  0.12120  0.15990  Biso   1.000  C
  O329     1.0000 0.15253  0.55010  0.75293  Biso   1.000  O
  O330     1.0000 0.19521  0.53787  0.78346  Biso   1.000  O
  C821     1.0000 0.17077  0.55514  0.77694  Biso   1.000  C
  C822     1.0000 0.16351  0.58284  0.79873  Biso   1.000  C
  S165     1.0000 0.13026  0.60739  0.79036  Biso   1.000  S
  C823     1.0000 0.18150  0.59242  0.82613  Biso   1.000  C
  C824     1.0000 0.13920  0.63200  0.82321  Biso   1.000  C
  H165     1.0000 0.19990  0.58190  0.83410  Biso   1.000  H
  C825     1.0000 0.16690  0.62120  0.84010  Biso   1.000  C
  O331     1.0000 0.15253  0.05010  0.25293  Biso   1.000  O
  O332     1.0000 0.19521  0.03787  0.28346  Biso   1.000  O
  C826     1.0000 0.17077  0.05514  0.27694  Biso   1.000  C
  C827     1.0000 0.16351  0.08284  0.29873  Biso   1.000  C
  S166     1.0000 0.13026  0.10739  0.29036  Biso   1.000  S
  C828     1.0000 0.18150  0.09242  0.32613  Biso   1.000  C
  C829     1.0000 0.13920  0.13200  0.32321  Biso   1.000  C
  H166     1.0000 0.19990  0.08190  0.33410  Biso   1.000  H
  C830     1.0000 0.16690  0.12120  0.34010  Biso   1.000  C
  O333     1.0000 0.65253  0.55010  0.25293  Biso   1.000  O
  O334     1.0000 0.69521  0.53787  0.28346  Biso   1.000  O
  C831     1.0000 0.67077  0.55514  0.27694  Biso   1.000  C
  C832     1.0000 0.66351  0.58284  0.29873  Biso   1.000  C
  S167     1.0000 0.63026  0.60739  0.29036  Biso   1.000  S
  C833     1.0000 0.68150  0.59242  0.32613  Biso   1.000  C
  C834     1.0000 0.63920  0.63200  0.32321  Biso   1.000  C
  H167     1.0000 0.69990  0.58190  0.33410  Biso   1.000  H
  C835     1.0000 0.66690  0.62120  0.34010  Biso   1.000  C
  O335     1.0000 0.65253  0.05010  0.75293  Biso   1.000  O
  O336     1.0000 0.69521  0.03787  0.78346  Biso   1.000  O
  C836     1.0000 0.67077  0.05514  0.77694  Biso   1.000  C
  C837     1.0000 0.66351  0.08284  0.79873  Biso   1.000  C
  S168     1.0000 0.63026  0.10739  0.79036  Biso   1.000  S
  C838     1.0000 0.68150  0.09242  0.82613  Biso   1.000  C
  C839     1.0000 0.63920  0.13200  0.82321  Biso   1.000  C
  H168     1.0000 0.69990  0.08190  0.83410  Biso   1.000  H
  C840     1.0000 0.66690  0.12120  0.84010  Biso   1.000  C
  O337     1.0000 0.15253  0.44990  0.24707  Biso   1.000  O
  O338     1.0000 0.19521  0.46213  0.21654  Biso   1.000  O
  C841     1.0000 0.17077  0.44486  0.22306  Biso   1.000  C
  C842     1.0000 0.16351  0.41716  0.20127  Biso   1.000  C
  S169     1.0000 0.13026  0.39261  0.20964  Biso   1.000  S
  C843     1.0000 0.18150  0.40758  0.17387  Biso   1.000  C
  C844     1.0000 0.13920  0.36800  0.17679  Biso   1.000  C
  H169     1.0000 0.19990  0.41810  0.16590  Biso   1.000  H
  C845     1.0000 0.16690  0.37880  0.15990  Biso   1.000  C
  O339     1.0000 0.15253  0.94990  0.74707  Biso   1.000  O
  O340     1.0000 0.19521  0.96213  0.71654  Biso   1.000  O
  C846     1.0000 0.17077  0.94486  0.72306  Biso   1.000  C
  C847     1.0000 0.16351  0.91716  0.70127  Biso   1.000  C
  S170     1.0000 0.13026  0.89261  0.70964  Biso   1.000  S
  C848     1.0000 0.18150  0.90758  0.67387  Biso   1.000  C
  C849     1.0000 0.13920  0.86800  0.67679  Biso   1.000  C
  H170     1.0000 0.19990  0.91810  0.66590  Biso   1.000  H
  C850     1.0000 0.16690  0.87880  0.65990  Biso   1.000  C
  O341     1.0000 0.65253  0.44990  0.74707  Biso   1.000  O
  O342     1.0000 0.69521  0.46213  0.71654  Biso   1.000  O
  C851     1.0000 0.67077  0.44486  0.72306  Biso   1.000  C
  C852     1.0000 0.66351  0.41716  0.70127  Biso   1.000  C
  S171     1.0000 0.63026  0.39261  0.70964  Biso   1.000  S
  C853     1.0000 0.68150  0.40758  0.67387  Biso   1.000  C
  C854     1.0000 0.63920  0.36800  0.67679  Biso   1.000  C
  H171     1.0000 0.69990  0.41810  0.66590  Biso   1.000  H
  C855     1.0000 0.66690  0.37880  0.65990  Biso   1.000  C
  O343     1.0000 0.65253  0.94990  0.24707  Biso   1.000  O
  O344     1.0000 0.69521  0.96213  0.21654  Biso   1.000  O
  C856     1.0000 0.67077  0.94486  0.22306  Biso   1.000  C
  C857     1.0000 0.66351  0.91716  0.20127  Biso   1.000  C
  S172     1.0000 0.63026  0.89261  0.20964  Biso   1.000  S
  C858     1.0000 0.68150  0.90758  0.17387  Biso   1.000  C
  C859     1.0000 0.63920  0.86800  0.17679  Biso   1.000  C
  H172     1.0000 0.69990  0.91810  0.16590  Biso   1.000  H
  C860     1.0000 0.66690  0.87880  0.15990  Biso   1.000  C
  O345     1.0000 0.84747  0.44990  0.75293  Biso   1.000  O
  O346     1.0000 0.80479  0.46213  0.78346  Biso   1.000  O
  C861     1.0000 0.82923  0.44486  0.77694  Biso   1.000  C
  C862     1.0000 0.83649  0.41716  0.79873  Biso   1.000  C
  S173     1.0000 0.86974  0.39261  0.79036  Biso   1.000  S
  C863     1.0000 0.81850  0.40758  0.82613  Biso   1.000  C
  C864     1.0000 0.86080  0.36800  0.82321  Biso   1.000  C
  H173     1.0000 0.80010  0.41810  0.83410  Biso   1.000  H
  C865     1.0000 0.83310  0.37880  0.84010  Biso   1.000  C
  O347     1.0000 0.84747  0.94990  0.25293  Biso   1.000  O
  O348     1.0000 0.80479  0.96213  0.28346  Biso   1.000  O
  C866     1.0000 0.82923  0.94486  0.27694  Biso   1.000  C
  C867     1.0000 0.83649  0.91716  0.29873  Biso   1.000  C
  S174     1.0000 0.86974  0.89261  0.29036  Biso   1.000  S
  C868     1.0000 0.81850  0.90758  0.32613  Biso   1.000  C
  C869     1.0000 0.86080  0.86800  0.32321  Biso   1.000  C
  H174     1.0000 0.80010  0.91810  0.33410  Biso   1.000  H
  C870     1.0000 0.83310  0.87880  0.34010  Biso   1.000  C
  O349     1.0000 0.34747  0.44990  0.25293  Biso   1.000  O
  O350     1.0000 0.30479  0.46213  0.28346  Biso   1.000  O
  C871     1.0000 0.32923  0.44486  0.27694  Biso   1.000  C
  C872     1.0000 0.33649  0.41716  0.29873  Biso   1.000  C
  S175     1.0000 0.36974  0.39261  0.29036  Biso   1.000  S
  C873     1.0000 0.31850  0.40758  0.32613  Biso   1.000  C
  C874     1.0000 0.36080  0.36800  0.32321  Biso   1.000  C
  H175     1.0000 0.30010  0.41810  0.33410  Biso   1.000  H
  C875     1.0000 0.33310  0.37880  0.34010  Biso   1.000  C
  O351     1.0000 0.34747  0.94990  0.75293  Biso   1.000  O
  O352     1.0000 0.30479  0.96213  0.78346  Biso   1.000  O
  C876     1.0000 0.32923  0.94486  0.77694  Biso   1.000  C
  C877     1.0000 0.33649  0.91716  0.79873  Biso   1.000  C
  S176     1.0000 0.36974  0.89261  0.79036  Biso   1.000  S
  C878     1.0000 0.31850  0.90758  0.82613  Biso   1.000  C
  C879     1.0000 0.36080  0.86800  0.82321  Biso   1.000  C
  H176     1.0000 0.30010  0.91810  0.83410  Biso   1.000  H
  C880     1.0000 0.33310  0.87880  0.84010  Biso   1.000  C
  O353     1.0000 0.55010  0.75293  0.15253  Biso   1.000  O
  O354     1.0000 0.53787  0.78346  0.19521  Biso   1.000  O
  C881     1.0000 0.55514  0.77694  0.17077  Biso   1.000  C
  C882     1.0000 0.58284  0.79873  0.16351  Biso   1.000  C
  S177     1.0000 0.60739  0.79036  0.13026  Biso   1.000  S
  C883     1.0000 0.59242  0.82613  0.18150  Biso   1.000  C
  C884     1.0000 0.63200  0.82321  0.13920  Biso   1.000  C
  H177     1.0000 0.58190  0.83410  0.19990  Biso   1.000  H
  C885     1.0000 0.62120  0.84010  0.16690  Biso   1.000  C
  O355     1.0000 0.55010  0.25293  0.65253  Biso   1.000  O
  O356     1.0000 0.53787  0.28346  0.69521  Biso   1.000  O
  C886     1.0000 0.55514  0.27694  0.67077  Biso   1.000  C
  C887     1.0000 0.58284  0.29873  0.66351  Biso   1.000  C
  S178     1.0000 0.60739  0.29036  0.63026  Biso   1.000  S
  C888     1.0000 0.59242  0.32613  0.68150  Biso   1.000  C
  C889     1.0000 0.63200  0.32321  0.63920  Biso   1.000  C
  H178     1.0000 0.58190  0.33410  0.69990  Biso   1.000  H
  C890     1.0000 0.62120  0.34010  0.66690  Biso   1.000  C
  O357     1.0000 0.05010  0.75293  0.65253  Biso   1.000  O
  O358     1.0000 0.03787  0.78346  0.69521  Biso   1.000  O
  C891     1.0000 0.05514  0.77694  0.67077  Biso   1.000  C
  C892     1.0000 0.08284  0.79873  0.66351  Biso   1.000  C
  S179     1.0000 0.10739  0.79036  0.63026  Biso   1.000  S
  C893     1.0000 0.09242  0.82613  0.68150  Biso   1.000  C
  C894     1.0000 0.13200  0.82321  0.63920  Biso   1.000  C
  H179     1.0000 0.08190  0.83410  0.69990  Biso   1.000  H
  C895     1.0000 0.12120  0.84010  0.66690  Biso   1.000  C
  O359     1.0000 0.05010  0.25293  0.15253  Biso   1.000  O
  O360     1.0000 0.03787  0.28346  0.19521  Biso   1.000  O
  C896     1.0000 0.05514  0.27694  0.17077  Biso   1.000  C
  C897     1.0000 0.08284  0.29873  0.16351  Biso   1.000  C
  S180     1.0000 0.10739  0.29036  0.13026  Biso   1.000  S
  C898     1.0000 0.09242  0.32613  0.18150  Biso   1.000  C
  C899     1.0000 0.13200  0.32321  0.13920  Biso   1.000  C
  H180     1.0000 0.08190  0.33410  0.19990  Biso   1.000  H
  C900     1.0000 0.12120  0.34010  0.16690  Biso   1.000  C
  O361     1.0000 0.55010  0.24707  0.84747  Biso   1.000  O
  O362     1.0000 0.53787  0.21654  0.80479  Biso   1.000  O
  C901     1.0000 0.55514  0.22306  0.82923  Biso   1.000  C
  C902     1.0000 0.58284  0.20127  0.83649  Biso   1.000  C
  S181     1.0000 0.60739  0.20964  0.86974  Biso   1.000  S
  C903     1.0000 0.59242  0.17387  0.81850  Biso   1.000  C
  C904     1.0000 0.63200  0.17679  0.86080  Biso   1.000  C
  H181     1.0000 0.58190  0.16590  0.80010  Biso   1.000  H
  C905     1.0000 0.62120  0.15990  0.83310  Biso   1.000  C
  O363     1.0000 0.55010  0.74707  0.34747  Biso   1.000  O
  O364     1.0000 0.53787  0.71654  0.30479  Biso   1.000  O
  C906     1.0000 0.55514  0.72306  0.32923  Biso   1.000  C
  C907     1.0000 0.58284  0.70127  0.33649  Biso   1.000  C
  S182     1.0000 0.60739  0.70964  0.36974  Biso   1.000  S
  C908     1.0000 0.59242  0.67387  0.31850  Biso   1.000  C
  C909     1.0000 0.63200  0.67679  0.36080  Biso   1.000  C
  H182     1.0000 0.58190  0.66590  0.30010  Biso   1.000  H
  C910     1.0000 0.62120  0.65990  0.33310  Biso   1.000  C
  O365     1.0000 0.05010  0.24707  0.34747  Biso   1.000  O
  O366     1.0000 0.03787  0.21654  0.30479  Biso   1.000  O
  C911     1.0000 0.05514  0.22306  0.32923  Biso   1.000  C
  C912     1.0000 0.08284  0.20127  0.33649  Biso   1.000  C
  S183     1.0000 0.10739  0.20964  0.36974  Biso   1.000  S
  C913     1.0000 0.09242  0.17387  0.31850  Biso   1.000  C
  C914     1.0000 0.13200  0.17679  0.36080  Biso   1.000  C
  H183     1.0000 0.08190  0.16590  0.30010  Biso   1.000  H
  C915     1.0000 0.12120  0.15990  0.33310  Biso   1.000  C
  O367     1.0000 0.05010  0.74707  0.84747  Biso   1.000  O
  O368     1.0000 0.03787  0.71654  0.80479  Biso   1.000  O
  C916     1.0000 0.05514  0.72306  0.82923  Biso   1.000  C
  C917     1.0000 0.08284  0.70127  0.83649  Biso   1.000  C
  S184     1.0000 0.10739  0.70964  0.86974  Biso   1.000  S
  C918     1.0000 0.09242  0.67387  0.81850  Biso   1.000  C
  C919     1.0000 0.13200  0.67679  0.86080  Biso   1.000  C
  H184     1.0000 0.08190  0.66590  0.80010  Biso   1.000  H
  C920     1.0000 0.12120  0.65990  0.83310  Biso   1.000  C
  O369     1.0000 0.44990  0.75293  0.84747  Biso   1.000  O
  O370     1.0000 0.46213  0.78346  0.80479  Biso   1.000  O
  C921     1.0000 0.44486  0.77694  0.82923  Biso   1.000  C
  C922     1.0000 0.41716  0.79873  0.83649  Biso   1.000  C
  S185     1.0000 0.39261  0.79036  0.86974  Biso   1.000  S
  C923     1.0000 0.40758  0.82613  0.81850  Biso   1.000  C
  C924     1.0000 0.36800  0.82321  0.86080  Biso   1.000  C
  H185     1.0000 0.41810  0.83410  0.80010  Biso   1.000  H
  C925     1.0000 0.37880  0.84010  0.83310  Biso   1.000  C
  O371     1.0000 0.44990  0.25293  0.34747  Biso   1.000  O
  O372     1.0000 0.46213  0.28346  0.30479  Biso   1.000  O
  C926     1.0000 0.44486  0.27694  0.32923  Biso   1.000  C
  C927     1.0000 0.41716  0.29873  0.33649  Biso   1.000  C
  S186     1.0000 0.39261  0.29036  0.36974  Biso   1.000  S
  C928     1.0000 0.40758  0.32613  0.31850  Biso   1.000  C
  C929     1.0000 0.36800  0.32321  0.36080  Biso   1.000  C
  H186     1.0000 0.41810  0.33410  0.30010  Biso   1.000  H
  C930     1.0000 0.37880  0.34010  0.33310  Biso   1.000  C
  O373     1.0000 0.94990  0.75293  0.34747  Biso   1.000  O
  O374     1.0000 0.96213  0.78346  0.30479  Biso   1.000  O
  C931     1.0000 0.94486  0.77694  0.32923  Biso   1.000  C
  C932     1.0000 0.91716  0.79873  0.33649  Biso   1.000  C
  S187     1.0000 0.89261  0.79036  0.36974  Biso   1.000  S
  C933     1.0000 0.90758  0.82613  0.31850  Biso   1.000  C
  C934     1.0000 0.86800  0.82321  0.36080  Biso   1.000  C
  H187     1.0000 0.91810  0.83410  0.30010  Biso   1.000  H
  C935     1.0000 0.87880  0.84010  0.33310  Biso   1.000  C
  O375     1.0000 0.94990  0.25293  0.84747  Biso   1.000  O
  O376     1.0000 0.96213  0.28346  0.80479  Biso   1.000  O
  C936     1.0000 0.94486  0.27694  0.82923  Biso   1.000  C
  C937     1.0000 0.91716  0.29873  0.83649  Biso   1.000  C
  S188     1.0000 0.89261  0.29036  0.86974  Biso   1.000  S
  C938     1.0000 0.90758  0.32613  0.81850  Biso   1.000  C
  C939     1.0000 0.86800  0.32321  0.86080  Biso   1.000  C
  H188     1.0000 0.91810  0.33410  0.80010  Biso   1.000  H
  C940     1.0000 0.87880  0.34010  0.83310  Biso   1.000  C
  O377     1.0000 0.44990  0.24707  0.15253  Biso   1.000  O
  O378     1.0000 0.46213  0.21654  0.19521  Biso   1.000  O
  C941     1.0000 0.44486  0.22306  0.17077  Biso   1.000  C
  C942     1.0000 0.41716  0.20127  0.16351  Biso   1.000  C
  S189     1.0000 0.39261  0.20964  0.13026  Biso   1.000  S
  C943     1.0000 0.40758  0.17387  0.18150  Biso   1.000  C
  C944     1.0000 0.36800  0.17679  0.13920  Biso   1.000  C
  H189     1.0000 0.41810  0.16590  0.19990  Biso   1.000  H
  C945     1.0000 0.37880  0.15990  0.16690  Biso   1.000  C
  O379     1.0000 0.44990  0.74707  0.65253  Biso   1.000  O
  O380     1.0000 0.46213  0.71654  0.69521  Biso   1.000  O
  C946     1.0000 0.44486  0.72306  0.67077  Biso   1.000  C
  C947     1.0000 0.41716  0.70127  0.66351  Biso   1.000  C
  S190     1.0000 0.39261  0.70964  0.63026  Biso   1.000  S
  C948     1.0000 0.40758  0.67387  0.68150  Biso   1.000  C
  C949     1.0000 0.36800  0.67679  0.63920  Biso   1.000  C
  H190     1.0000 0.41810  0.66590  0.69990  Biso   1.000  H
  C950     1.0000 0.37880  0.65990  0.66690  Biso   1.000  C
  O381     1.0000 0.94990  0.24707  0.65253  Biso   1.000  O
  O382     1.0000 0.96213  0.21654  0.69521  Biso   1.000  O
  C951     1.0000 0.94486  0.22306  0.67077  Biso   1.000  C
  C952     1.0000 0.91716  0.20127  0.66351  Biso   1.000  C
  S191     1.0000 0.89261  0.20964  0.63026  Biso   1.000  S
  C953     1.0000 0.90758  0.17387  0.68150  Biso   1.000  C
  C954     1.0000 0.86800  0.17679  0.63920  Biso   1.000  C
  H191     1.0000 0.91810  0.16590  0.69990  Biso   1.000  H
  C955     1.0000 0.87880  0.15990  0.66690  Biso   1.000  C
  O383     1.0000 0.94990  0.74707  0.15253  Biso   1.000  O
  O384     1.0000 0.96213  0.71654  0.19521  Biso   1.000  O
  C956     1.0000 0.94486  0.72306  0.17077  Biso   1.000  C
  C957     1.0000 0.91716  0.70127  0.16351  Biso   1.000  C
  S192     1.0000 0.89261  0.70964  0.13026  Biso   1.000  S
  C958     1.0000 0.90758  0.67387  0.18150  Biso   1.000  C
  C959     1.0000 0.86800  0.67679  0.13920  Biso   1.000  C
  H192     1.0000 0.91810  0.66590  0.19990  Biso   1.000  H
  C960     1.0000 0.87880  0.65990  0.16690  Biso   1.000  C
  Sr1      1.0000 0.68796  0.76812  0.00000  Biso   1.000  Sr
  Sr2      1.0000 0.68796  0.26812  0.50000  Biso   1.000  Sr
  Sr3      1.0000 0.18796  0.76812  0.50000  Biso   1.000  Sr
  Sr4      1.0000 0.18796  0.26812  0.00000  Biso   1.000  Sr
  Sr5      1.0000 0.31204  0.23188  0.00000  Biso   1.000  Sr
  Sr6      1.0000 0.31204  0.73188  0.50000  Biso   1.000  Sr
  Sr7      1.0000 0.81204  0.23188  0.50000  Biso   1.000  Sr
  Sr8      1.0000 0.81204  0.73188  0.00000  Biso   1.000  Sr
  Sr9      1.0000 0.31204  0.76812  0.00000  Biso   1.000  Sr
  Sr10     1.0000 0.31204  0.26812  0.50000  Biso   1.000  Sr
  Sr11     1.0000 0.81204  0.76812  0.50000  Biso   1.000  Sr
  Sr12     1.0000 0.81204  0.26812  0.00000  Biso   1.000  Sr
  Sr13     1.0000 0.68796  0.23188  0.00000  Biso   1.000  Sr
  Sr14     1.0000 0.68796  0.73188  0.50000  Biso   1.000  Sr
  Sr15     1.0000 0.18796  0.23188  0.50000  Biso   1.000  Sr
  Sr16     1.0000 0.18796  0.73188  0.00000  Biso   1.000  Sr
  Sr17     1.0000 0.00000  0.68796  0.76812  Biso   1.000  Sr
  Sr18     1.0000 0.00000  0.18796  0.26812  Biso   1.000  Sr
  Sr19     1.0000 0.50000  0.68796  0.26812  Biso   1.000  Sr
  Sr20     1.0000 0.50000  0.18796  0.76812  Biso   1.000  Sr
  Sr21     1.0000 0.00000  0.31204  0.23188  Biso   1.000  Sr
  Sr22     1.0000 0.00000  0.81204  0.73188  Biso   1.000  Sr
  Sr23     1.0000 0.50000  0.31204  0.73188  Biso   1.000  Sr
  Sr24     1.0000 0.50000  0.81204  0.23188  Biso   1.000  Sr
  Sr25     1.0000 0.00000  0.31204  0.76812  Biso   1.000  Sr
  Sr26     1.0000 0.00000  0.81204  0.26812  Biso   1.000  Sr
  Sr27     1.0000 0.50000  0.31204  0.26812  Biso   1.000  Sr
  Sr28     1.0000 0.50000  0.81204  0.76812  Biso   1.000  Sr
  Sr29     1.0000 0.00000  0.68796  0.23188  Biso   1.000  Sr
  Sr30     1.0000 0.00000  0.18796  0.73188  Biso   1.000  Sr
  Sr31     1.0000 0.50000  0.68796  0.73188  Biso   1.000  Sr
  Sr32     1.0000 0.50000  0.18796  0.23188  Biso   1.000  Sr
  Sr33     1.0000 0.76812  0.00000  0.68796  Biso   1.000  Sr
  Sr34     1.0000 0.76812  0.50000  0.18796  Biso   1.000  Sr
  Sr35     1.0000 0.26812  0.00000  0.18796  Biso   1.000  Sr
  Sr36     1.0000 0.26812  0.50000  0.68796  Biso   1.000  Sr
  Sr37     1.0000 0.23188  0.00000  0.31204  Biso   1.000  Sr
  Sr38     1.0000 0.23188  0.50000  0.81204  Biso   1.000  Sr
  Sr39     1.0000 0.73188  0.00000  0.81204  Biso   1.000  Sr
  Sr40     1.0000 0.73188  0.50000  0.31204  Biso   1.000  Sr
  Sr41     1.0000 0.76812  0.00000  0.31204  Biso   1.000  Sr
  Sr42     1.0000 0.76812  0.50000  0.81204  Biso   1.000  Sr
  Sr43     1.0000 0.26812  0.00000  0.81204  Biso   1.000  Sr
  Sr44     1.0000 0.26812  0.50000  0.31204  Biso   1.000  Sr
  Sr45     1.0000 0.23188  0.00000  0.68796  Biso   1.000  Sr
  Sr46     1.0000 0.23188  0.50000  0.18796  Biso   1.000  Sr
  Sr47     1.0000 0.73188  0.00000  0.18796  Biso   1.000  Sr
  Sr48     1.0000 0.73188  0.50000  0.68796  Biso   1.000  Sr
  Sr49     1.0000 0.26812  0.18796  0.50000  Biso   1.000  Sr
  Sr50     1.0000 0.26812  0.68796  0.00000  Biso   1.000  Sr
  Sr51     1.0000 0.76812  0.18796  0.00000  Biso   1.000  Sr
  Sr52     1.0000 0.76812  0.68796  0.50000  Biso   1.000  Sr
  Sr53     1.0000 0.73188  0.81204  0.50000  Biso   1.000  Sr
  Sr54     1.0000 0.73188  0.31204  0.00000  Biso   1.000  Sr
  Sr55     1.0000 0.23188  0.81204  0.00000  Biso   1.000  Sr
  Sr56     1.0000 0.23188  0.31204  0.50000  Biso   1.000  Sr
  Sr57     1.0000 0.26812  0.81204  0.50000  Biso   1.000  Sr
  Sr58     1.0000 0.26812  0.31204  0.00000  Biso   1.000  Sr
  Sr59     1.0000 0.76812  0.81204  0.00000  Biso   1.000  Sr
  Sr60     1.0000 0.76812  0.31204  0.50000  Biso   1.000  Sr
  Sr61     1.0000 0.73188  0.18796  0.50000  Biso   1.000  Sr
  Sr62     1.0000 0.73188  0.68796  0.00000  Biso   1.000  Sr
  Sr63     1.0000 0.23188  0.18796  0.00000  Biso   1.000  Sr
  Sr64     1.0000 0.23188  0.68796  0.50000  Biso   1.000  Sr
  Sr65     1.0000 0.18796  0.50000  0.73188  Biso   1.000  Sr
  Sr66     1.0000 0.18796  0.00000  0.23188  Biso   1.000  Sr
  Sr67     1.0000 0.68796  0.50000  0.23188  Biso   1.000  Sr
  Sr68     1.0000 0.68796  0.00000  0.73188  Biso   1.000  Sr
  Sr69     1.0000 0.81204  0.50000  0.26812  Biso   1.000  Sr
  Sr70     1.0000 0.81204  0.00000  0.76812  Biso   1.000  Sr
  Sr71     1.0000 0.31204  0.50000  0.76812  Biso   1.000  Sr
  Sr72     1.0000 0.31204  0.00000  0.26812  Biso   1.000  Sr
  Sr73     1.0000 0.81204  0.50000  0.73188  Biso   1.000  Sr
  Sr74     1.0000 0.81204  0.00000  0.23188  Biso   1.000  Sr
  Sr75     1.0000 0.31204  0.50000  0.23188  Biso   1.000  Sr
  Sr76     1.0000 0.31204  0.00000  0.73188  Biso   1.000  Sr
  Sr77     1.0000 0.18796  0.50000  0.26812  Biso   1.000  Sr
  Sr78     1.0000 0.18796  0.00000  0.76812  Biso   1.000  Sr
  Sr79     1.0000 0.68796  0.50000  0.76812  Biso   1.000  Sr
  Sr80     1.0000 0.68796  0.00000  0.26812  Biso   1.000  Sr
  Sr81     1.0000 0.50000  0.26812  0.81204  Biso   1.000  Sr
  Sr82     1.0000 0.50000  0.76812  0.31204  Biso   1.000  Sr
  Sr83     1.0000 0.00000  0.26812  0.31204  Biso   1.000  Sr
  Sr84     1.0000 0.00000  0.76812  0.81204  Biso   1.000  Sr
  Sr85     1.0000 0.50000  0.73188  0.18796  Biso   1.000  Sr
  Sr86     1.0000 0.50000  0.23188  0.68796  Biso   1.000  Sr
  Sr87     1.0000 0.00000  0.73188  0.68796  Biso   1.000  Sr
  Sr88     1.0000 0.00000  0.23188  0.18796  Biso   1.000  Sr
  Sr89     1.0000 0.50000  0.26812  0.18796  Biso   1.000  Sr
  Sr90     1.0000 0.50000  0.76812  0.68796  Biso   1.000  Sr
  Sr91     1.0000 0.00000  0.26812  0.68796  Biso   1.000  Sr
  Sr92     1.0000 0.00000  0.76812  0.18796  Biso   1.000  Sr
  Sr93     1.0000 0.50000  0.73188  0.81204  Biso   1.000  Sr
  Sr94     1.0000 0.50000  0.23188  0.31204  Biso   1.000  Sr
  Sr95     1.0000 0.00000  0.73188  0.31204  Biso   1.000  Sr
  Sr96     1.0000 0.00000  0.23188  0.81204  Biso   1.000  Sr
  O385     1.0000 0.75000  0.75000  0.00000  Biso   1.000  O
  O386     1.0000 0.25000  0.25000  0.00000  Biso   1.000  O
  O387     1.0000 0.25000  0.75000  0.00000  Biso   1.000  O
  O388     1.0000 0.75000  0.25000  0.00000  Biso   1.000  O
  O389     1.0000 0.00000  0.75000  0.75000  Biso   1.000  O
  O390     1.0000 0.00000  0.25000  0.25000  Biso   1.000  O
  O391     1.0000 0.00000  0.25000  0.75000  Biso   1.000  O
  O392     1.0000 0.00000  0.75000  0.25000  Biso   1.000  O
  O393     1.0000 0.75000  0.00000  0.75000  Biso   1.000  O
  O394     1.0000 0.25000  0.00000  0.25000  Biso   1.000  O
  O395     1.0000 0.75000  0.00000  0.25000  Biso   1.000  O
  O396     1.0000 0.25000  0.00000  0.75000  Biso   1.000  O
  O397     1.0000 0.25000  0.25000  0.50000  Biso   1.000  O
  O398     1.0000 0.75000  0.75000  0.50000  Biso   1.000  O
  O399     1.0000 0.25000  0.75000  0.50000  Biso   1.000  O
  O400     1.0000 0.75000  0.25000  0.50000  Biso   1.000  O
  O401     1.0000 0.25000  0.50000  0.75000  Biso   1.000  O
  O402     1.0000 0.75000  0.50000  0.25000  Biso   1.000  O
  O403     1.0000 0.75000  0.50000  0.75000  Biso   1.000  O
  O404     1.0000 0.25000  0.50000  0.25000  Biso   1.000  O
  O405     1.0000 0.50000  0.25000  0.75000  Biso   1.000  O
  O406     1.0000 0.50000  0.75000  0.25000  Biso   1.000  O
  O407     1.0000 0.50000  0.25000  0.25000  Biso   1.000  O
  O408     1.0000 0.50000  0.75000  0.75000  Biso   1.000  O
