data_image0
_cell_length_a       18.99
_cell_length_b       34.418
_cell_length_c       38.393
_cell_angle_alpha    90
_cell_angle_beta     90
_cell_angle_gamma    90

_symmetry_space_group_name_H-M    "P 1"
_symmetry_int_tables_number       1

loop_
  _symmetry_equiv_pos_as_xyz
  'x, y, z'

loop_
  _atom_site_label
  _atom_site_occupancy
  _atom_site_fract_x
  _atom_site_fract_y
  _atom_site_fract_z
  _atom_site_thermal_displace_type
  _atom_site_B_iso_or_equiv
  _atom_site_type_symbol
  H1       1.0000 0.29500  0.27720  0.87130  Biso   1.000  H
  C1       1.0000 0.35450  0.16071  0.83473  Biso   1.000  C
  C2       1.0000 0.25940  0.07820  0.83661  Biso   1.000  C
  C3       1.0000 0.37770  0.11908  0.83006  Biso   1.000  C
  C4       1.0000 0.33590  0.08385  0.83073  Biso   1.000  C
  C5       1.0000 0.38200  0.05381  0.82458  Biso   1.000  C
  C6       1.0000 0.44590  0.10936  0.82335  Biso   1.000  C
  C7       1.0000 0.51200  0.13280  0.81898  Biso   1.000  C
  H2       1.0000 0.50170  0.15980  0.82260  Biso   1.000  H
  H3       1.0000 0.53020  0.12920  0.79590  Biso   1.000  H
  H4       1.0000 0.54640  0.12450  0.83570  Biso   1.000  H
  C8       1.0000 0.37140  0.01080  0.82340  Biso   1.000  C
  H5       1.0000 0.41520  0.99830  0.81800  Biso   1.000  H
  H6       1.0000 0.33720  0.00450  0.80590  Biso   1.000  H
  H7       1.0000 0.35490  0.00190  0.84570  Biso   1.000  H
  C9       1.0000 0.50850  0.04821  0.80688  Biso   1.000  C
  C10      1.0000 0.51020  0.03591  0.77279  Biso   1.000  C
  H8       1.0000 0.47090  0.03920  0.75870  Biso   1.000  H
  C11      1.0000 0.57040  0.01870  0.75945  Biso   1.000  C
  C12      1.0000 0.63070  0.01429  0.78003  Biso   1.000  C
  H9       1.0000 0.67190  0.00420  0.77060  Biso   1.000  H
  C13      1.0000 0.62780  0.02540  0.81516  Biso   1.000  C
  C14      1.0000 0.56750  0.04269  0.82844  Biso   1.000  C
  H10      1.0000 0.56610  0.05060  0.85160  Biso   1.000  H
  C15      1.0000 0.69160  0.01925  0.83818  Biso   1.000  C
  C16      1.0000 0.57370  0.00681  0.72166  Biso   1.000  C
  Cu1      1.0000 0.40952  0.24751  0.84067  Biso   1.000  Cu
  Cu2      1.0000 0.23940  0.22641  0.83817  Biso   1.000  Cu
  N1       1.0000 0.44800  0.06920  0.81952  Biso   1.000  N
  O1       1.0000 0.31390  0.25644  0.86008  Biso   1.000  O
  O2       1.0000 0.40100  0.18622  0.83500  Biso   1.000  O
  O3       1.0000 0.28820  0.16779  0.83662  Biso   1.000  O
  O4       1.0000 0.21910  0.10771  0.84132  Biso   1.000  O
  O5       1.0000 0.23360  0.04533  0.83725  Biso   1.000  O
  O6       1.0000 0.68510  0.03046  0.86884  Biso   1.000  O
  O7       1.0000 0.74380  0.00299  0.82434  Biso   1.000  O
  O8       1.0000 0.63220  0.00924  0.70733  Biso   1.000  O
  O9       1.0000 0.51610  0.99563  0.70846  Biso   1.000  O
  H11      1.0000 0.24700  0.12720  0.84580  Biso   1.000  H
  H12      1.0000 0.29500  0.77720  0.37130  Biso   1.000  H
  C17      1.0000 0.35450  0.66071  0.33473  Biso   1.000  C
  C18      1.0000 0.25940  0.57820  0.33661  Biso   1.000  C
  C19      1.0000 0.37770  0.61908  0.33006  Biso   1.000  C
  C20      1.0000 0.33590  0.58385  0.33073  Biso   1.000  C
  C21      1.0000 0.38200  0.55381  0.32458  Biso   1.000  C
  C22      1.0000 0.44590  0.60936  0.32335  Biso   1.000  C
  C23      1.0000 0.51200  0.63280  0.31898  Biso   1.000  C
  H13      1.0000 0.50170  0.65980  0.32260  Biso   1.000  H
  H14      1.0000 0.53020  0.62920  0.29590  Biso   1.000  H
  H15      1.0000 0.54640  0.62450  0.33570  Biso   1.000  H
  C24      1.0000 0.37140  0.51080  0.32340  Biso   1.000  C
  H16      1.0000 0.41520  0.49830  0.31800  Biso   1.000  H
  H17      1.0000 0.33720  0.50450  0.30590  Biso   1.000  H
  H18      1.0000 0.35490  0.50190  0.34570  Biso   1.000  H
  C25      1.0000 0.50850  0.54821  0.30688  Biso   1.000  C
  C26      1.0000 0.51020  0.53591  0.27279  Biso   1.000  C
  H19      1.0000 0.47090  0.53920  0.25870  Biso   1.000  H
  C27      1.0000 0.57040  0.51870  0.25945  Biso   1.000  C
  C28      1.0000 0.63070  0.51429  0.28003  Biso   1.000  C
  H20      1.0000 0.67190  0.50420  0.27060  Biso   1.000  H
  C29      1.0000 0.62780  0.52540  0.31516  Biso   1.000  C
  C30      1.0000 0.56750  0.54269  0.32844  Biso   1.000  C
  H21      1.0000 0.56610  0.55060  0.35160  Biso   1.000  H
  C31      1.0000 0.69160  0.51925  0.33818  Biso   1.000  C
  C32      1.0000 0.57370  0.50681  0.22166  Biso   1.000  C
  Cu3      1.0000 0.40952  0.74751  0.34067  Biso   1.000  Cu
  Cu4      1.0000 0.23940  0.72641  0.33817  Biso   1.000  Cu
  N2       1.0000 0.44800  0.56920  0.31952  Biso   1.000  N
  O10      1.0000 0.31390  0.75644  0.36008  Biso   1.000  O
  O11      1.0000 0.40100  0.68622  0.33500  Biso   1.000  O
  O12      1.0000 0.28820  0.66779  0.33662  Biso   1.000  O
  O13      1.0000 0.21910  0.60771  0.34132  Biso   1.000  O
  O14      1.0000 0.23360  0.54533  0.33725  Biso   1.000  O
  O15      1.0000 0.68510  0.53046  0.36884  Biso   1.000  O
  O16      1.0000 0.74380  0.50299  0.32434  Biso   1.000  O
  O17      1.0000 0.63220  0.50924  0.20733  Biso   1.000  O
  O18      1.0000 0.51610  0.49563  0.20846  Biso   1.000  O
  H22      1.0000 0.24700  0.62720  0.34580  Biso   1.000  H
  H23      1.0000 0.79500  0.27720  0.37130  Biso   1.000  H
  C33      1.0000 0.85450  0.16071  0.33473  Biso   1.000  C
  C34      1.0000 0.75940  0.07820  0.33661  Biso   1.000  C
  C35      1.0000 0.87770  0.11908  0.33006  Biso   1.000  C
  C36      1.0000 0.83590  0.08385  0.33073  Biso   1.000  C
  C37      1.0000 0.88200  0.05381  0.32458  Biso   1.000  C
  C38      1.0000 0.94590  0.10936  0.32335  Biso   1.000  C
  C39      1.0000 0.01200  0.13280  0.31898  Biso   1.000  C
  H24      1.0000 0.00170  0.15980  0.32260  Biso   1.000  H
  H25      1.0000 0.03020  0.12920  0.29590  Biso   1.000  H
  H26      1.0000 0.04640  0.12450  0.33570  Biso   1.000  H
  C40      1.0000 0.87140  0.01080  0.32340  Biso   1.000  C
  H27      1.0000 0.91520  0.99830  0.31800  Biso   1.000  H
  H28      1.0000 0.83720  0.00450  0.30590  Biso   1.000  H
  H29      1.0000 0.85490  0.00190  0.34570  Biso   1.000  H
  C41      1.0000 0.00850  0.04821  0.30688  Biso   1.000  C
  C42      1.0000 0.01020  0.03591  0.27279  Biso   1.000  C
  H30      1.0000 0.97090  0.03920  0.25870  Biso   1.000  H
  C43      1.0000 0.07040  0.01870  0.25945  Biso   1.000  C
  C44      1.0000 0.13070  0.01429  0.28003  Biso   1.000  C
  H31      1.0000 0.17190  0.00420  0.27060  Biso   1.000  H
  C45      1.0000 0.12780  0.02540  0.31516  Biso   1.000  C
  C46      1.0000 0.06750  0.04269  0.32844  Biso   1.000  C
  H32      1.0000 0.06610  0.05060  0.35160  Biso   1.000  H
  C47      1.0000 0.19160  0.01925  0.33818  Biso   1.000  C
  C48      1.0000 0.07370  0.00681  0.22166  Biso   1.000  C
  Cu5      1.0000 0.90952  0.24751  0.34067  Biso   1.000  Cu
  Cu6      1.0000 0.73940  0.22641  0.33817  Biso   1.000  Cu
  N3       1.0000 0.94800  0.06920  0.31952  Biso   1.000  N
  O19      1.0000 0.81390  0.25644  0.36008  Biso   1.000  O
  O20      1.0000 0.90100  0.18622  0.33500  Biso   1.000  O
  O21      1.0000 0.78820  0.16779  0.33662  Biso   1.000  O
  O22      1.0000 0.71910  0.10771  0.34132  Biso   1.000  O
  O23      1.0000 0.73360  0.04533  0.33725  Biso   1.000  O
  O24      1.0000 0.18510  0.03046  0.36884  Biso   1.000  O
  O25      1.0000 0.24380  0.00299  0.32434  Biso   1.000  O
  O26      1.0000 0.13220  0.00924  0.20733  Biso   1.000  O
  O27      1.0000 0.01610  0.99563  0.20846  Biso   1.000  O
  H33      1.0000 0.74700  0.12720  0.34580  Biso   1.000  H
  H34      1.0000 0.79500  0.77720  0.87130  Biso   1.000  H
  C49      1.0000 0.85450  0.66071  0.83473  Biso   1.000  C
  C50      1.0000 0.75940  0.57820  0.83661  Biso   1.000  C
  C51      1.0000 0.87770  0.61908  0.83006  Biso   1.000  C
  C52      1.0000 0.83590  0.58385  0.83073  Biso   1.000  C
  C53      1.0000 0.88200  0.55381  0.82458  Biso   1.000  C
  C54      1.0000 0.94590  0.60936  0.82335  Biso   1.000  C
  C55      1.0000 0.01200  0.63280  0.81898  Biso   1.000  C
  H35      1.0000 0.00170  0.65980  0.82260  Biso   1.000  H
  H36      1.0000 0.03020  0.62920  0.79590  Biso   1.000  H
  H37      1.0000 0.04640  0.62450  0.83570  Biso   1.000  H
  C56      1.0000 0.87140  0.51080  0.82340  Biso   1.000  C
  H38      1.0000 0.91520  0.49830  0.81800  Biso   1.000  H
  H39      1.0000 0.83720  0.50450  0.80590  Biso   1.000  H
  H40      1.0000 0.85490  0.50190  0.84570  Biso   1.000  H
  C57      1.0000 0.00850  0.54821  0.80688  Biso   1.000  C
  C58      1.0000 0.01020  0.53591  0.77279  Biso   1.000  C
  H41      1.0000 0.97090  0.53920  0.75870  Biso   1.000  H
  C59      1.0000 0.07040  0.51870  0.75945  Biso   1.000  C
  C60      1.0000 0.13070  0.51429  0.78003  Biso   1.000  C
  H42      1.0000 0.17190  0.50420  0.77060  Biso   1.000  H
  C61      1.0000 0.12780  0.52540  0.81516  Biso   1.000  C
  C62      1.0000 0.06750  0.54269  0.82844  Biso   1.000  C
  H43      1.0000 0.06610  0.55060  0.85160  Biso   1.000  H
  C63      1.0000 0.19160  0.51925  0.83818  Biso   1.000  C
  C64      1.0000 0.07370  0.50681  0.72166  Biso   1.000  C
  Cu7      1.0000 0.90952  0.74751  0.84067  Biso   1.000  Cu
  Cu8      1.0000 0.73940  0.72641  0.83817  Biso   1.000  Cu
  N4       1.0000 0.94800  0.56920  0.81952  Biso   1.000  N
  O28      1.0000 0.81390  0.75644  0.86008  Biso   1.000  O
  O29      1.0000 0.90100  0.68622  0.83500  Biso   1.000  O
  O30      1.0000 0.78820  0.66779  0.83662  Biso   1.000  O
  O31      1.0000 0.71910  0.60771  0.84132  Biso   1.000  O
  O32      1.0000 0.73360  0.54533  0.83725  Biso   1.000  O
  O33      1.0000 0.18510  0.53046  0.86884  Biso   1.000  O
  O34      1.0000 0.24380  0.50299  0.82434  Biso   1.000  O
  O35      1.0000 0.13220  0.50924  0.70733  Biso   1.000  O
  O36      1.0000 0.01610  0.49563  0.70846  Biso   1.000  O
  H44      1.0000 0.74700  0.62720  0.84580  Biso   1.000  H
  H45      1.0000 0.45500  0.47280  0.87130  Biso   1.000  H
  C65      1.0000 0.39550  0.58929  0.83473  Biso   1.000  C
  C66      1.0000 0.49060  0.67180  0.83661  Biso   1.000  C
  C67      1.0000 0.37230  0.63092  0.83006  Biso   1.000  C
  C68      1.0000 0.41410  0.66615  0.83073  Biso   1.000  C
  C69      1.0000 0.36800  0.69619  0.82458  Biso   1.000  C
  C70      1.0000 0.30410  0.64064  0.82335  Biso   1.000  C
  C71      1.0000 0.23800  0.61720  0.81898  Biso   1.000  C
  H46      1.0000 0.24830  0.59020  0.82260  Biso   1.000  H
  H47      1.0000 0.21980  0.62080  0.79590  Biso   1.000  H
  H48      1.0000 0.20360  0.62550  0.83570  Biso   1.000  H
  C72      1.0000 0.37860  0.73920  0.82340  Biso   1.000  C
  H49      1.0000 0.33480  0.75170  0.81800  Biso   1.000  H
  H50      1.0000 0.41280  0.74550  0.80590  Biso   1.000  H
  H51      1.0000 0.39510  0.74810  0.84570  Biso   1.000  H
  C73      1.0000 0.24150  0.70179  0.80688  Biso   1.000  C
  C74      1.0000 0.23980  0.71409  0.77279  Biso   1.000  C
  H52      1.0000 0.27910  0.71080  0.75870  Biso   1.000  H
  C75      1.0000 0.17960  0.73130  0.75945  Biso   1.000  C
  C76      1.0000 0.11930  0.73571  0.78003  Biso   1.000  C
  H53      1.0000 0.07810  0.74580  0.77060  Biso   1.000  H
  C77      1.0000 0.12220  0.72460  0.81516  Biso   1.000  C
  C78      1.0000 0.18250  0.70731  0.82844  Biso   1.000  C
  H54      1.0000 0.18390  0.69940  0.85160  Biso   1.000  H
  C79      1.0000 0.05840  0.73075  0.83818  Biso   1.000  C
  C80      1.0000 0.17630  0.74319  0.72166  Biso   1.000  C
  Cu9      1.0000 0.34048  0.50249  0.84067  Biso   1.000  Cu
  Cu10     1.0000 0.51060  0.52359  0.83817  Biso   1.000  Cu
  N5       1.0000 0.30200  0.68080  0.81952  Biso   1.000  N
  O37      1.0000 0.43610  0.49356  0.86008  Biso   1.000  O
  O38      1.0000 0.34900  0.56378  0.83500  Biso   1.000  O
  O39      1.0000 0.46180  0.58221  0.83662  Biso   1.000  O
  O40      1.0000 0.53090  0.64229  0.84132  Biso   1.000  O
  O41      1.0000 0.51640  0.70467  0.83725  Biso   1.000  O
  O42      1.0000 0.06490  0.71954  0.86884  Biso   1.000  O
  O43      1.0000 0.00620  0.74701  0.82434  Biso   1.000  O
  O44      1.0000 0.11780  0.74076  0.70733  Biso   1.000  O
  O45      1.0000 0.23390  0.75437  0.70846  Biso   1.000  O
  H55      1.0000 0.50300  0.62280  0.84580  Biso   1.000  H
  H56      1.0000 0.45500  0.97280  0.37130  Biso   1.000  H
  C81      1.0000 0.39550  0.08929  0.33473  Biso   1.000  C
  C82      1.0000 0.49060  0.17180  0.33661  Biso   1.000  C
  C83      1.0000 0.37230  0.13092  0.33006  Biso   1.000  C
  C84      1.0000 0.41410  0.16615  0.33073  Biso   1.000  C
  C85      1.0000 0.36800  0.19619  0.32458  Biso   1.000  C
  C86      1.0000 0.30410  0.14064  0.32335  Biso   1.000  C
  C87      1.0000 0.23800  0.11720  0.31898  Biso   1.000  C
  H57      1.0000 0.24830  0.09020  0.32260  Biso   1.000  H
  H58      1.0000 0.21980  0.12080  0.29590  Biso   1.000  H
  H59      1.0000 0.20360  0.12550  0.33570  Biso   1.000  H
  C88      1.0000 0.37860  0.23920  0.32340  Biso   1.000  C
  H60      1.0000 0.33480  0.25170  0.31800  Biso   1.000  H
  H61      1.0000 0.41280  0.24550  0.30590  Biso   1.000  H
  H62      1.0000 0.39510  0.24810  0.34570  Biso   1.000  H
  C89      1.0000 0.24150  0.20179  0.30688  Biso   1.000  C
  C90      1.0000 0.23980  0.21409  0.27279  Biso   1.000  C
  H63      1.0000 0.27910  0.21080  0.25870  Biso   1.000  H
  C91      1.0000 0.17960  0.23130  0.25945  Biso   1.000  C
  C92      1.0000 0.11930  0.23571  0.28003  Biso   1.000  C
  H64      1.0000 0.07810  0.24580  0.27060  Biso   1.000  H
  C93      1.0000 0.12220  0.22460  0.31516  Biso   1.000  C
  C94      1.0000 0.18250  0.20731  0.32844  Biso   1.000  C
  H65      1.0000 0.18390  0.19940  0.35160  Biso   1.000  H
  C95      1.0000 0.05840  0.23075  0.33818  Biso   1.000  C
  C96      1.0000 0.17630  0.24319  0.22166  Biso   1.000  C
  Cu11     1.0000 0.34048  0.00249  0.34067  Biso   1.000  Cu
  Cu12     1.0000 0.51060  0.02359  0.33817  Biso   1.000  Cu
  N6       1.0000 0.30200  0.18080  0.31952  Biso   1.000  N
  O46      1.0000 0.43610  0.99356  0.36008  Biso   1.000  O
  O47      1.0000 0.34900  0.06378  0.33500  Biso   1.000  O
  O48      1.0000 0.46180  0.08221  0.33662  Biso   1.000  O
  O49      1.0000 0.53090  0.14229  0.34132  Biso   1.000  O
  O50      1.0000 0.51640  0.20467  0.33725  Biso   1.000  O
  O51      1.0000 0.06490  0.21954  0.36884  Biso   1.000  O
  O52      1.0000 0.00620  0.24701  0.32434  Biso   1.000  O
  O53      1.0000 0.11780  0.24076  0.20733  Biso   1.000  O
  O54      1.0000 0.23390  0.25437  0.20846  Biso   1.000  O
  H66      1.0000 0.50300  0.12280  0.34580  Biso   1.000  H
  H67      1.0000 0.95500  0.47280  0.37130  Biso   1.000  H
  C97      1.0000 0.89550  0.58929  0.33473  Biso   1.000  C
  C98      1.0000 0.99060  0.67180  0.33661  Biso   1.000  C
  C99      1.0000 0.87230  0.63092  0.33006  Biso   1.000  C
  C100     1.0000 0.91410  0.66615  0.33073  Biso   1.000  C
  C101     1.0000 0.86800  0.69619  0.32458  Biso   1.000  C
  C102     1.0000 0.80410  0.64064  0.32335  Biso   1.000  C
  C103     1.0000 0.73800  0.61720  0.31898  Biso   1.000  C
  H68      1.0000 0.74830  0.59020  0.32260  Biso   1.000  H
  H69      1.0000 0.71980  0.62080  0.29590  Biso   1.000  H
  H70      1.0000 0.70360  0.62550  0.33570  Biso   1.000  H
  C104     1.0000 0.87860  0.73920  0.32340  Biso   1.000  C
  H71      1.0000 0.83480  0.75170  0.31800  Biso   1.000  H
  H72      1.0000 0.91280  0.74550  0.30590  Biso   1.000  H
  H73      1.0000 0.89510  0.74810  0.34570  Biso   1.000  H
  C105     1.0000 0.74150  0.70179  0.30688  Biso   1.000  C
  C106     1.0000 0.73980  0.71409  0.27279  Biso   1.000  C
  H74      1.0000 0.77910  0.71080  0.25870  Biso   1.000  H
  C107     1.0000 0.67960  0.73130  0.25945  Biso   1.000  C
  C108     1.0000 0.61930  0.73571  0.28003  Biso   1.000  C
  H75      1.0000 0.57810  0.74580  0.27060  Biso   1.000  H
  C109     1.0000 0.62220  0.72460  0.31516  Biso   1.000  C
  C110     1.0000 0.68250  0.70731  0.32844  Biso   1.000  C
  H76      1.0000 0.68390  0.69940  0.35160  Biso   1.000  H
  C111     1.0000 0.55840  0.73075  0.33818  Biso   1.000  C
  C112     1.0000 0.67630  0.74319  0.22166  Biso   1.000  C
  Cu13     1.0000 0.84048  0.50249  0.34067  Biso   1.000  Cu
  Cu14     1.0000 0.01060  0.52359  0.33817  Biso   1.000  Cu
  N7       1.0000 0.80200  0.68080  0.31952  Biso   1.000  N
  O55      1.0000 0.93610  0.49356  0.36008  Biso   1.000  O
  O56      1.0000 0.84900  0.56378  0.33500  Biso   1.000  O
  O57      1.0000 0.96180  0.58221  0.33662  Biso   1.000  O
  O58      1.0000 0.03090  0.64229  0.34132  Biso   1.000  O
  O59      1.0000 0.01640  0.70467  0.33725  Biso   1.000  O
  O60      1.0000 0.56490  0.71954  0.36884  Biso   1.000  O
  O61      1.0000 0.50620  0.74701  0.32434  Biso   1.000  O
  O62      1.0000 0.61780  0.74076  0.20733  Biso   1.000  O
  O63      1.0000 0.73390  0.75437  0.20846  Biso   1.000  O
  H77      1.0000 0.00300  0.62280  0.34580  Biso   1.000  H
  H78      1.0000 0.95500  0.97280  0.87130  Biso   1.000  H
  C113     1.0000 0.89550  0.08929  0.83473  Biso   1.000  C
  C114     1.0000 0.99060  0.17180  0.83661  Biso   1.000  C
  C115     1.0000 0.87230  0.13092  0.83006  Biso   1.000  C
  C116     1.0000 0.91410  0.16615  0.83073  Biso   1.000  C
  C117     1.0000 0.86800  0.19619  0.82458  Biso   1.000  C
  C118     1.0000 0.80410  0.14064  0.82335  Biso   1.000  C
  C119     1.0000 0.73800  0.11720  0.81898  Biso   1.000  C
  H79      1.0000 0.74830  0.09020  0.82260  Biso   1.000  H
  H80      1.0000 0.71980  0.12080  0.79590  Biso   1.000  H
  H81      1.0000 0.70360  0.12550  0.83570  Biso   1.000  H
  C120     1.0000 0.87860  0.23920  0.82340  Biso   1.000  C
  H82      1.0000 0.83480  0.25170  0.81800  Biso   1.000  H
  H83      1.0000 0.91280  0.24550  0.80590  Biso   1.000  H
  H84      1.0000 0.89510  0.24810  0.84570  Biso   1.000  H
  C121     1.0000 0.74150  0.20179  0.80688  Biso   1.000  C
  C122     1.0000 0.73980  0.21409  0.77279  Biso   1.000  C
  H85      1.0000 0.77910  0.21080  0.75870  Biso   1.000  H
  C123     1.0000 0.67960  0.23130  0.75945  Biso   1.000  C
  C124     1.0000 0.61930  0.23571  0.78003  Biso   1.000  C
  H86      1.0000 0.57810  0.24580  0.77060  Biso   1.000  H
  C125     1.0000 0.62220  0.22460  0.81516  Biso   1.000  C
  C126     1.0000 0.68250  0.20731  0.82844  Biso   1.000  C
  H87      1.0000 0.68390  0.19940  0.85160  Biso   1.000  H
  C127     1.0000 0.55840  0.23075  0.83818  Biso   1.000  C
  C128     1.0000 0.67630  0.24319  0.72166  Biso   1.000  C
  Cu15     1.0000 0.84048  0.00249  0.84067  Biso   1.000  Cu
  Cu16     1.0000 0.01060  0.02359  0.83817  Biso   1.000  Cu
  N8       1.0000 0.80200  0.18080  0.81952  Biso   1.000  N
  O64      1.0000 0.93610  0.99356  0.86008  Biso   1.000  O
  O65      1.0000 0.84900  0.06378  0.83500  Biso   1.000  O
  O66      1.0000 0.96180  0.08221  0.83662  Biso   1.000  O
  O67      1.0000 0.03090  0.14229  0.84132  Biso   1.000  O
  O68      1.0000 0.01640  0.20467  0.83725  Biso   1.000  O
  O69      1.0000 0.56490  0.21954  0.86884  Biso   1.000  O
  O70      1.0000 0.50620  0.24701  0.82434  Biso   1.000  O
  O71      1.0000 0.61780  0.24076  0.70733  Biso   1.000  O
  O72      1.0000 0.73390  0.25437  0.70846  Biso   1.000  O
  H88      1.0000 0.00300  0.12280  0.84580  Biso   1.000  H
  H89      1.0000 0.45500  0.27720  0.87870  Biso   1.000  H
  C129     1.0000 0.39550  0.16071  0.91527  Biso   1.000  C
  C130     1.0000 0.49060  0.07820  0.91339  Biso   1.000  C
  C131     1.0000 0.37230  0.11908  0.91994  Biso   1.000  C
  C132     1.0000 0.41410  0.08385  0.91927  Biso   1.000  C
  C133     1.0000 0.36800  0.05381  0.92542  Biso   1.000  C
  C134     1.0000 0.30410  0.10936  0.92665  Biso   1.000  C
  C135     1.0000 0.23800  0.13280  0.93102  Biso   1.000  C
  H90      1.0000 0.24830  0.15980  0.92740  Biso   1.000  H
  H91      1.0000 0.21980  0.12920  0.95410  Biso   1.000  H
  H92      1.0000 0.20360  0.12450  0.91430  Biso   1.000  H
  C136     1.0000 0.37860  0.01080  0.92660  Biso   1.000  C
  H93      1.0000 0.33480  0.99830  0.93200  Biso   1.000  H
  H94      1.0000 0.41280  0.00450  0.94410  Biso   1.000  H
  H95      1.0000 0.39510  0.00190  0.90430  Biso   1.000  H
  C137     1.0000 0.24150  0.04821  0.94312  Biso   1.000  C
  C138     1.0000 0.23980  0.03591  0.97721  Biso   1.000  C
  H96      1.0000 0.27910  0.03920  0.99130  Biso   1.000  H
  C139     1.0000 0.17960  0.01870  0.99055  Biso   1.000  C
  C140     1.0000 0.11930  0.01429  0.96997  Biso   1.000  C
  H97      1.0000 0.07810  0.00420  0.97940  Biso   1.000  H
  C141     1.0000 0.12220  0.02540  0.93484  Biso   1.000  C
  C142     1.0000 0.18250  0.04269  0.92156  Biso   1.000  C
  H98      1.0000 0.18390  0.05060  0.89840  Biso   1.000  H
  C143     1.0000 0.05840  0.01925  0.91182  Biso   1.000  C
  C144     1.0000 0.17630  0.00681  0.02834  Biso   1.000  C
  Cu17     1.0000 0.34048  0.24751  0.90933  Biso   1.000  Cu
  Cu18     1.0000 0.51060  0.22641  0.91183  Biso   1.000  Cu
  N9       1.0000 0.30200  0.06920  0.93048  Biso   1.000  N
  O73      1.0000 0.43610  0.25644  0.88992  Biso   1.000  O
  O74      1.0000 0.34900  0.18622  0.91500  Biso   1.000  O
  O75      1.0000 0.46180  0.16779  0.91338  Biso   1.000  O
  O76      1.0000 0.53090  0.10771  0.90868  Biso   1.000  O
  O77      1.0000 0.51640  0.04533  0.91275  Biso   1.000  O
  O78      1.0000 0.06490  0.03046  0.88116  Biso   1.000  O
  O79      1.0000 0.00620  0.00299  0.92566  Biso   1.000  O
  O80      1.0000 0.11780  0.00924  0.04267  Biso   1.000  O
  O81      1.0000 0.23390  0.99563  0.04154  Biso   1.000  O
  H99      1.0000 0.50300  0.12720  0.90420  Biso   1.000  H
  H100     1.0000 0.45500  0.77720  0.37870  Biso   1.000  H
  C145     1.0000 0.39550  0.66071  0.41527  Biso   1.000  C
  C146     1.0000 0.49060  0.57820  0.41339  Biso   1.000  C
  C147     1.0000 0.37230  0.61908  0.41994  Biso   1.000  C
  C148     1.0000 0.41410  0.58385  0.41927  Biso   1.000  C
  C149     1.0000 0.36800  0.55381  0.42542  Biso   1.000  C
  C150     1.0000 0.30410  0.60936  0.42665  Biso   1.000  C
  C151     1.0000 0.23800  0.63280  0.43102  Biso   1.000  C
  H101     1.0000 0.24830  0.65980  0.42740  Biso   1.000  H
  H102     1.0000 0.21980  0.62920  0.45410  Biso   1.000  H
  H103     1.0000 0.20360  0.62450  0.41430  Biso   1.000  H
  C152     1.0000 0.37860  0.51080  0.42660  Biso   1.000  C
  H104     1.0000 0.33480  0.49830  0.43200  Biso   1.000  H
  H105     1.0000 0.41280  0.50450  0.44410  Biso   1.000  H
  H106     1.0000 0.39510  0.50190  0.40430  Biso   1.000  H
  C153     1.0000 0.24150  0.54821  0.44312  Biso   1.000  C
  C154     1.0000 0.23980  0.53591  0.47721  Biso   1.000  C
  H107     1.0000 0.27910  0.53920  0.49130  Biso   1.000  H
  C155     1.0000 0.17960  0.51870  0.49055  Biso   1.000  C
  C156     1.0000 0.11930  0.51429  0.46997  Biso   1.000  C
  H108     1.0000 0.07810  0.50420  0.47940  Biso   1.000  H
  C157     1.0000 0.12220  0.52540  0.43484  Biso   1.000  C
  C158     1.0000 0.18250  0.54269  0.42156  Biso   1.000  C
  H109     1.0000 0.18390  0.55060  0.39840  Biso   1.000  H
  C159     1.0000 0.05840  0.51925  0.41182  Biso   1.000  C
  C160     1.0000 0.17630  0.50681  0.52834  Biso   1.000  C
  Cu19     1.0000 0.34048  0.74751  0.40933  Biso   1.000  Cu
  Cu20     1.0000 0.51060  0.72641  0.41183  Biso   1.000  Cu
  N10      1.0000 0.30200  0.56920  0.43048  Biso   1.000  N
  O82      1.0000 0.43610  0.75644  0.38992  Biso   1.000  O
  O83      1.0000 0.34900  0.68622  0.41500  Biso   1.000  O
  O84      1.0000 0.46180  0.66779  0.41338  Biso   1.000  O
  O85      1.0000 0.53090  0.60771  0.40868  Biso   1.000  O
  O86      1.0000 0.51640  0.54533  0.41275  Biso   1.000  O
  O87      1.0000 0.06490  0.53046  0.38116  Biso   1.000  O
  O88      1.0000 0.00620  0.50299  0.42566  Biso   1.000  O
  O89      1.0000 0.11780  0.50924  0.54267  Biso   1.000  O
  O90      1.0000 0.23390  0.49563  0.54154  Biso   1.000  O
  H110     1.0000 0.50300  0.62720  0.40420  Biso   1.000  H
  H111     1.0000 0.95500  0.27720  0.37870  Biso   1.000  H
  C161     1.0000 0.89550  0.16071  0.41527  Biso   1.000  C
  C162     1.0000 0.99060  0.07820  0.41339  Biso   1.000  C
  C163     1.0000 0.87230  0.11908  0.41994  Biso   1.000  C
  C164     1.0000 0.91410  0.08385  0.41927  Biso   1.000  C
  C165     1.0000 0.86800  0.05381  0.42542  Biso   1.000  C
  C166     1.0000 0.80410  0.10936  0.42665  Biso   1.000  C
  C167     1.0000 0.73800  0.13280  0.43102  Biso   1.000  C
  H112     1.0000 0.74830  0.15980  0.42740  Biso   1.000  H
  H113     1.0000 0.71980  0.12920  0.45410  Biso   1.000  H
  H114     1.0000 0.70360  0.12450  0.41430  Biso   1.000  H
  C168     1.0000 0.87860  0.01080  0.42660  Biso   1.000  C
  H115     1.0000 0.83480  0.99830  0.43200  Biso   1.000  H
  H116     1.0000 0.91280  0.00450  0.44410  Biso   1.000  H
  H117     1.0000 0.89510  0.00190  0.40430  Biso   1.000  H
  C169     1.0000 0.74150  0.04821  0.44312  Biso   1.000  C
  C170     1.0000 0.73980  0.03591  0.47721  Biso   1.000  C
  H118     1.0000 0.77910  0.03920  0.49130  Biso   1.000  H
  C171     1.0000 0.67960  0.01870  0.49055  Biso   1.000  C
  C172     1.0000 0.61930  0.01429  0.46997  Biso   1.000  C
  H119     1.0000 0.57810  0.00420  0.47940  Biso   1.000  H
  C173     1.0000 0.62220  0.02540  0.43484  Biso   1.000  C
  C174     1.0000 0.68250  0.04269  0.42156  Biso   1.000  C
  H120     1.0000 0.68390  0.05060  0.39840  Biso   1.000  H
  C175     1.0000 0.55840  0.01925  0.41182  Biso   1.000  C
  C176     1.0000 0.67630  0.00681  0.52834  Biso   1.000  C
  Cu21     1.0000 0.84048  0.24751  0.40933  Biso   1.000  Cu
  Cu22     1.0000 0.01060  0.22641  0.41183  Biso   1.000  Cu
  N11      1.0000 0.80200  0.06920  0.43048  Biso   1.000  N
  O91      1.0000 0.93610  0.25644  0.38992  Biso   1.000  O
  O92      1.0000 0.84900  0.18622  0.41500  Biso   1.000  O
  O93      1.0000 0.96180  0.16779  0.41338  Biso   1.000  O
  O94      1.0000 0.03090  0.10771  0.40868  Biso   1.000  O
  O95      1.0000 0.01640  0.04533  0.41275  Biso   1.000  O
  O96      1.0000 0.56490  0.03046  0.38116  Biso   1.000  O
  O97      1.0000 0.50620  0.00299  0.42566  Biso   1.000  O
  O98      1.0000 0.61780  0.00924  0.54267  Biso   1.000  O
  O99      1.0000 0.73390  0.99563  0.54154  Biso   1.000  O
  H121     1.0000 0.00300  0.12720  0.40420  Biso   1.000  H
  H122     1.0000 0.95500  0.77720  0.87870  Biso   1.000  H
  C177     1.0000 0.89550  0.66071  0.91527  Biso   1.000  C
  C178     1.0000 0.99060  0.57820  0.91339  Biso   1.000  C
  C179     1.0000 0.87230  0.61908  0.91994  Biso   1.000  C
  C180     1.0000 0.91410  0.58385  0.91927  Biso   1.000  C
  C181     1.0000 0.86800  0.55381  0.92542  Biso   1.000  C
  C182     1.0000 0.80410  0.60936  0.92665  Biso   1.000  C
  C183     1.0000 0.73800  0.63280  0.93102  Biso   1.000  C
  H123     1.0000 0.74830  0.65980  0.92740  Biso   1.000  H
  H124     1.0000 0.71980  0.62920  0.95410  Biso   1.000  H
  H125     1.0000 0.70360  0.62450  0.91430  Biso   1.000  H
  C184     1.0000 0.87860  0.51080  0.92660  Biso   1.000  C
  H126     1.0000 0.83480  0.49830  0.93200  Biso   1.000  H
  H127     1.0000 0.91280  0.50450  0.94410  Biso   1.000  H
  H128     1.0000 0.89510  0.50190  0.90430  Biso   1.000  H
  C185     1.0000 0.74150  0.54821  0.94312  Biso   1.000  C
  C186     1.0000 0.73980  0.53591  0.97721  Biso   1.000  C
  H129     1.0000 0.77910  0.53920  0.99130  Biso   1.000  H
  C187     1.0000 0.67960  0.51870  0.99055  Biso   1.000  C
  C188     1.0000 0.61930  0.51429  0.96997  Biso   1.000  C
  H130     1.0000 0.57810  0.50420  0.97940  Biso   1.000  H
  C189     1.0000 0.62220  0.52540  0.93484  Biso   1.000  C
  C190     1.0000 0.68250  0.54269  0.92156  Biso   1.000  C
  H131     1.0000 0.68390  0.55060  0.89840  Biso   1.000  H
  C191     1.0000 0.55840  0.51925  0.91182  Biso   1.000  C
  C192     1.0000 0.67630  0.50681  0.02834  Biso   1.000  C
  Cu23     1.0000 0.84048  0.74751  0.90933  Biso   1.000  Cu
  Cu24     1.0000 0.01060  0.72641  0.91183  Biso   1.000  Cu
  N12      1.0000 0.80200  0.56920  0.93048  Biso   1.000  N
  O100     1.0000 0.93610  0.75644  0.88992  Biso   1.000  O
  O101     1.0000 0.84900  0.68622  0.91500  Biso   1.000  O
  O102     1.0000 0.96180  0.66779  0.91338  Biso   1.000  O
  O103     1.0000 0.03090  0.60771  0.90868  Biso   1.000  O
  O104     1.0000 0.01640  0.54533  0.91275  Biso   1.000  O
  O105     1.0000 0.56490  0.53046  0.88116  Biso   1.000  O
  O106     1.0000 0.50620  0.50299  0.92566  Biso   1.000  O
  O107     1.0000 0.61780  0.50924  0.04267  Biso   1.000  O
  O108     1.0000 0.73390  0.49563  0.04154  Biso   1.000  O
  H132     1.0000 0.00300  0.62720  0.90420  Biso   1.000  H
  H133     1.0000 0.29500  0.47280  0.87870  Biso   1.000  H
  C193     1.0000 0.35450  0.58929  0.91527  Biso   1.000  C
  C194     1.0000 0.25940  0.67180  0.91339  Biso   1.000  C
  C195     1.0000 0.37770  0.63092  0.91994  Biso   1.000  C
  C196     1.0000 0.33590  0.66615  0.91927  Biso   1.000  C
  C197     1.0000 0.38200  0.69619  0.92542  Biso   1.000  C
  C198     1.0000 0.44590  0.64064  0.92665  Biso   1.000  C
  C199     1.0000 0.51200  0.61720  0.93102  Biso   1.000  C
  H134     1.0000 0.50170  0.59020  0.92740  Biso   1.000  H
  H135     1.0000 0.53020  0.62080  0.95410  Biso   1.000  H
  H136     1.0000 0.54640  0.62550  0.91430  Biso   1.000  H
  C200     1.0000 0.37140  0.73920  0.92660  Biso   1.000  C
  H137     1.0000 0.41520  0.75170  0.93200  Biso   1.000  H
  H138     1.0000 0.33720  0.74550  0.94410  Biso   1.000  H
  H139     1.0000 0.35490  0.74810  0.90430  Biso   1.000  H
  C201     1.0000 0.50850  0.70179  0.94312  Biso   1.000  C
  C202     1.0000 0.51020  0.71409  0.97721  Biso   1.000  C
  H140     1.0000 0.47090  0.71080  0.99130  Biso   1.000  H
  C203     1.0000 0.57040  0.73130  0.99055  Biso   1.000  C
  C204     1.0000 0.63070  0.73571  0.96997  Biso   1.000  C
  H141     1.0000 0.67190  0.74580  0.97940  Biso   1.000  H
  C205     1.0000 0.62780  0.72460  0.93484  Biso   1.000  C
  C206     1.0000 0.56750  0.70731  0.92156  Biso   1.000  C
  H142     1.0000 0.56610  0.69940  0.89840  Biso   1.000  H
  C207     1.0000 0.69160  0.73075  0.91182  Biso   1.000  C
  C208     1.0000 0.57370  0.74319  0.02834  Biso   1.000  C
  Cu25     1.0000 0.40952  0.50249  0.90933  Biso   1.000  Cu
  Cu26     1.0000 0.23940  0.52359  0.91183  Biso   1.000  Cu
  N13      1.0000 0.44800  0.68080  0.93048  Biso   1.000  N
  O109     1.0000 0.31390  0.49356  0.88992  Biso   1.000  O
  O110     1.0000 0.40100  0.56378  0.91500  Biso   1.000  O
  O111     1.0000 0.28820  0.58221  0.91338  Biso   1.000  O
  O112     1.0000 0.21910  0.64229  0.90868  Biso   1.000  O
  O113     1.0000 0.23360  0.70467  0.91275  Biso   1.000  O
  O114     1.0000 0.68510  0.71954  0.88116  Biso   1.000  O
  O115     1.0000 0.74380  0.74701  0.92566  Biso   1.000  O
  O116     1.0000 0.63220  0.74076  0.04267  Biso   1.000  O
  O117     1.0000 0.51610  0.75437  0.04154  Biso   1.000  O
  H143     1.0000 0.24700  0.62280  0.90420  Biso   1.000  H
  H144     1.0000 0.29500  0.97280  0.37870  Biso   1.000  H
  C209     1.0000 0.35450  0.08929  0.41527  Biso   1.000  C
  C210     1.0000 0.25940  0.17180  0.41339  Biso   1.000  C
  C211     1.0000 0.37770  0.13092  0.41994  Biso   1.000  C
  C212     1.0000 0.33590  0.16615  0.41927  Biso   1.000  C
  C213     1.0000 0.38200  0.19619  0.42542  Biso   1.000  C
  C214     1.0000 0.44590  0.14064  0.42665  Biso   1.000  C
  C215     1.0000 0.51200  0.11720  0.43102  Biso   1.000  C
  H145     1.0000 0.50170  0.09020  0.42740  Biso   1.000  H
  H146     1.0000 0.53020  0.12080  0.45410  Biso   1.000  H
  H147     1.0000 0.54640  0.12550  0.41430  Biso   1.000  H
  C216     1.0000 0.37140  0.23920  0.42660  Biso   1.000  C
  H148     1.0000 0.41520  0.25170  0.43200  Biso   1.000  H
  H149     1.0000 0.33720  0.24550  0.44410  Biso   1.000  H
  H150     1.0000 0.35490  0.24810  0.40430  Biso   1.000  H
  C217     1.0000 0.50850  0.20179  0.44312  Biso   1.000  C
  C218     1.0000 0.51020  0.21409  0.47721  Biso   1.000  C
  H151     1.0000 0.47090  0.21080  0.49130  Biso   1.000  H
  C219     1.0000 0.57040  0.23130  0.49055  Biso   1.000  C
  C220     1.0000 0.63070  0.23571  0.46997  Biso   1.000  C
  H152     1.0000 0.67190  0.24580  0.47940  Biso   1.000  H
  C221     1.0000 0.62780  0.22460  0.43484  Biso   1.000  C
  C222     1.0000 0.56750  0.20731  0.42156  Biso   1.000  C
  H153     1.0000 0.56610  0.19940  0.39840  Biso   1.000  H
  C223     1.0000 0.69160  0.23075  0.41182  Biso   1.000  C
  C224     1.0000 0.57370  0.24319  0.52834  Biso   1.000  C
  Cu27     1.0000 0.40952  0.00249  0.40933  Biso   1.000  Cu
  Cu28     1.0000 0.23940  0.02359  0.41183  Biso   1.000  Cu
  N14      1.0000 0.44800  0.18080  0.43048  Biso   1.000  N
  O118     1.0000 0.31390  0.99356  0.38992  Biso   1.000  O
  O119     1.0000 0.40100  0.06378  0.41500  Biso   1.000  O
  O120     1.0000 0.28820  0.08221  0.41338  Biso   1.000  O
  O121     1.0000 0.21910  0.14229  0.40868  Biso   1.000  O
  O122     1.0000 0.23360  0.20467  0.41275  Biso   1.000  O
  O123     1.0000 0.68510  0.21954  0.38116  Biso   1.000  O
  O124     1.0000 0.74380  0.24701  0.42566  Biso   1.000  O
  O125     1.0000 0.63220  0.24076  0.54267  Biso   1.000  O
  O126     1.0000 0.51610  0.25437  0.54154  Biso   1.000  O
  H154     1.0000 0.24700  0.12280  0.40420  Biso   1.000  H
  H155     1.0000 0.79500  0.47280  0.37870  Biso   1.000  H
  C225     1.0000 0.85450  0.58929  0.41527  Biso   1.000  C
  C226     1.0000 0.75940  0.67180  0.41339  Biso   1.000  C
  C227     1.0000 0.87770  0.63092  0.41994  Biso   1.000  C
  C228     1.0000 0.83590  0.66615  0.41927  Biso   1.000  C
  C229     1.0000 0.88200  0.69619  0.42542  Biso   1.000  C
  C230     1.0000 0.94590  0.64064  0.42665  Biso   1.000  C
  C231     1.0000 0.01200  0.61720  0.43102  Biso   1.000  C
  H156     1.0000 0.00170  0.59020  0.42740  Biso   1.000  H
  H157     1.0000 0.03020  0.62080  0.45410  Biso   1.000  H
  H158     1.0000 0.04640  0.62550  0.41430  Biso   1.000  H
  C232     1.0000 0.87140  0.73920  0.42660  Biso   1.000  C
  H159     1.0000 0.91520  0.75170  0.43200  Biso   1.000  H
  H160     1.0000 0.83720  0.74550  0.44410  Biso   1.000  H
  H161     1.0000 0.85490  0.74810  0.40430  Biso   1.000  H
  C233     1.0000 0.00850  0.70179  0.44312  Biso   1.000  C
  C234     1.0000 0.01020  0.71409  0.47721  Biso   1.000  C
  H162     1.0000 0.97090  0.71080  0.49130  Biso   1.000  H
  C235     1.0000 0.07040  0.73130  0.49055  Biso   1.000  C
  C236     1.0000 0.13070  0.73571  0.46997  Biso   1.000  C
  H163     1.0000 0.17190  0.74580  0.47940  Biso   1.000  H
  C237     1.0000 0.12780  0.72460  0.43484  Biso   1.000  C
  C238     1.0000 0.06750  0.70731  0.42156  Biso   1.000  C
  H164     1.0000 0.06610  0.69940  0.39840  Biso   1.000  H
  C239     1.0000 0.19160  0.73075  0.41182  Biso   1.000  C
  C240     1.0000 0.07370  0.74319  0.52834  Biso   1.000  C
  Cu29     1.0000 0.90952  0.50249  0.40933  Biso   1.000  Cu
  Cu30     1.0000 0.73940  0.52359  0.41183  Biso   1.000  Cu
  N15      1.0000 0.94800  0.68080  0.43048  Biso   1.000  N
  O127     1.0000 0.81390  0.49356  0.38992  Biso   1.000  O
  O128     1.0000 0.90100  0.56378  0.41500  Biso   1.000  O
  O129     1.0000 0.78820  0.58221  0.41338  Biso   1.000  O
  O130     1.0000 0.71910  0.64229  0.40868  Biso   1.000  O
  O131     1.0000 0.73360  0.70467  0.41275  Biso   1.000  O
  O132     1.0000 0.18510  0.71954  0.38116  Biso   1.000  O
  O133     1.0000 0.24380  0.74701  0.42566  Biso   1.000  O
  O134     1.0000 0.13220  0.74076  0.54267  Biso   1.000  O
  O135     1.0000 0.01610  0.75437  0.54154  Biso   1.000  O
  H165     1.0000 0.74700  0.62280  0.40420  Biso   1.000  H
  H166     1.0000 0.79500  0.97280  0.87870  Biso   1.000  H
  C241     1.0000 0.85450  0.08929  0.91527  Biso   1.000  C
  C242     1.0000 0.75940  0.17180  0.91339  Biso   1.000  C
  C243     1.0000 0.87770  0.13092  0.91994  Biso   1.000  C
  C244     1.0000 0.83590  0.16615  0.91927  Biso   1.000  C
  C245     1.0000 0.88200  0.19619  0.92542  Biso   1.000  C
  C246     1.0000 0.94590  0.14064  0.92665  Biso   1.000  C
  C247     1.0000 0.01200  0.11720  0.93102  Biso   1.000  C
  H167     1.0000 0.00170  0.09020  0.92740  Biso   1.000  H
  H168     1.0000 0.03020  0.12080  0.95410  Biso   1.000  H
  H169     1.0000 0.04640  0.12550  0.91430  Biso   1.000  H
  C248     1.0000 0.87140  0.23920  0.92660  Biso   1.000  C
  H170     1.0000 0.91520  0.25170  0.93200  Biso   1.000  H
  H171     1.0000 0.83720  0.24550  0.94410  Biso   1.000  H
  H172     1.0000 0.85490  0.24810  0.90430  Biso   1.000  H
  C249     1.0000 0.00850  0.20179  0.94312  Biso   1.000  C
  C250     1.0000 0.01020  0.21409  0.97721  Biso   1.000  C
  H173     1.0000 0.97090  0.21080  0.99130  Biso   1.000  H
  C251     1.0000 0.07040  0.23130  0.99055  Biso   1.000  C
  C252     1.0000 0.13070  0.23571  0.96997  Biso   1.000  C
  H174     1.0000 0.17190  0.24580  0.97940  Biso   1.000  H
  C253     1.0000 0.12780  0.22460  0.93484  Biso   1.000  C
  C254     1.0000 0.06750  0.20731  0.92156  Biso   1.000  C
  H175     1.0000 0.06610  0.19940  0.89840  Biso   1.000  H
  C255     1.0000 0.19160  0.23075  0.91182  Biso   1.000  C
  C256     1.0000 0.07370  0.24319  0.02834  Biso   1.000  C
  Cu31     1.0000 0.90952  0.00249  0.90933  Biso   1.000  Cu
  Cu32     1.0000 0.73940  0.02359  0.91183  Biso   1.000  Cu
  N16      1.0000 0.94800  0.18080  0.93048  Biso   1.000  N
  O136     1.0000 0.81390  0.99356  0.88992  Biso   1.000  O
  O137     1.0000 0.90100  0.06378  0.91500  Biso   1.000  O
  O138     1.0000 0.78820  0.08221  0.91338  Biso   1.000  O
  O139     1.0000 0.71910  0.14229  0.90868  Biso   1.000  O
  O140     1.0000 0.73360  0.20467  0.91275  Biso   1.000  O
  O141     1.0000 0.18510  0.21954  0.88116  Biso   1.000  O
  O142     1.0000 0.24380  0.24701  0.92566  Biso   1.000  O
  O143     1.0000 0.13220  0.24076  0.04267  Biso   1.000  O
  O144     1.0000 0.01610  0.25437  0.04154  Biso   1.000  O
  H176     1.0000 0.74700  0.12280  0.90420  Biso   1.000  H
  H177     1.0000 0.70500  0.72280  0.12870  Biso   1.000  H
  C257     1.0000 0.64550  0.83929  0.16527  Biso   1.000  C
  C258     1.0000 0.74060  0.92180  0.16339  Biso   1.000  C
  C259     1.0000 0.62230  0.88092  0.16994  Biso   1.000  C
  C260     1.0000 0.66410  0.91615  0.16927  Biso   1.000  C
  C261     1.0000 0.61800  0.94619  0.17542  Biso   1.000  C
  C262     1.0000 0.55410  0.89064  0.17665  Biso   1.000  C
  C263     1.0000 0.48800  0.86720  0.18102  Biso   1.000  C
  H178     1.0000 0.49830  0.84020  0.17740  Biso   1.000  H
  H179     1.0000 0.46980  0.87080  0.20410  Biso   1.000  H
  H180     1.0000 0.45360  0.87550  0.16430  Biso   1.000  H
  C264     1.0000 0.62860  0.98920  0.17660  Biso   1.000  C
  H181     1.0000 0.58480  0.00170  0.18200  Biso   1.000  H
  H182     1.0000 0.66280  0.99550  0.19410  Biso   1.000  H
  H183     1.0000 0.64510  0.99810  0.15430  Biso   1.000  H
  C265     1.0000 0.49150  0.95179  0.19312  Biso   1.000  C
  C266     1.0000 0.48980  0.96409  0.22721  Biso   1.000  C
  H184     1.0000 0.52910  0.96080  0.24130  Biso   1.000  H
  C267     1.0000 0.42960  0.98130  0.24055  Biso   1.000  C
  C268     1.0000 0.36930  0.98571  0.21997  Biso   1.000  C
  H185     1.0000 0.32810  0.99580  0.22940  Biso   1.000  H
  C269     1.0000 0.37220  0.97460  0.18484  Biso   1.000  C
  C270     1.0000 0.43250  0.95731  0.17156  Biso   1.000  C
  H186     1.0000 0.43390  0.94940  0.14840  Biso   1.000  H
  C271     1.0000 0.30840  0.98075  0.16182  Biso   1.000  C
  C272     1.0000 0.42630  0.99319  0.27834  Biso   1.000  C
  Cu33     1.0000 0.59048  0.75249  0.15933  Biso   1.000  Cu
  Cu34     1.0000 0.76060  0.77359  0.16183  Biso   1.000  Cu
  N17      1.0000 0.55200  0.93080  0.18048  Biso   1.000  N
  O145     1.0000 0.68610  0.74356  0.13992  Biso   1.000  O
  O146     1.0000 0.59900  0.81378  0.16500  Biso   1.000  O
  O147     1.0000 0.71180  0.83221  0.16338  Biso   1.000  O
  O148     1.0000 0.78090  0.89229  0.15868  Biso   1.000  O
  O149     1.0000 0.76640  0.95467  0.16275  Biso   1.000  O
  O150     1.0000 0.31490  0.96954  0.13116  Biso   1.000  O
  O151     1.0000 0.25620  0.99701  0.17566  Biso   1.000  O
  O152     1.0000 0.36780  0.99076  0.29267  Biso   1.000  O
  O153     1.0000 0.48390  0.00437  0.29154  Biso   1.000  O
  H187     1.0000 0.75300  0.87280  0.15420  Biso   1.000  H
  H188     1.0000 0.70500  0.22280  0.62870  Biso   1.000  H
  C273     1.0000 0.64550  0.33929  0.66527  Biso   1.000  C
  C274     1.0000 0.74060  0.42180  0.66339  Biso   1.000  C
  C275     1.0000 0.62230  0.38092  0.66994  Biso   1.000  C
  C276     1.0000 0.66410  0.41615  0.66927  Biso   1.000  C
  C277     1.0000 0.61800  0.44619  0.67542  Biso   1.000  C
  C278     1.0000 0.55410  0.39064  0.67665  Biso   1.000  C
  C279     1.0000 0.48800  0.36720  0.68102  Biso   1.000  C
  H189     1.0000 0.49830  0.34020  0.67740  Biso   1.000  H
  H190     1.0000 0.46980  0.37080  0.70410  Biso   1.000  H
  H191     1.0000 0.45360  0.37550  0.66430  Biso   1.000  H
  C280     1.0000 0.62860  0.48920  0.67660  Biso   1.000  C
  H192     1.0000 0.58480  0.50170  0.68200  Biso   1.000  H
  H193     1.0000 0.66280  0.49550  0.69410  Biso   1.000  H
  H194     1.0000 0.64510  0.49810  0.65430  Biso   1.000  H
  C281     1.0000 0.49150  0.45179  0.69312  Biso   1.000  C
  C282     1.0000 0.48980  0.46409  0.72721  Biso   1.000  C
  H195     1.0000 0.52910  0.46080  0.74130  Biso   1.000  H
  C283     1.0000 0.42960  0.48130  0.74055  Biso   1.000  C
  C284     1.0000 0.36930  0.48571  0.71997  Biso   1.000  C
  H196     1.0000 0.32810  0.49580  0.72940  Biso   1.000  H
  C285     1.0000 0.37220  0.47460  0.68484  Biso   1.000  C
  C286     1.0000 0.43250  0.45731  0.67156  Biso   1.000  C
  H197     1.0000 0.43390  0.44940  0.64840  Biso   1.000  H
  C287     1.0000 0.30840  0.48075  0.66182  Biso   1.000  C
  C288     1.0000 0.42630  0.49319  0.77834  Biso   1.000  C
  Cu35     1.0000 0.59048  0.25249  0.65933  Biso   1.000  Cu
  Cu36     1.0000 0.76060  0.27359  0.66183  Biso   1.000  Cu
  N18      1.0000 0.55200  0.43080  0.68048  Biso   1.000  N
  O154     1.0000 0.68610  0.24356  0.63992  Biso   1.000  O
  O155     1.0000 0.59900  0.31378  0.66500  Biso   1.000  O
  O156     1.0000 0.71180  0.33221  0.66338  Biso   1.000  O
  O157     1.0000 0.78090  0.39229  0.65868  Biso   1.000  O
  O158     1.0000 0.76640  0.45467  0.66275  Biso   1.000  O
  O159     1.0000 0.31490  0.46954  0.63116  Biso   1.000  O
  O160     1.0000 0.25620  0.49701  0.67566  Biso   1.000  O
  O161     1.0000 0.36780  0.49076  0.79267  Biso   1.000  O
  O162     1.0000 0.48390  0.50437  0.79154  Biso   1.000  O
  H198     1.0000 0.75300  0.37280  0.65420  Biso   1.000  H
  H199     1.0000 0.20500  0.72280  0.62870  Biso   1.000  H
  C289     1.0000 0.14550  0.83929  0.66527  Biso   1.000  C
  C290     1.0000 0.24060  0.92180  0.66339  Biso   1.000  C
  C291     1.0000 0.12230  0.88092  0.66994  Biso   1.000  C
  C292     1.0000 0.16410  0.91615  0.66927  Biso   1.000  C
  C293     1.0000 0.11800  0.94619  0.67542  Biso   1.000  C
  C294     1.0000 0.05410  0.89064  0.67665  Biso   1.000  C
  C295     1.0000 0.98800  0.86720  0.68102  Biso   1.000  C
  H200     1.0000 0.99830  0.84020  0.67740  Biso   1.000  H
  H201     1.0000 0.96980  0.87080  0.70410  Biso   1.000  H
  H202     1.0000 0.95360  0.87550  0.66430  Biso   1.000  H
  C296     1.0000 0.12860  0.98920  0.67660  Biso   1.000  C
  H203     1.0000 0.08480  0.00170  0.68200  Biso   1.000  H
  H204     1.0000 0.16280  0.99550  0.69410  Biso   1.000  H
  H205     1.0000 0.14510  0.99810  0.65430  Biso   1.000  H
  C297     1.0000 0.99150  0.95179  0.69312  Biso   1.000  C
  C298     1.0000 0.98980  0.96409  0.72721  Biso   1.000  C
  H206     1.0000 0.02910  0.96080  0.74130  Biso   1.000  H
  C299     1.0000 0.92960  0.98130  0.74055  Biso   1.000  C
  C300     1.0000 0.86930  0.98571  0.71997  Biso   1.000  C
  H207     1.0000 0.82810  0.99580  0.72940  Biso   1.000  H
  C301     1.0000 0.87220  0.97460  0.68484  Biso   1.000  C
  C302     1.0000 0.93250  0.95731  0.67156  Biso   1.000  C
  H208     1.0000 0.93390  0.94940  0.64840  Biso   1.000  H
  C303     1.0000 0.80840  0.98075  0.66182  Biso   1.000  C
  C304     1.0000 0.92630  0.99319  0.77834  Biso   1.000  C
  Cu37     1.0000 0.09048  0.75249  0.65933  Biso   1.000  Cu
  Cu38     1.0000 0.26060  0.77359  0.66183  Biso   1.000  Cu
  N19      1.0000 0.05200  0.93080  0.68048  Biso   1.000  N
  O163     1.0000 0.18610  0.74356  0.63992  Biso   1.000  O
  O164     1.0000 0.09900  0.81378  0.66500  Biso   1.000  O
  O165     1.0000 0.21180  0.83221  0.66338  Biso   1.000  O
  O166     1.0000 0.28090  0.89229  0.65868  Biso   1.000  O
  O167     1.0000 0.26640  0.95467  0.66275  Biso   1.000  O
  O168     1.0000 0.81490  0.96954  0.63116  Biso   1.000  O
  O169     1.0000 0.75620  0.99701  0.67566  Biso   1.000  O
  O170     1.0000 0.86780  0.99076  0.79267  Biso   1.000  O
  O171     1.0000 0.98390  0.00437  0.79154  Biso   1.000  O
  H209     1.0000 0.25300  0.87280  0.65420  Biso   1.000  H
  H210     1.0000 0.20500  0.22280  0.12870  Biso   1.000  H
  C305     1.0000 0.14550  0.33929  0.16527  Biso   1.000  C
  C306     1.0000 0.24060  0.42180  0.16339  Biso   1.000  C
  C307     1.0000 0.12230  0.38092  0.16994  Biso   1.000  C
  C308     1.0000 0.16410  0.41615  0.16927  Biso   1.000  C
  C309     1.0000 0.11800  0.44619  0.17542  Biso   1.000  C
  C310     1.0000 0.05410  0.39064  0.17665  Biso   1.000  C
  C311     1.0000 0.98800  0.36720  0.18102  Biso   1.000  C
  H211     1.0000 0.99830  0.34020  0.17740  Biso   1.000  H
  H212     1.0000 0.96980  0.37080  0.20410  Biso   1.000  H
  H213     1.0000 0.95360  0.37550  0.16430  Biso   1.000  H
  C312     1.0000 0.12860  0.48920  0.17660  Biso   1.000  C
  H214     1.0000 0.08480  0.50170  0.18200  Biso   1.000  H
  H215     1.0000 0.16280  0.49550  0.19410  Biso   1.000  H
  H216     1.0000 0.14510  0.49810  0.15430  Biso   1.000  H
  C313     1.0000 0.99150  0.45179  0.19312  Biso   1.000  C
  C314     1.0000 0.98980  0.46409  0.22721  Biso   1.000  C
  H217     1.0000 0.02910  0.46080  0.24130  Biso   1.000  H
  C315     1.0000 0.92960  0.48130  0.24055  Biso   1.000  C
  C316     1.0000 0.86930  0.48571  0.21997  Biso   1.000  C
  H218     1.0000 0.82810  0.49580  0.22940  Biso   1.000  H
  C317     1.0000 0.87220  0.47460  0.18484  Biso   1.000  C
  C318     1.0000 0.93250  0.45731  0.17156  Biso   1.000  C
  H219     1.0000 0.93390  0.44940  0.14840  Biso   1.000  H
  C319     1.0000 0.80840  0.48075  0.16182  Biso   1.000  C
  C320     1.0000 0.92630  0.49319  0.27834  Biso   1.000  C
  Cu39     1.0000 0.09048  0.25249  0.15933  Biso   1.000  Cu
  Cu40     1.0000 0.26060  0.27359  0.16183  Biso   1.000  Cu
  N20      1.0000 0.05200  0.43080  0.18048  Biso   1.000  N
  O172     1.0000 0.18610  0.24356  0.13992  Biso   1.000  O
  O173     1.0000 0.09900  0.31378  0.16500  Biso   1.000  O
  O174     1.0000 0.21180  0.33221  0.16338  Biso   1.000  O
  O175     1.0000 0.28090  0.39229  0.15868  Biso   1.000  O
  O176     1.0000 0.26640  0.45467  0.16275  Biso   1.000  O
  O177     1.0000 0.81490  0.46954  0.13116  Biso   1.000  O
  O178     1.0000 0.75620  0.49701  0.17566  Biso   1.000  O
  O179     1.0000 0.86780  0.49076  0.29267  Biso   1.000  O
  O180     1.0000 0.98390  0.50437  0.29154  Biso   1.000  O
  H220     1.0000 0.25300  0.37280  0.15420  Biso   1.000  H
  H221     1.0000 0.54500  0.52720  0.12870  Biso   1.000  H
  C321     1.0000 0.60450  0.41071  0.16527  Biso   1.000  C
  C322     1.0000 0.50940  0.32820  0.16339  Biso   1.000  C
  C323     1.0000 0.62770  0.36908  0.16994  Biso   1.000  C
  C324     1.0000 0.58590  0.33385  0.16927  Biso   1.000  C
  C325     1.0000 0.63200  0.30381  0.17542  Biso   1.000  C
  C326     1.0000 0.69590  0.35936  0.17665  Biso   1.000  C
  C327     1.0000 0.76200  0.38280  0.18102  Biso   1.000  C
  H222     1.0000 0.75170  0.40980  0.17740  Biso   1.000  H
  H223     1.0000 0.78020  0.37920  0.20410  Biso   1.000  H
  H224     1.0000 0.79640  0.37450  0.16430  Biso   1.000  H
  C328     1.0000 0.62140  0.26080  0.17660  Biso   1.000  C
  H225     1.0000 0.66520  0.24830  0.18200  Biso   1.000  H
  H226     1.0000 0.58720  0.25450  0.19410  Biso   1.000  H
  H227     1.0000 0.60490  0.25190  0.15430  Biso   1.000  H
  C329     1.0000 0.75850  0.29821  0.19312  Biso   1.000  C
  C330     1.0000 0.76020  0.28591  0.22721  Biso   1.000  C
  H228     1.0000 0.72090  0.28920  0.24130  Biso   1.000  H
  C331     1.0000 0.82040  0.26870  0.24055  Biso   1.000  C
  C332     1.0000 0.88070  0.26429  0.21997  Biso   1.000  C
  H229     1.0000 0.92190  0.25420  0.22940  Biso   1.000  H
  C333     1.0000 0.87780  0.27540  0.18484  Biso   1.000  C
  C334     1.0000 0.81750  0.29269  0.17156  Biso   1.000  C
  H230     1.0000 0.81610  0.30060  0.14840  Biso   1.000  H
  C335     1.0000 0.94160  0.26925  0.16182  Biso   1.000  C
  C336     1.0000 0.82370  0.25681  0.27834  Biso   1.000  C
  Cu41     1.0000 0.65952  0.49751  0.15933  Biso   1.000  Cu
  Cu42     1.0000 0.48940  0.47641  0.16183  Biso   1.000  Cu
  N21      1.0000 0.69800  0.31920  0.18048  Biso   1.000  N
  O181     1.0000 0.56390  0.50644  0.13992  Biso   1.000  O
  O182     1.0000 0.65100  0.43622  0.16500  Biso   1.000  O
  O183     1.0000 0.53820  0.41779  0.16338  Biso   1.000  O
  O184     1.0000 0.46910  0.35771  0.15868  Biso   1.000  O
  O185     1.0000 0.48360  0.29533  0.16275  Biso   1.000  O
  O186     1.0000 0.93510  0.28046  0.13116  Biso   1.000  O
  O187     1.0000 0.99380  0.25299  0.17566  Biso   1.000  O
  O188     1.0000 0.88220  0.25924  0.29267  Biso   1.000  O
  O189     1.0000 0.76610  0.24563  0.29154  Biso   1.000  O
  H231     1.0000 0.49700  0.37720  0.15420  Biso   1.000  H
  H232     1.0000 0.54500  0.02720  0.62870  Biso   1.000  H
  C337     1.0000 0.60450  0.91071  0.66527  Biso   1.000  C
  C338     1.0000 0.50940  0.82820  0.66339  Biso   1.000  C
  C339     1.0000 0.62770  0.86908  0.66994  Biso   1.000  C
  C340     1.0000 0.58590  0.83385  0.66927  Biso   1.000  C
  C341     1.0000 0.63200  0.80381  0.67542  Biso   1.000  C
  C342     1.0000 0.69590  0.85936  0.67665  Biso   1.000  C
  C343     1.0000 0.76200  0.88280  0.68102  Biso   1.000  C
  H233     1.0000 0.75170  0.90980  0.67740  Biso   1.000  H
  H234     1.0000 0.78020  0.87920  0.70410  Biso   1.000  H
  H235     1.0000 0.79640  0.87450  0.66430  Biso   1.000  H
  C344     1.0000 0.62140  0.76080  0.67660  Biso   1.000  C
  H236     1.0000 0.66520  0.74830  0.68200  Biso   1.000  H
  H237     1.0000 0.58720  0.75450  0.69410  Biso   1.000  H
  H238     1.0000 0.60490  0.75190  0.65430  Biso   1.000  H
  C345     1.0000 0.75850  0.79821  0.69312  Biso   1.000  C
  C346     1.0000 0.76020  0.78591  0.72721  Biso   1.000  C
  H239     1.0000 0.72090  0.78920  0.74130  Biso   1.000  H
  C347     1.0000 0.82040  0.76870  0.74055  Biso   1.000  C
  C348     1.0000 0.88070  0.76429  0.71997  Biso   1.000  C
  H240     1.0000 0.92190  0.75420  0.72940  Biso   1.000  H
  C349     1.0000 0.87780  0.77540  0.68484  Biso   1.000  C
  C350     1.0000 0.81750  0.79269  0.67156  Biso   1.000  C
  H241     1.0000 0.81610  0.80060  0.64840  Biso   1.000  H
  C351     1.0000 0.94160  0.76925  0.66182  Biso   1.000  C
  C352     1.0000 0.82370  0.75681  0.77834  Biso   1.000  C
  Cu43     1.0000 0.65952  0.99751  0.65933  Biso   1.000  Cu
  Cu44     1.0000 0.48940  0.97641  0.66183  Biso   1.000  Cu
  N22      1.0000 0.69800  0.81920  0.68048  Biso   1.000  N
  O190     1.0000 0.56390  0.00644  0.63992  Biso   1.000  O
  O191     1.0000 0.65100  0.93622  0.66500  Biso   1.000  O
  O192     1.0000 0.53820  0.91779  0.66338  Biso   1.000  O
  O193     1.0000 0.46910  0.85771  0.65868  Biso   1.000  O
  O194     1.0000 0.48360  0.79533  0.66275  Biso   1.000  O
  O195     1.0000 0.93510  0.78046  0.63116  Biso   1.000  O
  O196     1.0000 0.99380  0.75299  0.67566  Biso   1.000  O
  O197     1.0000 0.88220  0.75924  0.79267  Biso   1.000  O
  O198     1.0000 0.76610  0.74563  0.79154  Biso   1.000  O
  H242     1.0000 0.49700  0.87720  0.65420  Biso   1.000  H
  H243     1.0000 0.04500  0.52720  0.62870  Biso   1.000  H
  C353     1.0000 0.10450  0.41071  0.66527  Biso   1.000  C
  C354     1.0000 0.00940  0.32820  0.66339  Biso   1.000  C
  C355     1.0000 0.12770  0.36908  0.66994  Biso   1.000  C
  C356     1.0000 0.08590  0.33385  0.66927  Biso   1.000  C
  C357     1.0000 0.13200  0.30381  0.67542  Biso   1.000  C
  C358     1.0000 0.19590  0.35936  0.67665  Biso   1.000  C
  C359     1.0000 0.26200  0.38280  0.68102  Biso   1.000  C
  H244     1.0000 0.25170  0.40980  0.67740  Biso   1.000  H
  H245     1.0000 0.28020  0.37920  0.70410  Biso   1.000  H
  H246     1.0000 0.29640  0.37450  0.66430  Biso   1.000  H
  C360     1.0000 0.12140  0.26080  0.67660  Biso   1.000  C
  H247     1.0000 0.16520  0.24830  0.68200  Biso   1.000  H
  H248     1.0000 0.08720  0.25450  0.69410  Biso   1.000  H
  H249     1.0000 0.10490  0.25190  0.65430  Biso   1.000  H
  C361     1.0000 0.25850  0.29821  0.69312  Biso   1.000  C
  C362     1.0000 0.26020  0.28591  0.72721  Biso   1.000  C
  H250     1.0000 0.22090  0.28920  0.74130  Biso   1.000  H
  C363     1.0000 0.32040  0.26870  0.74055  Biso   1.000  C
  C364     1.0000 0.38070  0.26429  0.71997  Biso   1.000  C
  H251     1.0000 0.42190  0.25420  0.72940  Biso   1.000  H
  C365     1.0000 0.37780  0.27540  0.68484  Biso   1.000  C
  C366     1.0000 0.31750  0.29269  0.67156  Biso   1.000  C
  H252     1.0000 0.31610  0.30060  0.64840  Biso   1.000  H
  C367     1.0000 0.44160  0.26925  0.66182  Biso   1.000  C
  C368     1.0000 0.32370  0.25681  0.77834  Biso   1.000  C
  Cu45     1.0000 0.15952  0.49751  0.65933  Biso   1.000  Cu
  Cu46     1.0000 0.98940  0.47641  0.66183  Biso   1.000  Cu
  N23      1.0000 0.19800  0.31920  0.68048  Biso   1.000  N
  O199     1.0000 0.06390  0.50644  0.63992  Biso   1.000  O
  O200     1.0000 0.15100  0.43622  0.66500  Biso   1.000  O
  O201     1.0000 0.03820  0.41779  0.66338  Biso   1.000  O
  O202     1.0000 0.96910  0.35771  0.65868  Biso   1.000  O
  O203     1.0000 0.98360  0.29533  0.66275  Biso   1.000  O
  O204     1.0000 0.43510  0.28046  0.63116  Biso   1.000  O
  O205     1.0000 0.49380  0.25299  0.67566  Biso   1.000  O
  O206     1.0000 0.38220  0.25924  0.79267  Biso   1.000  O
  O207     1.0000 0.26610  0.24563  0.79154  Biso   1.000  O
  H253     1.0000 0.99700  0.37720  0.65420  Biso   1.000  H
  H254     1.0000 0.04500  0.02720  0.12870  Biso   1.000  H
  C369     1.0000 0.10450  0.91071  0.16527  Biso   1.000  C
  C370     1.0000 0.00940  0.82820  0.16339  Biso   1.000  C
  C371     1.0000 0.12770  0.86908  0.16994  Biso   1.000  C
  C372     1.0000 0.08590  0.83385  0.16927  Biso   1.000  C
  C373     1.0000 0.13200  0.80381  0.17542  Biso   1.000  C
  C374     1.0000 0.19590  0.85936  0.17665  Biso   1.000  C
  C375     1.0000 0.26200  0.88280  0.18102  Biso   1.000  C
  H255     1.0000 0.25170  0.90980  0.17740  Biso   1.000  H
  H256     1.0000 0.28020  0.87920  0.20410  Biso   1.000  H
  H257     1.0000 0.29640  0.87450  0.16430  Biso   1.000  H
  C376     1.0000 0.12140  0.76080  0.17660  Biso   1.000  C
  H258     1.0000 0.16520  0.74830  0.18200  Biso   1.000  H
  H259     1.0000 0.08720  0.75450  0.19410  Biso   1.000  H
  H260     1.0000 0.10490  0.75190  0.15430  Biso   1.000  H
  C377     1.0000 0.25850  0.79821  0.19312  Biso   1.000  C
  C378     1.0000 0.26020  0.78591  0.22721  Biso   1.000  C
  H261     1.0000 0.22090  0.78920  0.24130  Biso   1.000  H
  C379     1.0000 0.32040  0.76870  0.24055  Biso   1.000  C
  C380     1.0000 0.38070  0.76429  0.21997  Biso   1.000  C
  H262     1.0000 0.42190  0.75420  0.22940  Biso   1.000  H
  C381     1.0000 0.37780  0.77540  0.18484  Biso   1.000  C
  C382     1.0000 0.31750  0.79269  0.17156  Biso   1.000  C
  H263     1.0000 0.31610  0.80060  0.14840  Biso   1.000  H
  C383     1.0000 0.44160  0.76925  0.16182  Biso   1.000  C
  C384     1.0000 0.32370  0.75681  0.27834  Biso   1.000  C
  Cu47     1.0000 0.15952  0.99751  0.15933  Biso   1.000  Cu
  Cu48     1.0000 0.98940  0.97641  0.16183  Biso   1.000  Cu
  N24      1.0000 0.19800  0.81920  0.18048  Biso   1.000  N
  O208     1.0000 0.06390  0.00644  0.13992  Biso   1.000  O
  O209     1.0000 0.15100  0.93622  0.16500  Biso   1.000  O
  O210     1.0000 0.03820  0.91779  0.16338  Biso   1.000  O
  O211     1.0000 0.96910  0.85771  0.15868  Biso   1.000  O
  O212     1.0000 0.98360  0.79533  0.16275  Biso   1.000  O
  O213     1.0000 0.43510  0.78046  0.13116  Biso   1.000  O
  O214     1.0000 0.49380  0.75299  0.17566  Biso   1.000  O
  O215     1.0000 0.38220  0.75924  0.29267  Biso   1.000  O
  O216     1.0000 0.26610  0.74563  0.29154  Biso   1.000  O
  H264     1.0000 0.99700  0.87720  0.15420  Biso   1.000  H
  H265     1.0000 0.54500  0.72280  0.12130  Biso   1.000  H
  C385     1.0000 0.60450  0.83929  0.08473  Biso   1.000  C
  C386     1.0000 0.50940  0.92180  0.08661  Biso   1.000  C
  C387     1.0000 0.62770  0.88092  0.08006  Biso   1.000  C
  C388     1.0000 0.58590  0.91615  0.08073  Biso   1.000  C
  C389     1.0000 0.63200  0.94619  0.07458  Biso   1.000  C
  C390     1.0000 0.69590  0.89064  0.07335  Biso   1.000  C
  C391     1.0000 0.76200  0.86720  0.06898  Biso   1.000  C
  H266     1.0000 0.75170  0.84020  0.07260  Biso   1.000  H
  H267     1.0000 0.78020  0.87080  0.04590  Biso   1.000  H
  H268     1.0000 0.79640  0.87550  0.08570  Biso   1.000  H
  C392     1.0000 0.62140  0.98920  0.07340  Biso   1.000  C
  H269     1.0000 0.66520  0.00170  0.06800  Biso   1.000  H
  H270     1.0000 0.58720  0.99550  0.05590  Biso   1.000  H
  H271     1.0000 0.60490  0.99810  0.09570  Biso   1.000  H
  C393     1.0000 0.75850  0.95179  0.05688  Biso   1.000  C
  C394     1.0000 0.76020  0.96409  0.02279  Biso   1.000  C
  H272     1.0000 0.72090  0.96080  0.00870  Biso   1.000  H
  C395     1.0000 0.82040  0.98130  0.00945  Biso   1.000  C
  C396     1.0000 0.88070  0.98571  0.03003  Biso   1.000  C
  H273     1.0000 0.92190  0.99580  0.02060  Biso   1.000  H
  C397     1.0000 0.87780  0.97460  0.06516  Biso   1.000  C
  C398     1.0000 0.81750  0.95731  0.07844  Biso   1.000  C
  H274     1.0000 0.81610  0.94940  0.10160  Biso   1.000  H
  C399     1.0000 0.94160  0.98075  0.08818  Biso   1.000  C
  C400     1.0000 0.82370  0.99319  0.97166  Biso   1.000  C
  Cu49     1.0000 0.65952  0.75249  0.09067  Biso   1.000  Cu
  Cu50     1.0000 0.48940  0.77359  0.08817  Biso   1.000  Cu
  N25      1.0000 0.69800  0.93080  0.06952  Biso   1.000  N
  O217     1.0000 0.56390  0.74356  0.11008  Biso   1.000  O
  O218     1.0000 0.65100  0.81378  0.08500  Biso   1.000  O
  O219     1.0000 0.53820  0.83221  0.08662  Biso   1.000  O
  O220     1.0000 0.46910  0.89229  0.09132  Biso   1.000  O
  O221     1.0000 0.48360  0.95467  0.08725  Biso   1.000  O
  O222     1.0000 0.93510  0.96954  0.11884  Biso   1.000  O
  O223     1.0000 0.99380  0.99701  0.07434  Biso   1.000  O
  O224     1.0000 0.88220  0.99076  0.95733  Biso   1.000  O
  O225     1.0000 0.76610  0.00437  0.95846  Biso   1.000  O
  H275     1.0000 0.49700  0.87280  0.09580  Biso   1.000  H
  H276     1.0000 0.54500  0.22280  0.62130  Biso   1.000  H
  C401     1.0000 0.60450  0.33929  0.58473  Biso   1.000  C
  C402     1.0000 0.50940  0.42180  0.58661  Biso   1.000  C
  C403     1.0000 0.62770  0.38092  0.58006  Biso   1.000  C
  C404     1.0000 0.58590  0.41615  0.58073  Biso   1.000  C
  C405     1.0000 0.63200  0.44619  0.57458  Biso   1.000  C
  C406     1.0000 0.69590  0.39064  0.57335  Biso   1.000  C
  C407     1.0000 0.76200  0.36720  0.56898  Biso   1.000  C
  H277     1.0000 0.75170  0.34020  0.57260  Biso   1.000  H
  H278     1.0000 0.78020  0.37080  0.54590  Biso   1.000  H
  H279     1.0000 0.79640  0.37550  0.58570  Biso   1.000  H
  C408     1.0000 0.62140  0.48920  0.57340  Biso   1.000  C
  H280     1.0000 0.66520  0.50170  0.56800  Biso   1.000  H
  H281     1.0000 0.58720  0.49550  0.55590  Biso   1.000  H
  H282     1.0000 0.60490  0.49810  0.59570  Biso   1.000  H
  C409     1.0000 0.75850  0.45179  0.55688  Biso   1.000  C
  C410     1.0000 0.76020  0.46409  0.52279  Biso   1.000  C
  H283     1.0000 0.72090  0.46080  0.50870  Biso   1.000  H
  C411     1.0000 0.82040  0.48130  0.50945  Biso   1.000  C
  C412     1.0000 0.88070  0.48571  0.53003  Biso   1.000  C
  H284     1.0000 0.92190  0.49580  0.52060  Biso   1.000  H
  C413     1.0000 0.87780  0.47460  0.56516  Biso   1.000  C
  C414     1.0000 0.81750  0.45731  0.57844  Biso   1.000  C
  H285     1.0000 0.81610  0.44940  0.60160  Biso   1.000  H
  C415     1.0000 0.94160  0.48075  0.58818  Biso   1.000  C
  C416     1.0000 0.82370  0.49319  0.47166  Biso   1.000  C
  Cu51     1.0000 0.65952  0.25249  0.59067  Biso   1.000  Cu
  Cu52     1.0000 0.48940  0.27359  0.58817  Biso   1.000  Cu
  N26      1.0000 0.69800  0.43080  0.56952  Biso   1.000  N
  O226     1.0000 0.56390  0.24356  0.61008  Biso   1.000  O
  O227     1.0000 0.65100  0.31378  0.58500  Biso   1.000  O
  O228     1.0000 0.53820  0.33221  0.58662  Biso   1.000  O
  O229     1.0000 0.46910  0.39229  0.59132  Biso   1.000  O
  O230     1.0000 0.48360  0.45467  0.58725  Biso   1.000  O
  O231     1.0000 0.93510  0.46954  0.61884  Biso   1.000  O
  O232     1.0000 0.99380  0.49701  0.57434  Biso   1.000  O
  O233     1.0000 0.88220  0.49076  0.45733  Biso   1.000  O
  O234     1.0000 0.76610  0.50437  0.45846  Biso   1.000  O
  H286     1.0000 0.49700  0.37280  0.59580  Biso   1.000  H
  H287     1.0000 0.04500  0.72280  0.62130  Biso   1.000  H
  C417     1.0000 0.10450  0.83929  0.58473  Biso   1.000  C
  C418     1.0000 0.00940  0.92180  0.58661  Biso   1.000  C
  C419     1.0000 0.12770  0.88092  0.58006  Biso   1.000  C
  C420     1.0000 0.08590  0.91615  0.58073  Biso   1.000  C
  C421     1.0000 0.13200  0.94619  0.57458  Biso   1.000  C
  C422     1.0000 0.19590  0.89064  0.57335  Biso   1.000  C
  C423     1.0000 0.26200  0.86720  0.56898  Biso   1.000  C
  H288     1.0000 0.25170  0.84020  0.57260  Biso   1.000  H
  H289     1.0000 0.28020  0.87080  0.54590  Biso   1.000  H
  H290     1.0000 0.29640  0.87550  0.58570  Biso   1.000  H
  C424     1.0000 0.12140  0.98920  0.57340  Biso   1.000  C
  H291     1.0000 0.16520  0.00170  0.56800  Biso   1.000  H
  H292     1.0000 0.08720  0.99550  0.55590  Biso   1.000  H
  H293     1.0000 0.10490  0.99810  0.59570  Biso   1.000  H
  C425     1.0000 0.25850  0.95179  0.55688  Biso   1.000  C
  C426     1.0000 0.26020  0.96409  0.52279  Biso   1.000  C
  H294     1.0000 0.22090  0.96080  0.50870  Biso   1.000  H
  C427     1.0000 0.32040  0.98130  0.50945  Biso   1.000  C
  C428     1.0000 0.38070  0.98571  0.53003  Biso   1.000  C
  H295     1.0000 0.42190  0.99580  0.52060  Biso   1.000  H
  C429     1.0000 0.37780  0.97460  0.56516  Biso   1.000  C
  C430     1.0000 0.31750  0.95731  0.57844  Biso   1.000  C
  H296     1.0000 0.31610  0.94940  0.60160  Biso   1.000  H
  C431     1.0000 0.44160  0.98075  0.58818  Biso   1.000  C
  C432     1.0000 0.32370  0.99319  0.47166  Biso   1.000  C
  Cu53     1.0000 0.15952  0.75249  0.59067  Biso   1.000  Cu
  Cu54     1.0000 0.98940  0.77359  0.58817  Biso   1.000  Cu
  N27      1.0000 0.19800  0.93080  0.56952  Biso   1.000  N
  O235     1.0000 0.06390  0.74356  0.61008  Biso   1.000  O
  O236     1.0000 0.15100  0.81378  0.58500  Biso   1.000  O
  O237     1.0000 0.03820  0.83221  0.58662  Biso   1.000  O
  O238     1.0000 0.96910  0.89229  0.59132  Biso   1.000  O
  O239     1.0000 0.98360  0.95467  0.58725  Biso   1.000  O
  O240     1.0000 0.43510  0.96954  0.61884  Biso   1.000  O
  O241     1.0000 0.49380  0.99701  0.57434  Biso   1.000  O
  O242     1.0000 0.38220  0.99076  0.45733  Biso   1.000  O
  O243     1.0000 0.26610  0.00437  0.45846  Biso   1.000  O
  H297     1.0000 0.99700  0.87280  0.59580  Biso   1.000  H
  H298     1.0000 0.04500  0.22280  0.12130  Biso   1.000  H
  C433     1.0000 0.10450  0.33929  0.08473  Biso   1.000  C
  C434     1.0000 0.00940  0.42180  0.08661  Biso   1.000  C
  C435     1.0000 0.12770  0.38092  0.08006  Biso   1.000  C
  C436     1.0000 0.08590  0.41615  0.08073  Biso   1.000  C
  C437     1.0000 0.13200  0.44619  0.07458  Biso   1.000  C
  C438     1.0000 0.19590  0.39064  0.07335  Biso   1.000  C
  C439     1.0000 0.26200  0.36720  0.06898  Biso   1.000  C
  H299     1.0000 0.25170  0.34020  0.07260  Biso   1.000  H
  H300     1.0000 0.28020  0.37080  0.04590  Biso   1.000  H
  H301     1.0000 0.29640  0.37550  0.08570  Biso   1.000  H
  C440     1.0000 0.12140  0.48920  0.07340  Biso   1.000  C
  H302     1.0000 0.16520  0.50170  0.06800  Biso   1.000  H
  H303     1.0000 0.08720  0.49550  0.05590  Biso   1.000  H
  H304     1.0000 0.10490  0.49810  0.09570  Biso   1.000  H
  C441     1.0000 0.25850  0.45179  0.05688  Biso   1.000  C
  C442     1.0000 0.26020  0.46409  0.02279  Biso   1.000  C
  H305     1.0000 0.22090  0.46080  0.00870  Biso   1.000  H
  C443     1.0000 0.32040  0.48130  0.00945  Biso   1.000  C
  C444     1.0000 0.38070  0.48571  0.03003  Biso   1.000  C
  H306     1.0000 0.42190  0.49580  0.02060  Biso   1.000  H
  C445     1.0000 0.37780  0.47460  0.06516  Biso   1.000  C
  C446     1.0000 0.31750  0.45731  0.07844  Biso   1.000  C
  H307     1.0000 0.31610  0.44940  0.10160  Biso   1.000  H
  C447     1.0000 0.44160  0.48075  0.08818  Biso   1.000  C
  C448     1.0000 0.32370  0.49319  0.97166  Biso   1.000  C
  Cu55     1.0000 0.15952  0.25249  0.09067  Biso   1.000  Cu
  Cu56     1.0000 0.98940  0.27359  0.08817  Biso   1.000  Cu
  N28      1.0000 0.19800  0.43080  0.06952  Biso   1.000  N
  O244     1.0000 0.06390  0.24356  0.11008  Biso   1.000  O
  O245     1.0000 0.15100  0.31378  0.08500  Biso   1.000  O
  O246     1.0000 0.03820  0.33221  0.08662  Biso   1.000  O
  O247     1.0000 0.96910  0.39229  0.09132  Biso   1.000  O
  O248     1.0000 0.98360  0.45467  0.08725  Biso   1.000  O
  O249     1.0000 0.43510  0.46954  0.11884  Biso   1.000  O
  O250     1.0000 0.49380  0.49701  0.07434  Biso   1.000  O
  O251     1.0000 0.38220  0.49076  0.95733  Biso   1.000  O
  O252     1.0000 0.26610  0.50437  0.95846  Biso   1.000  O
  H308     1.0000 0.99700  0.37280  0.09580  Biso   1.000  H
  H309     1.0000 0.70500  0.52720  0.12130  Biso   1.000  H
  C449     1.0000 0.64550  0.41071  0.08473  Biso   1.000  C
  C450     1.0000 0.74060  0.32820  0.08661  Biso   1.000  C
  C451     1.0000 0.62230  0.36908  0.08006  Biso   1.000  C
  C452     1.0000 0.66410  0.33385  0.08073  Biso   1.000  C
  C453     1.0000 0.61800  0.30381  0.07458  Biso   1.000  C
  C454     1.0000 0.55410  0.35936  0.07335  Biso   1.000  C
  C455     1.0000 0.48800  0.38280  0.06898  Biso   1.000  C
  H310     1.0000 0.49830  0.40980  0.07260  Biso   1.000  H
  H311     1.0000 0.46980  0.37920  0.04590  Biso   1.000  H
  H312     1.0000 0.45360  0.37450  0.08570  Biso   1.000  H
  C456     1.0000 0.62860  0.26080  0.07340  Biso   1.000  C
  H313     1.0000 0.58480  0.24830  0.06800  Biso   1.000  H
  H314     1.0000 0.66280  0.25450  0.05590  Biso   1.000  H
  H315     1.0000 0.64510  0.25190  0.09570  Biso   1.000  H
  C457     1.0000 0.49150  0.29821  0.05688  Biso   1.000  C
  C458     1.0000 0.48980  0.28591  0.02279  Biso   1.000  C
  H316     1.0000 0.52910  0.28920  0.00870  Biso   1.000  H
  C459     1.0000 0.42960  0.26870  0.00945  Biso   1.000  C
  C460     1.0000 0.36930  0.26429  0.03003  Biso   1.000  C
  H317     1.0000 0.32810  0.25420  0.02060  Biso   1.000  H
  C461     1.0000 0.37220  0.27540  0.06516  Biso   1.000  C
  C462     1.0000 0.43250  0.29269  0.07844  Biso   1.000  C
  H318     1.0000 0.43390  0.30060  0.10160  Biso   1.000  H
  C463     1.0000 0.30840  0.26925  0.08818  Biso   1.000  C
  C464     1.0000 0.42630  0.25681  0.97166  Biso   1.000  C
  Cu57     1.0000 0.59048  0.49751  0.09067  Biso   1.000  Cu
  Cu58     1.0000 0.76060  0.47641  0.08817  Biso   1.000  Cu
  N29      1.0000 0.55200  0.31920  0.06952  Biso   1.000  N
  O253     1.0000 0.68610  0.50644  0.11008  Biso   1.000  O
  O254     1.0000 0.59900  0.43622  0.08500  Biso   1.000  O
  O255     1.0000 0.71180  0.41779  0.08662  Biso   1.000  O
  O256     1.0000 0.78090  0.35771  0.09132  Biso   1.000  O
  O257     1.0000 0.76640  0.29533  0.08725  Biso   1.000  O
  O258     1.0000 0.31490  0.28046  0.11884  Biso   1.000  O
  O259     1.0000 0.25620  0.25299  0.07434  Biso   1.000  O
  O260     1.0000 0.36780  0.25924  0.95733  Biso   1.000  O
  O261     1.0000 0.48390  0.24563  0.95846  Biso   1.000  O
  H319     1.0000 0.75300  0.37720  0.09580  Biso   1.000  H
  H320     1.0000 0.70500  0.02720  0.62130  Biso   1.000  H
  C465     1.0000 0.64550  0.91071  0.58473  Biso   1.000  C
  C466     1.0000 0.74060  0.82820  0.58661  Biso   1.000  C
  C467     1.0000 0.62230  0.86908  0.58006  Biso   1.000  C
  C468     1.0000 0.66410  0.83385  0.58073  Biso   1.000  C
  C469     1.0000 0.61800  0.80381  0.57458  Biso   1.000  C
  C470     1.0000 0.55410  0.85936  0.57335  Biso   1.000  C
  C471     1.0000 0.48800  0.88280  0.56898  Biso   1.000  C
  H321     1.0000 0.49830  0.90980  0.57260  Biso   1.000  H
  H322     1.0000 0.46980  0.87920  0.54590  Biso   1.000  H
  H323     1.0000 0.45360  0.87450  0.58570  Biso   1.000  H
  C472     1.0000 0.62860  0.76080  0.57340  Biso   1.000  C
  H324     1.0000 0.58480  0.74830  0.56800  Biso   1.000  H
  H325     1.0000 0.66280  0.75450  0.55590  Biso   1.000  H
  H326     1.0000 0.64510  0.75190  0.59570  Biso   1.000  H
  C473     1.0000 0.49150  0.79821  0.55688  Biso   1.000  C
  C474     1.0000 0.48980  0.78591  0.52279  Biso   1.000  C
  H327     1.0000 0.52910  0.78920  0.50870  Biso   1.000  H
  C475     1.0000 0.42960  0.76870  0.50945  Biso   1.000  C
  C476     1.0000 0.36930  0.76429  0.53003  Biso   1.000  C
  H328     1.0000 0.32810  0.75420  0.52060  Biso   1.000  H
  C477     1.0000 0.37220  0.77540  0.56516  Biso   1.000  C
  C478     1.0000 0.43250  0.79269  0.57844  Biso   1.000  C
  H329     1.0000 0.43390  0.80060  0.60160  Biso   1.000  H
  C479     1.0000 0.30840  0.76925  0.58818  Biso   1.000  C
  C480     1.0000 0.42630  0.75681  0.47166  Biso   1.000  C
  Cu59     1.0000 0.59048  0.99751  0.59067  Biso   1.000  Cu
  Cu60     1.0000 0.76060  0.97641  0.58817  Biso   1.000  Cu
  N30      1.0000 0.55200  0.81920  0.56952  Biso   1.000  N
  O262     1.0000 0.68610  0.00644  0.61008  Biso   1.000  O
  O263     1.0000 0.59900  0.93622  0.58500  Biso   1.000  O
  O264     1.0000 0.71180  0.91779  0.58662  Biso   1.000  O
  O265     1.0000 0.78090  0.85771  0.59132  Biso   1.000  O
  O266     1.0000 0.76640  0.79533  0.58725  Biso   1.000  O
  O267     1.0000 0.31490  0.78046  0.61884  Biso   1.000  O
  O268     1.0000 0.25620  0.75299  0.57434  Biso   1.000  O
  O269     1.0000 0.36780  0.75924  0.45733  Biso   1.000  O
  O270     1.0000 0.48390  0.74563  0.45846  Biso   1.000  O
  H330     1.0000 0.75300  0.87720  0.59580  Biso   1.000  H
  H331     1.0000 0.20500  0.52720  0.62130  Biso   1.000  H
  C481     1.0000 0.14550  0.41071  0.58473  Biso   1.000  C
  C482     1.0000 0.24060  0.32820  0.58661  Biso   1.000  C
  C483     1.0000 0.12230  0.36908  0.58006  Biso   1.000  C
  C484     1.0000 0.16410  0.33385  0.58073  Biso   1.000  C
  C485     1.0000 0.11800  0.30381  0.57458  Biso   1.000  C
  C486     1.0000 0.05410  0.35936  0.57335  Biso   1.000  C
  C487     1.0000 0.98800  0.38280  0.56898  Biso   1.000  C
  H332     1.0000 0.99830  0.40980  0.57260  Biso   1.000  H
  H333     1.0000 0.96980  0.37920  0.54590  Biso   1.000  H
  H334     1.0000 0.95360  0.37450  0.58570  Biso   1.000  H
  C488     1.0000 0.12860  0.26080  0.57340  Biso   1.000  C
  H335     1.0000 0.08480  0.24830  0.56800  Biso   1.000  H
  H336     1.0000 0.16280  0.25450  0.55590  Biso   1.000  H
  H337     1.0000 0.14510  0.25190  0.59570  Biso   1.000  H
  C489     1.0000 0.99150  0.29821  0.55688  Biso   1.000  C
  C490     1.0000 0.98980  0.28591  0.52279  Biso   1.000  C
  H338     1.0000 0.02910  0.28920  0.50870  Biso   1.000  H
  C491     1.0000 0.92960  0.26870  0.50945  Biso   1.000  C
  C492     1.0000 0.86930  0.26429  0.53003  Biso   1.000  C
  H339     1.0000 0.82810  0.25420  0.52060  Biso   1.000  H
  C493     1.0000 0.87220  0.27540  0.56516  Biso   1.000  C
  C494     1.0000 0.93250  0.29269  0.57844  Biso   1.000  C
  H340     1.0000 0.93390  0.30060  0.60160  Biso   1.000  H
  C495     1.0000 0.80840  0.26925  0.58818  Biso   1.000  C
  C496     1.0000 0.92630  0.25681  0.47166  Biso   1.000  C
  Cu61     1.0000 0.09048  0.49751  0.59067  Biso   1.000  Cu
  Cu62     1.0000 0.26060  0.47641  0.58817  Biso   1.000  Cu
  N31      1.0000 0.05200  0.31920  0.56952  Biso   1.000  N
  O271     1.0000 0.18610  0.50644  0.61008  Biso   1.000  O
  O272     1.0000 0.09900  0.43622  0.58500  Biso   1.000  O
  O273     1.0000 0.21180  0.41779  0.58662  Biso   1.000  O
  O274     1.0000 0.28090  0.35771  0.59132  Biso   1.000  O
  O275     1.0000 0.26640  0.29533  0.58725  Biso   1.000  O
  O276     1.0000 0.81490  0.28046  0.61884  Biso   1.000  O
  O277     1.0000 0.75620  0.25299  0.57434  Biso   1.000  O
  O278     1.0000 0.86780  0.25924  0.45733  Biso   1.000  O
  O279     1.0000 0.98390  0.24563  0.45846  Biso   1.000  O
  H341     1.0000 0.25300  0.37720  0.59580  Biso   1.000  H
  H342     1.0000 0.20500  0.02720  0.12130  Biso   1.000  H
  C497     1.0000 0.14550  0.91071  0.08473  Biso   1.000  C
  C498     1.0000 0.24060  0.82820  0.08661  Biso   1.000  C
  C499     1.0000 0.12230  0.86908  0.08006  Biso   1.000  C
  C500     1.0000 0.16410  0.83385  0.08073  Biso   1.000  C
  C501     1.0000 0.11800  0.80381  0.07458  Biso   1.000  C
  C502     1.0000 0.05410  0.85936  0.07335  Biso   1.000  C
  C503     1.0000 0.98800  0.88280  0.06898  Biso   1.000  C
  H343     1.0000 0.99830  0.90980  0.07260  Biso   1.000  H
  H344     1.0000 0.96980  0.87920  0.04590  Biso   1.000  H
  H345     1.0000 0.95360  0.87450  0.08570  Biso   1.000  H
  C504     1.0000 0.12860  0.76080  0.07340  Biso   1.000  C
  H346     1.0000 0.08480  0.74830  0.06800  Biso   1.000  H
  H347     1.0000 0.16280  0.75450  0.05590  Biso   1.000  H
  H348     1.0000 0.14510  0.75190  0.09570  Biso   1.000  H
  C505     1.0000 0.99150  0.79821  0.05688  Biso   1.000  C
  C506     1.0000 0.98980  0.78591  0.02279  Biso   1.000  C
  H349     1.0000 0.02910  0.78920  0.00870  Biso   1.000  H
  C507     1.0000 0.92960  0.76870  0.00945  Biso   1.000  C
  C508     1.0000 0.86930  0.76429  0.03003  Biso   1.000  C
  H350     1.0000 0.82810  0.75420  0.02060  Biso   1.000  H
  C509     1.0000 0.87220  0.77540  0.06516  Biso   1.000  C
  C510     1.0000 0.93250  0.79269  0.07844  Biso   1.000  C
  H351     1.0000 0.93390  0.80060  0.10160  Biso   1.000  H
  C511     1.0000 0.80840  0.76925  0.08818  Biso   1.000  C
  C512     1.0000 0.92630  0.75681  0.97166  Biso   1.000  C
  Cu63     1.0000 0.09048  0.99751  0.09067  Biso   1.000  Cu
  Cu64     1.0000 0.26060  0.97641  0.08817  Biso   1.000  Cu
  N32      1.0000 0.05200  0.81920  0.06952  Biso   1.000  N
  O280     1.0000 0.18610  0.00644  0.11008  Biso   1.000  O
  O281     1.0000 0.09900  0.93622  0.08500  Biso   1.000  O
  O282     1.0000 0.21180  0.91779  0.08662  Biso   1.000  O
  O283     1.0000 0.28090  0.85771  0.09132  Biso   1.000  O
  O284     1.0000 0.26640  0.79533  0.08725  Biso   1.000  O
  O285     1.0000 0.81490  0.78046  0.11884  Biso   1.000  O
  O286     1.0000 0.75620  0.75299  0.07434  Biso   1.000  O
  O287     1.0000 0.86780  0.75924  0.95733  Biso   1.000  O
  O288     1.0000 0.98390  0.74563  0.95846  Biso   1.000  O
  H352     1.0000 0.25300  0.87720  0.09580  Biso   1.000  H
