data_image0
_cell_length_a       34.3562
_cell_length_b       34.3562
_cell_length_c       15.0094
_cell_angle_alpha    90
_cell_angle_beta     90
_cell_angle_gamma    90

_symmetry_space_group_name_H-M    "P 1"
_symmetry_int_tables_number       1

loop_
  _symmetry_equiv_pos_as_xyz
  'x, y, z'

loop_
  _atom_site_label
  _atom_site_occupancy
  _atom_site_fract_x
  _atom_site_fract_y
  _atom_site_fract_z
  _atom_site_thermal_displace_type
  _atom_site_B_iso_or_equiv
  _atom_site_type_symbol
  F1       1.0000 0.60380  0.22480  0.09200  Biso   1.000  F
  F2       1.0000 0.59770  0.26480  0.20200  Biso   1.000  F
  F3       1.0000 0.55670  0.26610  0.09200  Biso   1.000  F
  F4       1.0000 0.60480  0.27360  0.45940  Biso   1.000  F
  F5       1.0000 0.57740  0.22220  0.42930  Biso   1.000  F
  F6       1.0000 0.61200  0.24800  0.33530  Biso   1.000  F
  F7       1.0000 0.43410  0.96990  0.43080  Biso   1.000  F
  O1       1.0000 0.49770  0.08530  0.18550  Biso   1.000  O
  O2       1.0000 0.55030  0.09790  0.10270  Biso   1.000  O
  O3       1.0000 0.48420  0.40020  0.36040  Biso   1.000  O
  O4       1.0000 0.54260  0.39510  0.41940  Biso   1.000  O
  O5       1.0000 0.53020  0.02010  0.11750  Biso   1.000  O
  O6       1.0000 0.43930  0.01150  0.01680  Biso   1.000  O
  C1       1.0000 0.52630  0.10660  0.15630  Biso   1.000  C
  C2       1.0000 0.52830  0.14600  0.19890  Biso   1.000  C
  C3       1.0000 0.55090  0.17470  0.15870  Biso   1.000  C
  H1       1.0000 0.56590  0.16860  0.10750  Biso   1.000  H
  C4       1.0000 0.55130  0.21220  0.19350  Biso   1.000  C
  C5       1.0000 0.52930  0.22100  0.26840  Biso   1.000  C
  C6       1.0000 0.50670  0.19240  0.30860  Biso   1.000  C
  H2       1.0000 0.49160  0.19840  0.35980  Biso   1.000  H
  C7       1.0000 0.50620  0.15490  0.27380  Biso   1.000  C
  H3       1.0000 0.49080  0.13530  0.30120  Biso   1.000  H
  C8       1.0000 0.57690  0.24230  0.14600  Biso   1.000  C
  C9       1.0000 0.52520  0.26260  0.30100  Biso   1.000  C
  C10      1.0000 0.55150  0.27900  0.36050  Biso   1.000  C
  C11      1.0000 0.54780  0.31780  0.38510  Biso   1.000  C
  H4       1.0000 0.56580  0.32900  0.42570  Biso   1.000  H
  C12      1.0000 0.51780  0.34020  0.35010  Biso   1.000  C
  C13      1.0000 0.49150  0.32380  0.29060  Biso   1.000  C
  H5       1.0000 0.47100  0.33920  0.26670  Biso   1.000  H
  C14      1.0000 0.49520  0.28500  0.26600  Biso   1.000  C
  H6       1.0000 0.47720  0.27380  0.22530  Biso   1.000  H
  C15      1.0000 0.58330  0.25770  0.39350  Biso   1.000  C
  C16      1.0000 0.51540  0.38150  0.38260  Biso   1.000  C
  C17      1.0000 0.46730  0.98600  0.46490  Biso   1.000  C
  F8       1.0000 0.50050  0.21890  0.45680  Biso   1.000  F
  F9       1.0000 0.46770  0.16750  0.42910  Biso   1.000  F
  F10      1.0000 0.44980  0.22180  0.37240  Biso   1.000  F
  F11      1.0000 0.44530  0.29460  0.15800  Biso   1.000  F
  F12      1.0000 0.45190  0.23890  0.20100  Biso   1.000  F
  F13      1.0000 0.49100  0.26300  0.11600  Biso   1.000  F
  H7       1.0000 0.56680  0.23170  0.16610  Biso   1.000  H
  C18      1.0000 0.48170  0.20060  0.39100  Biso   1.000  C
  H8       1.0000 0.57200  0.26360  0.38440  Biso   1.000  H
  C19      1.0000 0.47340  0.27140  0.19300  Biso   1.000  C
  F14      1.0000 0.89620  0.27520  0.09200  Biso   1.000  F
  F15      1.0000 0.90230  0.23520  0.20200  Biso   1.000  F
  F16      1.0000 0.94330  0.23390  0.09200  Biso   1.000  F
  F17      1.0000 0.89520  0.22640  0.45940  Biso   1.000  F
  F18      1.0000 0.92260  0.27780  0.42930  Biso   1.000  F
  F19      1.0000 0.88800  0.25200  0.33530  Biso   1.000  F
  F20      1.0000 0.06590  0.53010  0.43080  Biso   1.000  F
  O7       1.0000 0.00230  0.41470  0.18550  Biso   1.000  O
  O8       1.0000 0.94970  0.40210  0.10270  Biso   1.000  O
  O9       1.0000 0.01580  0.09980  0.36040  Biso   1.000  O
  O10      1.0000 0.95740  0.10490  0.41940  Biso   1.000  O
  O11      1.0000 0.96980  0.47990  0.11750  Biso   1.000  O
  O12      1.0000 0.06070  0.48850  0.01680  Biso   1.000  O
  C20      1.0000 0.97370  0.39340  0.15630  Biso   1.000  C
  C21      1.0000 0.97170  0.35400  0.19890  Biso   1.000  C
  C22      1.0000 0.94910  0.32530  0.15870  Biso   1.000  C
  H9       1.0000 0.93410  0.33140  0.10750  Biso   1.000  H
  C23      1.0000 0.94870  0.28780  0.19350  Biso   1.000  C
  C24      1.0000 0.97070  0.27900  0.26840  Biso   1.000  C
  C25      1.0000 0.99330  0.30760  0.30860  Biso   1.000  C
  H10      1.0000 0.00840  0.30160  0.35980  Biso   1.000  H
  C26      1.0000 0.99380  0.34510  0.27380  Biso   1.000  C
  H11      1.0000 0.00920  0.36470  0.30120  Biso   1.000  H
  C27      1.0000 0.92310  0.25770  0.14600  Biso   1.000  C
  C28      1.0000 0.97480  0.23740  0.30100  Biso   1.000  C
  C29      1.0000 0.94850  0.22100  0.36050  Biso   1.000  C
  C30      1.0000 0.95220  0.18220  0.38510  Biso   1.000  C
  H12      1.0000 0.93420  0.17100  0.42570  Biso   1.000  H
  C31      1.0000 0.98220  0.15980  0.35010  Biso   1.000  C
  C32      1.0000 0.00850  0.17620  0.29060  Biso   1.000  C
  H13      1.0000 0.02900  0.16080  0.26670  Biso   1.000  H
  C33      1.0000 0.00480  0.21500  0.26600  Biso   1.000  C
  H14      1.0000 0.02280  0.22620  0.22530  Biso   1.000  H
  C34      1.0000 0.91670  0.24230  0.39350  Biso   1.000  C
  C35      1.0000 0.98460  0.11850  0.38260  Biso   1.000  C
  C36      1.0000 0.03270  0.51400  0.46490  Biso   1.000  C
  F21      1.0000 0.99950  0.28110  0.45680  Biso   1.000  F
  F22      1.0000 0.03230  0.33250  0.42910  Biso   1.000  F
  F23      1.0000 0.05020  0.27820  0.37240  Biso   1.000  F
  F24      1.0000 0.05470  0.20540  0.15800  Biso   1.000  F
  F25      1.0000 0.04810  0.26110  0.20100  Biso   1.000  F
  F26      1.0000 0.00900  0.23700  0.11600  Biso   1.000  F
  H15      1.0000 0.93320  0.26830  0.16610  Biso   1.000  H
  C37      1.0000 0.01830  0.29940  0.39100  Biso   1.000  C
  H16      1.0000 0.92800  0.23640  0.38440  Biso   1.000  H
  C38      1.0000 0.02660  0.22860  0.19300  Biso   1.000  C
  F27      1.0000 0.27520  0.60380  0.59200  Biso   1.000  F
  F28      1.0000 0.23520  0.59770  0.70200  Biso   1.000  F
  F29      1.0000 0.23390  0.55670  0.59200  Biso   1.000  F
  F30      1.0000 0.22640  0.60480  0.95940  Biso   1.000  F
  F31      1.0000 0.27780  0.57740  0.92930  Biso   1.000  F
  F32      1.0000 0.25200  0.61200  0.83530  Biso   1.000  F
  F33      1.0000 0.53010  0.43410  0.93080  Biso   1.000  F
  O13      1.0000 0.41470  0.49770  0.68550  Biso   1.000  O
  O14      1.0000 0.40210  0.55030  0.60270  Biso   1.000  O
  O15      1.0000 0.09980  0.48420  0.86040  Biso   1.000  O
  O16      1.0000 0.10490  0.54260  0.91940  Biso   1.000  O
  O17      1.0000 0.47990  0.53020  0.61750  Biso   1.000  O
  O18      1.0000 0.48850  0.43930  0.51680  Biso   1.000  O
  C39      1.0000 0.39340  0.52630  0.65630  Biso   1.000  C
  C40      1.0000 0.35400  0.52830  0.69890  Biso   1.000  C
  C41      1.0000 0.32530  0.55090  0.65870  Biso   1.000  C
  H17      1.0000 0.33140  0.56590  0.60750  Biso   1.000  H
  C42      1.0000 0.28780  0.55130  0.69350  Biso   1.000  C
  C43      1.0000 0.27900  0.52930  0.76840  Biso   1.000  C
  C44      1.0000 0.30760  0.50670  0.80860  Biso   1.000  C
  H18      1.0000 0.30160  0.49160  0.85980  Biso   1.000  H
  C45      1.0000 0.34510  0.50620  0.77380  Biso   1.000  C
  H19      1.0000 0.36470  0.49080  0.80120  Biso   1.000  H
  C46      1.0000 0.25770  0.57690  0.64600  Biso   1.000  C
  C47      1.0000 0.23740  0.52520  0.80100  Biso   1.000  C
  C48      1.0000 0.22100  0.55150  0.86050  Biso   1.000  C
  C49      1.0000 0.18220  0.54780  0.88510  Biso   1.000  C
  H20      1.0000 0.17100  0.56580  0.92570  Biso   1.000  H
  C50      1.0000 0.15980  0.51780  0.85010  Biso   1.000  C
  C51      1.0000 0.17620  0.49150  0.79060  Biso   1.000  C
  H21      1.0000 0.16080  0.47100  0.76670  Biso   1.000  H
  C52      1.0000 0.21500  0.49520  0.76600  Biso   1.000  C
  H22      1.0000 0.22620  0.47720  0.72530  Biso   1.000  H
  C53      1.0000 0.24230  0.58330  0.89350  Biso   1.000  C
  C54      1.0000 0.11850  0.51540  0.88260  Biso   1.000  C
  C55      1.0000 0.51400  0.46730  0.96490  Biso   1.000  C
  F34      1.0000 0.28110  0.50050  0.95680  Biso   1.000  F
  F35      1.0000 0.33250  0.46770  0.92910  Biso   1.000  F
  F36      1.0000 0.27820  0.44980  0.87240  Biso   1.000  F
  F37      1.0000 0.20540  0.44530  0.65800  Biso   1.000  F
  F38      1.0000 0.26110  0.45190  0.70100  Biso   1.000  F
  F39      1.0000 0.23700  0.49100  0.61600  Biso   1.000  F
  H23      1.0000 0.26830  0.56680  0.66610  Biso   1.000  H
  C56      1.0000 0.29940  0.48170  0.89100  Biso   1.000  C
  H24      1.0000 0.23640  0.57200  0.88440  Biso   1.000  H
  C57      1.0000 0.22860  0.47340  0.69300  Biso   1.000  C
  F40      1.0000 0.22480  0.89620  0.59200  Biso   1.000  F
  F41      1.0000 0.26480  0.90230  0.70200  Biso   1.000  F
  F42      1.0000 0.26610  0.94330  0.59200  Biso   1.000  F
  F43      1.0000 0.27360  0.89520  0.95940  Biso   1.000  F
  F44      1.0000 0.22220  0.92260  0.92930  Biso   1.000  F
  F45      1.0000 0.24800  0.88800  0.83530  Biso   1.000  F
  F46      1.0000 0.96990  0.06590  0.93080  Biso   1.000  F
  O19      1.0000 0.08530  0.00230  0.68550  Biso   1.000  O
  O20      1.0000 0.09790  0.94970  0.60270  Biso   1.000  O
  O21      1.0000 0.40020  0.01580  0.86040  Biso   1.000  O
  O22      1.0000 0.39510  0.95740  0.91940  Biso   1.000  O
  O23      1.0000 0.02010  0.96980  0.61750  Biso   1.000  O
  O24      1.0000 0.01150  0.06070  0.51680  Biso   1.000  O
  C58      1.0000 0.10660  0.97370  0.65630  Biso   1.000  C
  C59      1.0000 0.14600  0.97170  0.69890  Biso   1.000  C
  C60      1.0000 0.17470  0.94910  0.65870  Biso   1.000  C
  H25      1.0000 0.16860  0.93410  0.60750  Biso   1.000  H
  C61      1.0000 0.21220  0.94870  0.69350  Biso   1.000  C
  C62      1.0000 0.22100  0.97070  0.76840  Biso   1.000  C
  C63      1.0000 0.19240  0.99330  0.80860  Biso   1.000  C
  H26      1.0000 0.19840  0.00840  0.85980  Biso   1.000  H
  C64      1.0000 0.15490  0.99380  0.77380  Biso   1.000  C
  H27      1.0000 0.13530  0.00920  0.80120  Biso   1.000  H
  C65      1.0000 0.24230  0.92310  0.64600  Biso   1.000  C
  C66      1.0000 0.26260  0.97480  0.80100  Biso   1.000  C
  C67      1.0000 0.27900  0.94850  0.86050  Biso   1.000  C
  C68      1.0000 0.31780  0.95220  0.88510  Biso   1.000  C
  H28      1.0000 0.32900  0.93420  0.92570  Biso   1.000  H
  C69      1.0000 0.34020  0.98220  0.85010  Biso   1.000  C
  C70      1.0000 0.32380  0.00850  0.79060  Biso   1.000  C
  H29      1.0000 0.33920  0.02900  0.76670  Biso   1.000  H
  C71      1.0000 0.28500  0.00480  0.76600  Biso   1.000  C
  H30      1.0000 0.27380  0.02280  0.72530  Biso   1.000  H
  C72      1.0000 0.25770  0.91670  0.89350  Biso   1.000  C
  C73      1.0000 0.38150  0.98460  0.88260  Biso   1.000  C
  C74      1.0000 0.98600  0.03270  0.96490  Biso   1.000  C
  F47      1.0000 0.21890  0.99950  0.95680  Biso   1.000  F
  F48      1.0000 0.16750  0.03230  0.92910  Biso   1.000  F
  F49      1.0000 0.22180  0.05020  0.87240  Biso   1.000  F
  F50      1.0000 0.29460  0.05470  0.65800  Biso   1.000  F
  F51      1.0000 0.23890  0.04810  0.70100  Biso   1.000  F
  F52      1.0000 0.26300  0.00900  0.61600  Biso   1.000  F
  H31      1.0000 0.23170  0.93320  0.66610  Biso   1.000  H
  C75      1.0000 0.20060  0.01830  0.89100  Biso   1.000  C
  H32      1.0000 0.26360  0.92800  0.88440  Biso   1.000  H
  C76      1.0000 0.27140  0.02660  0.69300  Biso   1.000  C
  F53      1.0000 0.39620  0.72480  0.40800  Biso   1.000  F
  F54      1.0000 0.40230  0.76480  0.29800  Biso   1.000  F
  F55      1.0000 0.44330  0.76610  0.40800  Biso   1.000  F
  F56      1.0000 0.39520  0.77360  0.04060  Biso   1.000  F
  F57      1.0000 0.42260  0.72220  0.07070  Biso   1.000  F
  F58      1.0000 0.38800  0.74800  0.16470  Biso   1.000  F
  F59      1.0000 0.56590  0.46990  0.06920  Biso   1.000  F
  O25      1.0000 0.50230  0.58530  0.31450  Biso   1.000  O
  O26      1.0000 0.44970  0.59790  0.39730  Biso   1.000  O
  O27      1.0000 0.51580  0.90020  0.13960  Biso   1.000  O
  O28      1.0000 0.45740  0.89510  0.08060  Biso   1.000  O
  O29      1.0000 0.46980  0.52010  0.38250  Biso   1.000  O
  O30      1.0000 0.56070  0.51150  0.48320  Biso   1.000  O
  C77      1.0000 0.47370  0.60660  0.34370  Biso   1.000  C
  C78      1.0000 0.47170  0.64600  0.30110  Biso   1.000  C
  C79      1.0000 0.44910  0.67470  0.34130  Biso   1.000  C
  H33      1.0000 0.43410  0.66860  0.39250  Biso   1.000  H
  C80      1.0000 0.44870  0.71220  0.30650  Biso   1.000  C
  C81      1.0000 0.47070  0.72100  0.23160  Biso   1.000  C
  C82      1.0000 0.49330  0.69240  0.19140  Biso   1.000  C
  H34      1.0000 0.50840  0.69840  0.14020  Biso   1.000  H
  C83      1.0000 0.49380  0.65490  0.22620  Biso   1.000  C
  H35      1.0000 0.50920  0.63530  0.19880  Biso   1.000  H
  C84      1.0000 0.42310  0.74230  0.35400  Biso   1.000  C
  C85      1.0000 0.47480  0.76260  0.19900  Biso   1.000  C
  C86      1.0000 0.44850  0.77900  0.13950  Biso   1.000  C
  C87      1.0000 0.45220  0.81780  0.11490  Biso   1.000  C
  H36      1.0000 0.43420  0.82900  0.07430  Biso   1.000  H
  C88      1.0000 0.48220  0.84020  0.14990  Biso   1.000  C
  C89      1.0000 0.50850  0.82380  0.20940  Biso   1.000  C
  H37      1.0000 0.52900  0.83920  0.23330  Biso   1.000  H
  C90      1.0000 0.50480  0.78500  0.23400  Biso   1.000  C
  H38      1.0000 0.52280  0.77380  0.27470  Biso   1.000  H
  C91      1.0000 0.41670  0.75770  0.10650  Biso   1.000  C
  C92      1.0000 0.48460  0.88150  0.11740  Biso   1.000  C
  C93      1.0000 0.53270  0.48600  0.03510  Biso   1.000  C
  F60      1.0000 0.49950  0.71890  0.04320  Biso   1.000  F
  F61      1.0000 0.53230  0.66750  0.07090  Biso   1.000  F
  F62      1.0000 0.55020  0.72180  0.12760  Biso   1.000  F
  F63      1.0000 0.55470  0.79460  0.34200  Biso   1.000  F
  F64      1.0000 0.54810  0.73890  0.29900  Biso   1.000  F
  F65      1.0000 0.50900  0.76300  0.38400  Biso   1.000  F
  H39      1.0000 0.43320  0.73170  0.33390  Biso   1.000  H
  C94      1.0000 0.51830  0.70060  0.10900  Biso   1.000  C
  H40      1.0000 0.42800  0.76360  0.11560  Biso   1.000  H
  C95      1.0000 0.52660  0.77140  0.30700  Biso   1.000  C
  F66      1.0000 0.10380  0.77520  0.40800  Biso   1.000  F
  F67      1.0000 0.09770  0.73520  0.29800  Biso   1.000  F
  F68      1.0000 0.05670  0.73390  0.40800  Biso   1.000  F
  F69      1.0000 0.10480  0.72640  0.04060  Biso   1.000  F
  F70      1.0000 0.07740  0.77780  0.07070  Biso   1.000  F
  F71      1.0000 0.11200  0.75200  0.16470  Biso   1.000  F
  F72      1.0000 0.93410  0.03010  0.06920  Biso   1.000  F
  O31      1.0000 0.99770  0.91470  0.31450  Biso   1.000  O
  O32      1.0000 0.05030  0.90210  0.39730  Biso   1.000  O
  O33      1.0000 0.98420  0.59980  0.13960  Biso   1.000  O
  O34      1.0000 0.04260  0.60490  0.08060  Biso   1.000  O
  O35      1.0000 0.03020  0.97990  0.38250  Biso   1.000  O
  O36      1.0000 0.93930  0.98850  0.48320  Biso   1.000  O
  C96      1.0000 0.02630  0.89340  0.34370  Biso   1.000  C
  C97      1.0000 0.02830  0.85400  0.30110  Biso   1.000  C
  C98      1.0000 0.05090  0.82530  0.34130  Biso   1.000  C
  H41      1.0000 0.06590  0.83140  0.39250  Biso   1.000  H
  C99      1.0000 0.05130  0.78780  0.30650  Biso   1.000  C
  C100     1.0000 0.02930  0.77900  0.23160  Biso   1.000  C
  C101     1.0000 0.00670  0.80760  0.19140  Biso   1.000  C
  H42      1.0000 0.99160  0.80160  0.14020  Biso   1.000  H
  C102     1.0000 0.00620  0.84510  0.22620  Biso   1.000  C
  H43      1.0000 0.99080  0.86470  0.19880  Biso   1.000  H
  C103     1.0000 0.07690  0.75770  0.35400  Biso   1.000  C
  C104     1.0000 0.02520  0.73740  0.19900  Biso   1.000  C
  C105     1.0000 0.05150  0.72100  0.13950  Biso   1.000  C
  C106     1.0000 0.04780  0.68220  0.11490  Biso   1.000  C
  H44      1.0000 0.06580  0.67100  0.07430  Biso   1.000  H
  C107     1.0000 0.01780  0.65980  0.14990  Biso   1.000  C
  C108     1.0000 0.99150  0.67620  0.20940  Biso   1.000  C
  H45      1.0000 0.97100  0.66080  0.23330  Biso   1.000  H
  C109     1.0000 0.99520  0.71500  0.23400  Biso   1.000  C
  H46      1.0000 0.97720  0.72620  0.27470  Biso   1.000  H
  C110     1.0000 0.08330  0.74230  0.10650  Biso   1.000  C
  C111     1.0000 0.01540  0.61850  0.11740  Biso   1.000  C
  C112     1.0000 0.96730  0.01400  0.03510  Biso   1.000  C
  F73      1.0000 0.00050  0.78110  0.04320  Biso   1.000  F
  F74      1.0000 0.96770  0.83250  0.07090  Biso   1.000  F
  F75      1.0000 0.94980  0.77820  0.12760  Biso   1.000  F
  F76      1.0000 0.94530  0.70540  0.34200  Biso   1.000  F
  F77      1.0000 0.95190  0.76110  0.29900  Biso   1.000  F
  F78      1.0000 0.99100  0.73700  0.38400  Biso   1.000  F
  H47      1.0000 0.06680  0.76830  0.33390  Biso   1.000  H
  C113     1.0000 0.98170  0.79940  0.10900  Biso   1.000  C
  H48      1.0000 0.07200  0.73640  0.11560  Biso   1.000  H
  C114     1.0000 0.97340  0.72860  0.30700  Biso   1.000  C
  F79      1.0000 0.72480  0.10380  0.90800  Biso   1.000  F
  F80      1.0000 0.76480  0.09770  0.79800  Biso   1.000  F
  F81      1.0000 0.76610  0.05670  0.90800  Biso   1.000  F
  F82      1.0000 0.77360  0.10480  0.54060  Biso   1.000  F
  F83      1.0000 0.72220  0.07740  0.57070  Biso   1.000  F
  F84      1.0000 0.74800  0.11200  0.66470  Biso   1.000  F
  F85      1.0000 0.46990  0.93410  0.56920  Biso   1.000  F
  O37      1.0000 0.58530  0.99770  0.81450  Biso   1.000  O
  O38      1.0000 0.59790  0.05030  0.89730  Biso   1.000  O
  O39      1.0000 0.90020  0.98420  0.63960  Biso   1.000  O
  O40      1.0000 0.89510  0.04260  0.58060  Biso   1.000  O
  O41      1.0000 0.52010  0.03020  0.88250  Biso   1.000  O
  O42      1.0000 0.51150  0.93930  0.98320  Biso   1.000  O
  C115     1.0000 0.60660  0.02630  0.84370  Biso   1.000  C
  C116     1.0000 0.64600  0.02830  0.80110  Biso   1.000  C
  C117     1.0000 0.67470  0.05090  0.84130  Biso   1.000  C
  H49      1.0000 0.66860  0.06590  0.89250  Biso   1.000  H
  C118     1.0000 0.71220  0.05130  0.80650  Biso   1.000  C
  C119     1.0000 0.72100  0.02930  0.73160  Biso   1.000  C
  C120     1.0000 0.69240  0.00670  0.69140  Biso   1.000  C
  H50      1.0000 0.69840  0.99160  0.64020  Biso   1.000  H
  C121     1.0000 0.65490  0.00620  0.72620  Biso   1.000  C
  H51      1.0000 0.63530  0.99080  0.69880  Biso   1.000  H
  C122     1.0000 0.74230  0.07690  0.85400  Biso   1.000  C
  C123     1.0000 0.76260  0.02520  0.69900  Biso   1.000  C
  C124     1.0000 0.77900  0.05150  0.63950  Biso   1.000  C
  C125     1.0000 0.81780  0.04780  0.61490  Biso   1.000  C
  H52      1.0000 0.82900  0.06580  0.57430  Biso   1.000  H
  C126     1.0000 0.84020  0.01780  0.64990  Biso   1.000  C
  C127     1.0000 0.82380  0.99150  0.70940  Biso   1.000  C
  H53      1.0000 0.83920  0.97100  0.73330  Biso   1.000  H
  C128     1.0000 0.78500  0.99520  0.73400  Biso   1.000  C
  H54      1.0000 0.77380  0.97720  0.77470  Biso   1.000  H
  C129     1.0000 0.75770  0.08330  0.60650  Biso   1.000  C
  C130     1.0000 0.88150  0.01540  0.61740  Biso   1.000  C
  C131     1.0000 0.48600  0.96730  0.53510  Biso   1.000  C
  F86      1.0000 0.71890  0.00050  0.54320  Biso   1.000  F
  F87      1.0000 0.66750  0.96770  0.57090  Biso   1.000  F
  F88      1.0000 0.72180  0.94980  0.62760  Biso   1.000  F
  F89      1.0000 0.79460  0.94530  0.84200  Biso   1.000  F
  F90      1.0000 0.73890  0.95190  0.79900  Biso   1.000  F
  F91      1.0000 0.76300  0.99100  0.88400  Biso   1.000  F
  H55      1.0000 0.73170  0.06680  0.83390  Biso   1.000  H
  C132     1.0000 0.70060  0.98170  0.60900  Biso   1.000  C
  H56      1.0000 0.76360  0.07200  0.61560  Biso   1.000  H
  C133     1.0000 0.77140  0.97340  0.80700  Biso   1.000  C
  F92      1.0000 0.77520  0.39620  0.90800  Biso   1.000  F
  F93      1.0000 0.73520  0.40230  0.79800  Biso   1.000  F
  F94      1.0000 0.73390  0.44330  0.90800  Biso   1.000  F
  F95      1.0000 0.72640  0.39520  0.54060  Biso   1.000  F
  F96      1.0000 0.77780  0.42260  0.57070  Biso   1.000  F
  F97      1.0000 0.75200  0.38800  0.66470  Biso   1.000  F
  F98      1.0000 0.03010  0.56590  0.56920  Biso   1.000  F
  O43      1.0000 0.91470  0.50230  0.81450  Biso   1.000  O
  O44      1.0000 0.90210  0.44970  0.89730  Biso   1.000  O
  O45      1.0000 0.59980  0.51580  0.63960  Biso   1.000  O
  O46      1.0000 0.60490  0.45740  0.58060  Biso   1.000  O
  O47      1.0000 0.97990  0.46980  0.88250  Biso   1.000  O
  O48      1.0000 0.98850  0.56070  0.98320  Biso   1.000  O
  C134     1.0000 0.89340  0.47370  0.84370  Biso   1.000  C
  C135     1.0000 0.85400  0.47170  0.80110  Biso   1.000  C
  C136     1.0000 0.82530  0.44910  0.84130  Biso   1.000  C
  H57      1.0000 0.83140  0.43410  0.89250  Biso   1.000  H
  C137     1.0000 0.78780  0.44870  0.80650  Biso   1.000  C
  C138     1.0000 0.77900  0.47070  0.73160  Biso   1.000  C
  C139     1.0000 0.80760  0.49330  0.69140  Biso   1.000  C
  H58      1.0000 0.80160  0.50840  0.64020  Biso   1.000  H
  C140     1.0000 0.84510  0.49380  0.72620  Biso   1.000  C
  H59      1.0000 0.86470  0.50920  0.69880  Biso   1.000  H
  C141     1.0000 0.75770  0.42310  0.85400  Biso   1.000  C
  C142     1.0000 0.73740  0.47480  0.69900  Biso   1.000  C
  C143     1.0000 0.72100  0.44850  0.63950  Biso   1.000  C
  C144     1.0000 0.68220  0.45220  0.61490  Biso   1.000  C
  H60      1.0000 0.67100  0.43420  0.57430  Biso   1.000  H
  C145     1.0000 0.65980  0.48220  0.64990  Biso   1.000  C
  C146     1.0000 0.67620  0.50850  0.70940  Biso   1.000  C
  H61      1.0000 0.66080  0.52900  0.73330  Biso   1.000  H
  C147     1.0000 0.71500  0.50480  0.73400  Biso   1.000  C
  H62      1.0000 0.72620  0.52280  0.77470  Biso   1.000  H
  C148     1.0000 0.74230  0.41670  0.60650  Biso   1.000  C
  C149     1.0000 0.61850  0.48460  0.61740  Biso   1.000  C
  C150     1.0000 0.01400  0.53270  0.53510  Biso   1.000  C
  F99      1.0000 0.78110  0.49950  0.54320  Biso   1.000  F
  F100     1.0000 0.83250  0.53230  0.57090  Biso   1.000  F
  F101     1.0000 0.77820  0.55020  0.62760  Biso   1.000  F
  F102     1.0000 0.70540  0.55470  0.84200  Biso   1.000  F
  F103     1.0000 0.76110  0.54810  0.79900  Biso   1.000  F
  F104     1.0000 0.73700  0.50900  0.88400  Biso   1.000  F
  H63      1.0000 0.76830  0.43320  0.83390  Biso   1.000  H
  C151     1.0000 0.79940  0.51830  0.60900  Biso   1.000  C
  H64      1.0000 0.73640  0.42800  0.61560  Biso   1.000  H
  C152     1.0000 0.72860  0.52660  0.80700  Biso   1.000  C
  F105     1.0000 0.39620  0.77520  0.90800  Biso   1.000  F
  F106     1.0000 0.40230  0.73520  0.79800  Biso   1.000  F
  F107     1.0000 0.44330  0.73390  0.90800  Biso   1.000  F
  F108     1.0000 0.39520  0.72640  0.54060  Biso   1.000  F
  F109     1.0000 0.42260  0.77780  0.57070  Biso   1.000  F
  F110     1.0000 0.38800  0.75200  0.66470  Biso   1.000  F
  F111     1.0000 0.56590  0.03010  0.56920  Biso   1.000  F
  O49      1.0000 0.50230  0.91470  0.81450  Biso   1.000  O
  O50      1.0000 0.44970  0.90210  0.89730  Biso   1.000  O
  O51      1.0000 0.51580  0.59980  0.63960  Biso   1.000  O
  O52      1.0000 0.45740  0.60490  0.58060  Biso   1.000  O
  O53      1.0000 0.46980  0.97990  0.88250  Biso   1.000  O
  O54      1.0000 0.56070  0.98850  0.98320  Biso   1.000  O
  C153     1.0000 0.47370  0.89340  0.84370  Biso   1.000  C
  C154     1.0000 0.47170  0.85400  0.80110  Biso   1.000  C
  C155     1.0000 0.44910  0.82530  0.84130  Biso   1.000  C
  H65      1.0000 0.43410  0.83140  0.89250  Biso   1.000  H
  C156     1.0000 0.44870  0.78780  0.80650  Biso   1.000  C
  C157     1.0000 0.47070  0.77900  0.73160  Biso   1.000  C
  C158     1.0000 0.49330  0.80760  0.69140  Biso   1.000  C
  H66      1.0000 0.50840  0.80160  0.64020  Biso   1.000  H
  C159     1.0000 0.49380  0.84510  0.72620  Biso   1.000  C
  H67      1.0000 0.50920  0.86470  0.69880  Biso   1.000  H
  C160     1.0000 0.42310  0.75770  0.85400  Biso   1.000  C
  C161     1.0000 0.47480  0.73740  0.69900  Biso   1.000  C
  C162     1.0000 0.44850  0.72100  0.63950  Biso   1.000  C
  C163     1.0000 0.45220  0.68220  0.61490  Biso   1.000  C
  H68      1.0000 0.43420  0.67100  0.57430  Biso   1.000  H
  C164     1.0000 0.48220  0.65980  0.64990  Biso   1.000  C
  C165     1.0000 0.50850  0.67620  0.70940  Biso   1.000  C
  H69      1.0000 0.52900  0.66080  0.73330  Biso   1.000  H
  C166     1.0000 0.50480  0.71500  0.73400  Biso   1.000  C
  H70      1.0000 0.52280  0.72620  0.77470  Biso   1.000  H
  C167     1.0000 0.41670  0.74230  0.60650  Biso   1.000  C
  C168     1.0000 0.48460  0.61850  0.61740  Biso   1.000  C
  C169     1.0000 0.53270  0.01400  0.53510  Biso   1.000  C
  F112     1.0000 0.49950  0.78110  0.54320  Biso   1.000  F
  F113     1.0000 0.53230  0.83250  0.57090  Biso   1.000  F
  F114     1.0000 0.55020  0.77820  0.62760  Biso   1.000  F
  F115     1.0000 0.55470  0.70540  0.84200  Biso   1.000  F
  F116     1.0000 0.54810  0.76110  0.79900  Biso   1.000  F
  F117     1.0000 0.50900  0.73700  0.88400  Biso   1.000  F
  H71      1.0000 0.43320  0.76830  0.83390  Biso   1.000  H
  C170     1.0000 0.51830  0.79940  0.60900  Biso   1.000  C
  H72      1.0000 0.42800  0.73640  0.61560  Biso   1.000  H
  C171     1.0000 0.52660  0.72860  0.80700  Biso   1.000  C
  F118     1.0000 0.10380  0.72480  0.90800  Biso   1.000  F
  F119     1.0000 0.09770  0.76480  0.79800  Biso   1.000  F
  F120     1.0000 0.05670  0.76610  0.90800  Biso   1.000  F
  F121     1.0000 0.10480  0.77360  0.54060  Biso   1.000  F
  F122     1.0000 0.07740  0.72220  0.57070  Biso   1.000  F
  F123     1.0000 0.11200  0.74800  0.66470  Biso   1.000  F
  F124     1.0000 0.93410  0.46990  0.56920  Biso   1.000  F
  O55      1.0000 0.99770  0.58530  0.81450  Biso   1.000  O
  O56      1.0000 0.05030  0.59790  0.89730  Biso   1.000  O
  O57      1.0000 0.98420  0.90020  0.63960  Biso   1.000  O
  O58      1.0000 0.04260  0.89510  0.58060  Biso   1.000  O
  O59      1.0000 0.03020  0.52010  0.88250  Biso   1.000  O
  O60      1.0000 0.93930  0.51150  0.98320  Biso   1.000  O
  C172     1.0000 0.02630  0.60660  0.84370  Biso   1.000  C
  C173     1.0000 0.02830  0.64600  0.80110  Biso   1.000  C
  C174     1.0000 0.05090  0.67470  0.84130  Biso   1.000  C
  H73      1.0000 0.06590  0.66860  0.89250  Biso   1.000  H
  C175     1.0000 0.05130  0.71220  0.80650  Biso   1.000  C
  C176     1.0000 0.02930  0.72100  0.73160  Biso   1.000  C
  C177     1.0000 0.00670  0.69240  0.69140  Biso   1.000  C
  H74      1.0000 0.99160  0.69840  0.64020  Biso   1.000  H
  C178     1.0000 0.00620  0.65490  0.72620  Biso   1.000  C
  H75      1.0000 0.99080  0.63530  0.69880  Biso   1.000  H
  C179     1.0000 0.07690  0.74230  0.85400  Biso   1.000  C
  C180     1.0000 0.02520  0.76260  0.69900  Biso   1.000  C
  C181     1.0000 0.05150  0.77900  0.63950  Biso   1.000  C
  C182     1.0000 0.04780  0.81780  0.61490  Biso   1.000  C
  H76      1.0000 0.06580  0.82900  0.57430  Biso   1.000  H
  C183     1.0000 0.01780  0.84020  0.64990  Biso   1.000  C
  C184     1.0000 0.99150  0.82380  0.70940  Biso   1.000  C
  H77      1.0000 0.97100  0.83920  0.73330  Biso   1.000  H
  C185     1.0000 0.99520  0.78500  0.73400  Biso   1.000  C
  H78      1.0000 0.97720  0.77380  0.77470  Biso   1.000  H
  C186     1.0000 0.08330  0.75770  0.60650  Biso   1.000  C
  C187     1.0000 0.01540  0.88150  0.61740  Biso   1.000  C
  C188     1.0000 0.96730  0.48600  0.53510  Biso   1.000  C
  F125     1.0000 0.00050  0.71890  0.54320  Biso   1.000  F
  F126     1.0000 0.96770  0.66750  0.57090  Biso   1.000  F
  F127     1.0000 0.94980  0.72180  0.62760  Biso   1.000  F
  F128     1.0000 0.94530  0.79460  0.84200  Biso   1.000  F
  F129     1.0000 0.95190  0.73890  0.79900  Biso   1.000  F
  F130     1.0000 0.99100  0.76300  0.88400  Biso   1.000  F
  H79      1.0000 0.06680  0.73170  0.83390  Biso   1.000  H
  C189     1.0000 0.98170  0.70060  0.60900  Biso   1.000  C
  H80      1.0000 0.07200  0.76360  0.61560  Biso   1.000  H
  C190     1.0000 0.97340  0.77140  0.80700  Biso   1.000  C
  F131     1.0000 0.72480  0.39620  0.40800  Biso   1.000  F
  F132     1.0000 0.76480  0.40230  0.29800  Biso   1.000  F
  F133     1.0000 0.76610  0.44330  0.40800  Biso   1.000  F
  F134     1.0000 0.77360  0.39520  0.04060  Biso   1.000  F
  F135     1.0000 0.72220  0.42260  0.07070  Biso   1.000  F
  F136     1.0000 0.74800  0.38800  0.16470  Biso   1.000  F
  F137     1.0000 0.46990  0.56590  0.06920  Biso   1.000  F
  O61      1.0000 0.58530  0.50230  0.31450  Biso   1.000  O
  O62      1.0000 0.59790  0.44970  0.39730  Biso   1.000  O
  O63      1.0000 0.90020  0.51580  0.13960  Biso   1.000  O
  O64      1.0000 0.89510  0.45740  0.08060  Biso   1.000  O
  O65      1.0000 0.52010  0.46980  0.38250  Biso   1.000  O
  O66      1.0000 0.51150  0.56070  0.48320  Biso   1.000  O
  C191     1.0000 0.60660  0.47370  0.34370  Biso   1.000  C
  C192     1.0000 0.64600  0.47170  0.30110  Biso   1.000  C
  C193     1.0000 0.67470  0.44910  0.34130  Biso   1.000  C
  H81      1.0000 0.66860  0.43410  0.39250  Biso   1.000  H
  C194     1.0000 0.71220  0.44870  0.30650  Biso   1.000  C
  C195     1.0000 0.72100  0.47070  0.23160  Biso   1.000  C
  C196     1.0000 0.69240  0.49330  0.19140  Biso   1.000  C
  H82      1.0000 0.69840  0.50840  0.14020  Biso   1.000  H
  C197     1.0000 0.65490  0.49380  0.22620  Biso   1.000  C
  H83      1.0000 0.63530  0.50920  0.19880  Biso   1.000  H
  C198     1.0000 0.74230  0.42310  0.35400  Biso   1.000  C
  C199     1.0000 0.76260  0.47480  0.19900  Biso   1.000  C
  C200     1.0000 0.77900  0.44850  0.13950  Biso   1.000  C
  C201     1.0000 0.81780  0.45220  0.11490  Biso   1.000  C
  H84      1.0000 0.82900  0.43420  0.07430  Biso   1.000  H
  C202     1.0000 0.84020  0.48220  0.14990  Biso   1.000  C
  C203     1.0000 0.82380  0.50850  0.20940  Biso   1.000  C
  H85      1.0000 0.83920  0.52900  0.23330  Biso   1.000  H
  C204     1.0000 0.78500  0.50480  0.23400  Biso   1.000  C
  H86      1.0000 0.77380  0.52280  0.27470  Biso   1.000  H
  C205     1.0000 0.75770  0.41670  0.10650  Biso   1.000  C
  C206     1.0000 0.88150  0.48460  0.11740  Biso   1.000  C
  C207     1.0000 0.48600  0.53270  0.03510  Biso   1.000  C
  F138     1.0000 0.71890  0.49950  0.04320  Biso   1.000  F
  F139     1.0000 0.66750  0.53230  0.07090  Biso   1.000  F
  F140     1.0000 0.72180  0.55020  0.12760  Biso   1.000  F
  F141     1.0000 0.79460  0.55470  0.34200  Biso   1.000  F
  F142     1.0000 0.73890  0.54810  0.29900  Biso   1.000  F
  F143     1.0000 0.76300  0.50900  0.38400  Biso   1.000  F
  H87      1.0000 0.73170  0.43320  0.33390  Biso   1.000  H
  C208     1.0000 0.70060  0.51830  0.10900  Biso   1.000  C
  H88      1.0000 0.76360  0.42800  0.11560  Biso   1.000  H
  C209     1.0000 0.77140  0.52660  0.30700  Biso   1.000  C
  F144     1.0000 0.77520  0.10380  0.40800  Biso   1.000  F
  F145     1.0000 0.73520  0.09770  0.29800  Biso   1.000  F
  F146     1.0000 0.73390  0.05670  0.40800  Biso   1.000  F
  F147     1.0000 0.72640  0.10480  0.04060  Biso   1.000  F
  F148     1.0000 0.77780  0.07740  0.07070  Biso   1.000  F
  F149     1.0000 0.75200  0.11200  0.16470  Biso   1.000  F
  F150     1.0000 0.03010  0.93410  0.06920  Biso   1.000  F
  O67      1.0000 0.91470  0.99770  0.31450  Biso   1.000  O
  O68      1.0000 0.90210  0.05030  0.39730  Biso   1.000  O
  O69      1.0000 0.59980  0.98420  0.13960  Biso   1.000  O
  O70      1.0000 0.60490  0.04260  0.08060  Biso   1.000  O
  O71      1.0000 0.97990  0.03020  0.38250  Biso   1.000  O
  O72      1.0000 0.98850  0.93930  0.48320  Biso   1.000  O
  C210     1.0000 0.89340  0.02630  0.34370  Biso   1.000  C
  C211     1.0000 0.85400  0.02830  0.30110  Biso   1.000  C
  C212     1.0000 0.82530  0.05090  0.34130  Biso   1.000  C
  H89      1.0000 0.83140  0.06590  0.39250  Biso   1.000  H
  C213     1.0000 0.78780  0.05130  0.30650  Biso   1.000  C
  C214     1.0000 0.77900  0.02930  0.23160  Biso   1.000  C
  C215     1.0000 0.80760  0.00670  0.19140  Biso   1.000  C
  H90      1.0000 0.80160  0.99160  0.14020  Biso   1.000  H
  C216     1.0000 0.84510  0.00620  0.22620  Biso   1.000  C
  H91      1.0000 0.86470  0.99080  0.19880  Biso   1.000  H
  C217     1.0000 0.75770  0.07690  0.35400  Biso   1.000  C
  C218     1.0000 0.73740  0.02520  0.19900  Biso   1.000  C
  C219     1.0000 0.72100  0.05150  0.13950  Biso   1.000  C
  C220     1.0000 0.68220  0.04780  0.11490  Biso   1.000  C
  H92      1.0000 0.67100  0.06580  0.07430  Biso   1.000  H
  C221     1.0000 0.65980  0.01780  0.14990  Biso   1.000  C
  C222     1.0000 0.67620  0.99150  0.20940  Biso   1.000  C
  H93      1.0000 0.66080  0.97100  0.23330  Biso   1.000  H
  C223     1.0000 0.71500  0.99520  0.23400  Biso   1.000  C
  H94      1.0000 0.72620  0.97720  0.27470  Biso   1.000  H
  C224     1.0000 0.74230  0.08330  0.10650  Biso   1.000  C
  C225     1.0000 0.61850  0.01540  0.11740  Biso   1.000  C
  C226     1.0000 0.01400  0.96730  0.03510  Biso   1.000  C
  F151     1.0000 0.78110  0.00050  0.04320  Biso   1.000  F
  F152     1.0000 0.83250  0.96770  0.07090  Biso   1.000  F
  F153     1.0000 0.77820  0.94980  0.12760  Biso   1.000  F
  F154     1.0000 0.70540  0.94530  0.34200  Biso   1.000  F
  F155     1.0000 0.76110  0.95190  0.29900  Biso   1.000  F
  F156     1.0000 0.73700  0.99100  0.38400  Biso   1.000  F
  H95      1.0000 0.76830  0.06680  0.33390  Biso   1.000  H
  C227     1.0000 0.79940  0.98170  0.10900  Biso   1.000  C
  H96      1.0000 0.73640  0.07200  0.11560  Biso   1.000  H
  C228     1.0000 0.72860  0.97340  0.30700  Biso   1.000  C
  F157     1.0000 0.60380  0.27520  0.59200  Biso   1.000  F
  F158     1.0000 0.59770  0.23520  0.70200  Biso   1.000  F
  F159     1.0000 0.55670  0.23390  0.59200  Biso   1.000  F
  F160     1.0000 0.60480  0.22640  0.95940  Biso   1.000  F
  F161     1.0000 0.57740  0.27780  0.92930  Biso   1.000  F
  F162     1.0000 0.61200  0.25200  0.83530  Biso   1.000  F
  F163     1.0000 0.43410  0.53010  0.93080  Biso   1.000  F
  O73      1.0000 0.49770  0.41470  0.68550  Biso   1.000  O
  O74      1.0000 0.55030  0.40210  0.60270  Biso   1.000  O
  O75      1.0000 0.48420  0.09980  0.86040  Biso   1.000  O
  O76      1.0000 0.54260  0.10490  0.91940  Biso   1.000  O
  O77      1.0000 0.53020  0.47990  0.61750  Biso   1.000  O
  O78      1.0000 0.43930  0.48850  0.51680  Biso   1.000  O
  C229     1.0000 0.52630  0.39340  0.65630  Biso   1.000  C
  C230     1.0000 0.52830  0.35400  0.69890  Biso   1.000  C
  C231     1.0000 0.55090  0.32530  0.65870  Biso   1.000  C
  H97      1.0000 0.56590  0.33140  0.60750  Biso   1.000  H
  C232     1.0000 0.55130  0.28780  0.69350  Biso   1.000  C
  C233     1.0000 0.52930  0.27900  0.76840  Biso   1.000  C
  C234     1.0000 0.50670  0.30760  0.80860  Biso   1.000  C
  H98      1.0000 0.49160  0.30160  0.85980  Biso   1.000  H
  C235     1.0000 0.50620  0.34510  0.77380  Biso   1.000  C
  H99      1.0000 0.49080  0.36470  0.80120  Biso   1.000  H
  C236     1.0000 0.57690  0.25770  0.64600  Biso   1.000  C
  C237     1.0000 0.52520  0.23740  0.80100  Biso   1.000  C
  C238     1.0000 0.55150  0.22100  0.86050  Biso   1.000  C
  C239     1.0000 0.54780  0.18220  0.88510  Biso   1.000  C
  H100     1.0000 0.56580  0.17100  0.92570  Biso   1.000  H
  C240     1.0000 0.51780  0.15980  0.85010  Biso   1.000  C
  C241     1.0000 0.49150  0.17620  0.79060  Biso   1.000  C
  H101     1.0000 0.47100  0.16080  0.76670  Biso   1.000  H
  C242     1.0000 0.49520  0.21500  0.76600  Biso   1.000  C
  H102     1.0000 0.47720  0.22620  0.72530  Biso   1.000  H
  C243     1.0000 0.58330  0.24230  0.89350  Biso   1.000  C
  C244     1.0000 0.51540  0.11850  0.88260  Biso   1.000  C
  C245     1.0000 0.46730  0.51400  0.96490  Biso   1.000  C
  F164     1.0000 0.50050  0.28110  0.95680  Biso   1.000  F
  F165     1.0000 0.46770  0.33250  0.92910  Biso   1.000  F
  F166     1.0000 0.44980  0.27820  0.87240  Biso   1.000  F
  F167     1.0000 0.44530  0.20540  0.65800  Biso   1.000  F
  F168     1.0000 0.45190  0.26110  0.70100  Biso   1.000  F
  F169     1.0000 0.49100  0.23700  0.61600  Biso   1.000  F
  H103     1.0000 0.56680  0.26830  0.66610  Biso   1.000  H
  C246     1.0000 0.48170  0.29940  0.89100  Biso   1.000  C
  H104     1.0000 0.57200  0.23640  0.88440  Biso   1.000  H
  C247     1.0000 0.47340  0.22860  0.69300  Biso   1.000  C
  F170     1.0000 0.89620  0.22480  0.59200  Biso   1.000  F
  F171     1.0000 0.90230  0.26480  0.70200  Biso   1.000  F
  F172     1.0000 0.94330  0.26610  0.59200  Biso   1.000  F
  F173     1.0000 0.89520  0.27360  0.95940  Biso   1.000  F
  F174     1.0000 0.92260  0.22220  0.92930  Biso   1.000  F
  F175     1.0000 0.88800  0.24800  0.83530  Biso   1.000  F
  F176     1.0000 0.06590  0.96990  0.93080  Biso   1.000  F
  O79      1.0000 0.00230  0.08530  0.68550  Biso   1.000  O
  O80      1.0000 0.94970  0.09790  0.60270  Biso   1.000  O
  O81      1.0000 0.01580  0.40020  0.86040  Biso   1.000  O
  O82      1.0000 0.95740  0.39510  0.91940  Biso   1.000  O
  O83      1.0000 0.96980  0.02010  0.61750  Biso   1.000  O
  O84      1.0000 0.06070  0.01150  0.51680  Biso   1.000  O
  C248     1.0000 0.97370  0.10660  0.65630  Biso   1.000  C
  C249     1.0000 0.97170  0.14600  0.69890  Biso   1.000  C
  C250     1.0000 0.94910  0.17470  0.65870  Biso   1.000  C
  H105     1.0000 0.93410  0.16860  0.60750  Biso   1.000  H
  C251     1.0000 0.94870  0.21220  0.69350  Biso   1.000  C
  C252     1.0000 0.97070  0.22100  0.76840  Biso   1.000  C
  C253     1.0000 0.99330  0.19240  0.80860  Biso   1.000  C
  H106     1.0000 0.00840  0.19840  0.85980  Biso   1.000  H
  C254     1.0000 0.99380  0.15490  0.77380  Biso   1.000  C
  H107     1.0000 0.00920  0.13530  0.80120  Biso   1.000  H
  C255     1.0000 0.92310  0.24230  0.64600  Biso   1.000  C
  C256     1.0000 0.97480  0.26260  0.80100  Biso   1.000  C
  C257     1.0000 0.94850  0.27900  0.86050  Biso   1.000  C
  C258     1.0000 0.95220  0.31780  0.88510  Biso   1.000  C
  H108     1.0000 0.93420  0.32900  0.92570  Biso   1.000  H
  C259     1.0000 0.98220  0.34020  0.85010  Biso   1.000  C
  C260     1.0000 0.00850  0.32380  0.79060  Biso   1.000  C
  H109     1.0000 0.02900  0.33920  0.76670  Biso   1.000  H
  C261     1.0000 0.00480  0.28500  0.76600  Biso   1.000  C
  H110     1.0000 0.02280  0.27380  0.72530  Biso   1.000  H
  C262     1.0000 0.91670  0.25770  0.89350  Biso   1.000  C
  C263     1.0000 0.98460  0.38150  0.88260  Biso   1.000  C
  C264     1.0000 0.03270  0.98600  0.96490  Biso   1.000  C
  F177     1.0000 0.99950  0.21890  0.95680  Biso   1.000  F
  F178     1.0000 0.03230  0.16750  0.92910  Biso   1.000  F
  F179     1.0000 0.05020  0.22180  0.87240  Biso   1.000  F
  F180     1.0000 0.05470  0.29460  0.65800  Biso   1.000  F
  F181     1.0000 0.04810  0.23890  0.70100  Biso   1.000  F
  F182     1.0000 0.00900  0.26300  0.61600  Biso   1.000  F
  H111     1.0000 0.93320  0.23170  0.66610  Biso   1.000  H
  C265     1.0000 0.01830  0.20060  0.89100  Biso   1.000  C
  H112     1.0000 0.92800  0.26360  0.88440  Biso   1.000  H
  C266     1.0000 0.02660  0.27140  0.69300  Biso   1.000  C
  F183     1.0000 0.27520  0.89620  0.09200  Biso   1.000  F
  F184     1.0000 0.23520  0.90230  0.20200  Biso   1.000  F
  F185     1.0000 0.23390  0.94330  0.09200  Biso   1.000  F
  F186     1.0000 0.22640  0.89520  0.45940  Biso   1.000  F
  F187     1.0000 0.27780  0.92260  0.42930  Biso   1.000  F
  F188     1.0000 0.25200  0.88800  0.33530  Biso   1.000  F
  F189     1.0000 0.53010  0.06590  0.43080  Biso   1.000  F
  O85      1.0000 0.41470  0.00230  0.18550  Biso   1.000  O
  O86      1.0000 0.40210  0.94970  0.10270  Biso   1.000  O
  O87      1.0000 0.09980  0.01580  0.36040  Biso   1.000  O
  O88      1.0000 0.10490  0.95740  0.41940  Biso   1.000  O
  O89      1.0000 0.47990  0.96980  0.11750  Biso   1.000  O
  O90      1.0000 0.48850  0.06070  0.01680  Biso   1.000  O
  C267     1.0000 0.39340  0.97370  0.15630  Biso   1.000  C
  C268     1.0000 0.35400  0.97170  0.19890  Biso   1.000  C
  C269     1.0000 0.32530  0.94910  0.15870  Biso   1.000  C
  H113     1.0000 0.33140  0.93410  0.10750  Biso   1.000  H
  C270     1.0000 0.28780  0.94870  0.19350  Biso   1.000  C
  C271     1.0000 0.27900  0.97070  0.26840  Biso   1.000  C
  C272     1.0000 0.30760  0.99330  0.30860  Biso   1.000  C
  H114     1.0000 0.30160  0.00840  0.35980  Biso   1.000  H
  C273     1.0000 0.34510  0.99380  0.27380  Biso   1.000  C
  H115     1.0000 0.36470  0.00920  0.30120  Biso   1.000  H
  C274     1.0000 0.25770  0.92310  0.14600  Biso   1.000  C
  C275     1.0000 0.23740  0.97480  0.30100  Biso   1.000  C
  C276     1.0000 0.22100  0.94850  0.36050  Biso   1.000  C
  C277     1.0000 0.18220  0.95220  0.38510  Biso   1.000  C
  H116     1.0000 0.17100  0.93420  0.42570  Biso   1.000  H
  C278     1.0000 0.15980  0.98220  0.35010  Biso   1.000  C
  C279     1.0000 0.17620  0.00850  0.29060  Biso   1.000  C
  H117     1.0000 0.16080  0.02900  0.26670  Biso   1.000  H
  C280     1.0000 0.21500  0.00480  0.26600  Biso   1.000  C
  H118     1.0000 0.22620  0.02280  0.22530  Biso   1.000  H
  C281     1.0000 0.24230  0.91670  0.39350  Biso   1.000  C
  C282     1.0000 0.11850  0.98460  0.38260  Biso   1.000  C
  C283     1.0000 0.51400  0.03270  0.46490  Biso   1.000  C
  F190     1.0000 0.28110  0.99950  0.45680  Biso   1.000  F
  F191     1.0000 0.33250  0.03230  0.42910  Biso   1.000  F
  F192     1.0000 0.27820  0.05020  0.37240  Biso   1.000  F
  F193     1.0000 0.20540  0.05470  0.15800  Biso   1.000  F
  F194     1.0000 0.26110  0.04810  0.20100  Biso   1.000  F
  F195     1.0000 0.23700  0.00900  0.11600  Biso   1.000  F
  H119     1.0000 0.26830  0.93320  0.16610  Biso   1.000  H
  C284     1.0000 0.29940  0.01830  0.39100  Biso   1.000  C
  H120     1.0000 0.23640  0.92800  0.38440  Biso   1.000  H
  C285     1.0000 0.22860  0.02660  0.19300  Biso   1.000  C
  F196     1.0000 0.22480  0.60380  0.09200  Biso   1.000  F
  F197     1.0000 0.26480  0.59770  0.20200  Biso   1.000  F
  F198     1.0000 0.26610  0.55670  0.09200  Biso   1.000  F
  F199     1.0000 0.27360  0.60480  0.45940  Biso   1.000  F
  F200     1.0000 0.22220  0.57740  0.42930  Biso   1.000  F
  F201     1.0000 0.24800  0.61200  0.33530  Biso   1.000  F
  F202     1.0000 0.96990  0.43410  0.43080  Biso   1.000  F
  O91      1.0000 0.08530  0.49770  0.18550  Biso   1.000  O
  O92      1.0000 0.09790  0.55030  0.10270  Biso   1.000  O
  O93      1.0000 0.40020  0.48420  0.36040  Biso   1.000  O
  O94      1.0000 0.39510  0.54260  0.41940  Biso   1.000  O
  O95      1.0000 0.02010  0.53020  0.11750  Biso   1.000  O
  O96      1.0000 0.01150  0.43930  0.01680  Biso   1.000  O
  C286     1.0000 0.10660  0.52630  0.15630  Biso   1.000  C
  C287     1.0000 0.14600  0.52830  0.19890  Biso   1.000  C
  C288     1.0000 0.17470  0.55090  0.15870  Biso   1.000  C
  H121     1.0000 0.16860  0.56590  0.10750  Biso   1.000  H
  C289     1.0000 0.21220  0.55130  0.19350  Biso   1.000  C
  C290     1.0000 0.22100  0.52930  0.26840  Biso   1.000  C
  C291     1.0000 0.19240  0.50670  0.30860  Biso   1.000  C
  H122     1.0000 0.19840  0.49160  0.35980  Biso   1.000  H
  C292     1.0000 0.15490  0.50620  0.27380  Biso   1.000  C
  H123     1.0000 0.13530  0.49080  0.30120  Biso   1.000  H
  C293     1.0000 0.24230  0.57690  0.14600  Biso   1.000  C
  C294     1.0000 0.26260  0.52520  0.30100  Biso   1.000  C
  C295     1.0000 0.27900  0.55150  0.36050  Biso   1.000  C
  C296     1.0000 0.31780  0.54780  0.38510  Biso   1.000  C
  H124     1.0000 0.32900  0.56580  0.42570  Biso   1.000  H
  C297     1.0000 0.34020  0.51780  0.35010  Biso   1.000  C
  C298     1.0000 0.32380  0.49150  0.29060  Biso   1.000  C
  H125     1.0000 0.33920  0.47100  0.26670  Biso   1.000  H
  C299     1.0000 0.28500  0.49520  0.26600  Biso   1.000  C
  H126     1.0000 0.27380  0.47720  0.22530  Biso   1.000  H
  C300     1.0000 0.25770  0.58330  0.39350  Biso   1.000  C
  C301     1.0000 0.38150  0.51540  0.38260  Biso   1.000  C
  C302     1.0000 0.98600  0.46730  0.46490  Biso   1.000  C
  F203     1.0000 0.21890  0.50050  0.45680  Biso   1.000  F
  F204     1.0000 0.16750  0.46770  0.42910  Biso   1.000  F
  F205     1.0000 0.22180  0.44980  0.37240  Biso   1.000  F
  F206     1.0000 0.29460  0.44530  0.15800  Biso   1.000  F
  F207     1.0000 0.23890  0.45190  0.20100  Biso   1.000  F
  F208     1.0000 0.26300  0.49100  0.11600  Biso   1.000  F
  H127     1.0000 0.23170  0.56680  0.16610  Biso   1.000  H
  C303     1.0000 0.20060  0.48170  0.39100  Biso   1.000  C
  H128     1.0000 0.26360  0.57200  0.38440  Biso   1.000  H
  C304     1.0000 0.27140  0.47340  0.19300  Biso   1.000  C
  Zr1      1.0000 0.55045  0.05045  0.00000  Biso   1.000  Zr
  Zr2      1.0000 0.94955  0.44955  0.00000  Biso   1.000  Zr
  Zr3      1.0000 0.44955  0.55045  0.50000  Biso   1.000  Zr
  Zr4      1.0000 0.05045  0.94955  0.50000  Biso   1.000  Zr
  Zr5      1.0000 0.44955  0.94955  0.00000  Biso   1.000  Zr
  Zr6      1.0000 0.05045  0.55045  0.00000  Biso   1.000  Zr
  Zr7      1.0000 0.55045  0.44955  0.50000  Biso   1.000  Zr
  Zr8      1.0000 0.94955  0.05045  0.50000  Biso   1.000  Zr
  Zr9      1.0000 0.46921  0.03079  0.13409  Biso   1.000  Zr
  Zr10     1.0000 0.54146  0.95854  0.09876  Biso   1.000  Zr
  O97      1.0000 0.47670  0.02330  0.27190  Biso   1.000  O
  O98      1.0000 0.43810  0.06190  0.35500  Biso   1.000  O
  C305     1.0000 0.46470  0.03530  0.33760  Biso   1.000  C
  C306     1.0000 0.47970  0.02030  0.42500  Biso   1.000  C
  Zr11     1.0000 0.03079  0.46921  0.13409  Biso   1.000  Zr
  Zr12     1.0000 0.95854  0.54146  0.09876  Biso   1.000  Zr
  O99      1.0000 0.02330  0.47670  0.27190  Biso   1.000  O
  O100     1.0000 0.06190  0.43810  0.35500  Biso   1.000  O
  C307     1.0000 0.03530  0.46470  0.33760  Biso   1.000  C
  C308     1.0000 0.02030  0.47970  0.42500  Biso   1.000  C
  Zr13     1.0000 0.46921  0.46921  0.63409  Biso   1.000  Zr
  Zr14     1.0000 0.54146  0.54146  0.59876  Biso   1.000  Zr
  O101     1.0000 0.47670  0.47670  0.77190  Biso   1.000  O
  O102     1.0000 0.43810  0.43810  0.85500  Biso   1.000  O
  C309     1.0000 0.46470  0.46470  0.83760  Biso   1.000  C
  C310     1.0000 0.47970  0.47970  0.92500  Biso   1.000  C
  Zr15     1.0000 0.03079  0.03079  0.63409  Biso   1.000  Zr
  Zr16     1.0000 0.95854  0.95854  0.59876  Biso   1.000  Zr
  O103     1.0000 0.02330  0.02330  0.77190  Biso   1.000  O
  O104     1.0000 0.06190  0.06190  0.85500  Biso   1.000  O
  C311     1.0000 0.03530  0.03530  0.83760  Biso   1.000  C
  C312     1.0000 0.02030  0.02030  0.92500  Biso   1.000  C
  Zr17     1.0000 0.53079  0.53079  0.36591  Biso   1.000  Zr
  Zr18     1.0000 0.45854  0.45854  0.40124  Biso   1.000  Zr
  O105     1.0000 0.52330  0.52330  0.22810  Biso   1.000  O
  O106     1.0000 0.56190  0.56190  0.14500  Biso   1.000  O
  C313     1.0000 0.53530  0.53530  0.16240  Biso   1.000  C
  C314     1.0000 0.52030  0.52030  0.07500  Biso   1.000  C
  Zr19     1.0000 0.96921  0.96921  0.36591  Biso   1.000  Zr
  Zr20     1.0000 0.04146  0.04146  0.40124  Biso   1.000  Zr
  O107     1.0000 0.97670  0.97670  0.22810  Biso   1.000  O
  O108     1.0000 0.93810  0.93810  0.14500  Biso   1.000  O
  C315     1.0000 0.96470  0.96470  0.16240  Biso   1.000  C
  C316     1.0000 0.97970  0.97970  0.07500  Biso   1.000  C
  Zr21     1.0000 0.53079  0.96921  0.86591  Biso   1.000  Zr
  Zr22     1.0000 0.45854  0.04146  0.90124  Biso   1.000  Zr
  O109     1.0000 0.52330  0.97670  0.72810  Biso   1.000  O
  O110     1.0000 0.56190  0.93810  0.64500  Biso   1.000  O
  C317     1.0000 0.53530  0.96470  0.66240  Biso   1.000  C
  C318     1.0000 0.52030  0.97970  0.57500  Biso   1.000  C
  Zr23     1.0000 0.96921  0.53079  0.86591  Biso   1.000  Zr
  Zr24     1.0000 0.04146  0.45854  0.90124  Biso   1.000  Zr
  O111     1.0000 0.97670  0.52330  0.72810  Biso   1.000  O
  O112     1.0000 0.93810  0.56190  0.64500  Biso   1.000  O
  C319     1.0000 0.96470  0.53530  0.66240  Biso   1.000  C
  C320     1.0000 0.97970  0.52030  0.57500  Biso   1.000  C
