data_image0
_cell_length_a       34.9195
_cell_length_b       34.9195
_cell_length_c       12.0592
_cell_angle_alpha    90
_cell_angle_beta     90
_cell_angle_gamma    90

_symmetry_space_group_name_H-M    "P 1"
_symmetry_int_tables_number       1

loop_
  _symmetry_equiv_pos_as_xyz
  'x, y, z'

loop_
  _atom_site_label
  _atom_site_occupancy
  _atom_site_fract_x
  _atom_site_fract_y
  _atom_site_fract_z
  _atom_site_thermal_displace_type
  _atom_site_B_iso_or_equiv
  _atom_site_type_symbol
  F1       1.0000 0.16700  0.48030  0.05340  Biso   1.000  F
  F2       1.0000 0.21040  0.45180  0.96380  Biso   1.000  F
  F3       1.0000 0.22340  0.50270  0.04770  Biso   1.000  F
  F4       1.0000 0.22857  0.58670  0.96670  Biso   1.000  F
  F5       1.0000 0.25200  0.60970  0.82150  Biso   1.000  F
  F6       1.0000 0.28390  0.61120  0.96940  Biso   1.000  F
  O1       1.0000 0.09056  0.55377  0.63870  Biso   1.000  O
  O2       1.0000 0.07422  0.50720  0.76050  Biso   1.000  O
  O3       1.0000 0.39438  0.53976  0.92760  Biso   1.000  O
  O4       1.0000 0.39471  0.47850  0.86960  Biso   1.000  O
  O5       1.0000 0.98953  0.55850  0.45620  Biso   1.000  O
  O6       1.0000 0.03463  0.51349  0.35900  Biso   1.000  O
  C1       1.0000 0.09780  0.53160  0.71610  Biso   1.000  C
  C2       1.0000 0.13880  0.53000  0.75630  Biso   1.000  C
  C3       1.0000 0.14880  0.51150  0.85200  Biso   1.000  C
  H1       1.0000 0.12920  0.50070  0.89690  Biso   1.000  H
  C4       1.0000 0.18700  0.50800  0.88570  Biso   1.000  C
  C5       1.0000 0.21500  0.52370  0.81870  Biso   1.000  C
  C6       1.0000 0.20440  0.54230  0.72230  Biso   1.000  C
  H2       1.0000 0.22360  0.55340  0.67650  Biso   1.000  H
  C7       1.0000 0.16650  0.54480  0.69180  Biso   1.000  C
  H3       1.0000 0.15980  0.55720  0.62430  Biso   1.000  H
  C8       1.0000 0.19630  0.48750  0.98530  Biso   1.000  C
  C9       1.0000 0.25670  0.52020  0.84050  Biso   1.000  C
  C10      1.0000 0.27860  0.55080  0.87950  Biso   1.000  C
  C11      1.0000 0.31770  0.54560  0.89210  Biso   1.000  C
  H4       1.0000 0.33230  0.56670  0.91820  Biso   1.000  H
  C12      1.0000 0.33670  0.51300  0.87040  Biso   1.000  C
  C13      1.0000 0.31610  0.48190  0.83180  Biso   1.000  C
  H5       1.0000 0.32860  0.45830  0.81750  Biso   1.000  H
  C14      1.0000 0.27610  0.48570  0.81360  Biso   1.000  C
  H6       1.0000 0.26220  0.46480  0.78300  Biso   1.000  H
  C15      1.0000 0.26160  0.58710  0.90890  Biso   1.000  C
  C16      1.0000 0.37800  0.50980  0.88900  Biso   1.000  C
  F7       1.0000 0.22890  0.44080  0.87400  Biso   1.000  F
  F8       1.0000 0.27550  0.41840  0.78300  Biso   1.000  F
  F9       1.0000 0.23260  0.44990  0.70100  Biso   1.000  F
  H7       1.0000 0.19350  0.49520  0.95260  Biso   1.000  H
  H8       1.0000 0.26700  0.57460  0.89700  Biso   1.000  H
  C17      1.0000 0.25440  0.45110  0.79400  Biso   1.000  C
  F10      1.0000 0.26400  0.53000  0.64300  Biso   1.000  F
  C18      1.0000 0.23450  0.55400  0.64400  Biso   1.000  C
  F11      1.0000 0.24900  0.58800  0.66500  Biso   1.000  F
  F12      1.0000 0.22300  0.55500  0.53900  Biso   1.000  F
  F13      1.0000 0.33300  0.01970  0.05340  Biso   1.000  F
  F14      1.0000 0.28960  0.04820  0.96380  Biso   1.000  F
  F15      1.0000 0.27660  0.99730  0.04770  Biso   1.000  F
  F16      1.0000 0.27143  0.91330  0.96670  Biso   1.000  F
  F17      1.0000 0.24800  0.89030  0.82150  Biso   1.000  F
  F18      1.0000 0.21610  0.88880  0.96940  Biso   1.000  F
  O7       1.0000 0.40944  0.94623  0.63870  Biso   1.000  O
  O8       1.0000 0.42578  0.99280  0.76050  Biso   1.000  O
  O9       1.0000 0.10562  0.96024  0.92760  Biso   1.000  O
  O10      1.0000 0.10529  0.02150  0.86960  Biso   1.000  O
  O11      1.0000 0.51047  0.94150  0.45620  Biso   1.000  O
  O12      1.0000 0.46537  0.98651  0.35900  Biso   1.000  O
  C19      1.0000 0.40220  0.96840  0.71610  Biso   1.000  C
  C20      1.0000 0.36120  0.97000  0.75630  Biso   1.000  C
  C21      1.0000 0.35120  0.98850  0.85200  Biso   1.000  C
  H9       1.0000 0.37080  0.99930  0.89690  Biso   1.000  H
  C22      1.0000 0.31300  0.99200  0.88570  Biso   1.000  C
  C23      1.0000 0.28500  0.97630  0.81870  Biso   1.000  C
  C24      1.0000 0.29560  0.95770  0.72230  Biso   1.000  C
  H10      1.0000 0.27640  0.94660  0.67650  Biso   1.000  H
  C25      1.0000 0.33350  0.95520  0.69180  Biso   1.000  C
  H11      1.0000 0.34020  0.94280  0.62430  Biso   1.000  H
  C26      1.0000 0.30370  0.01250  0.98530  Biso   1.000  C
  C27      1.0000 0.24330  0.97980  0.84050  Biso   1.000  C
  C28      1.0000 0.22140  0.94920  0.87950  Biso   1.000  C
  C29      1.0000 0.18230  0.95440  0.89210  Biso   1.000  C
  H12      1.0000 0.16770  0.93330  0.91820  Biso   1.000  H
  C30      1.0000 0.16330  0.98700  0.87040  Biso   1.000  C
  C31      1.0000 0.18390  0.01810  0.83180  Biso   1.000  C
  H13      1.0000 0.17140  0.04170  0.81750  Biso   1.000  H
  C32      1.0000 0.22390  0.01430  0.81360  Biso   1.000  C
  H14      1.0000 0.23780  0.03520  0.78300  Biso   1.000  H
  C33      1.0000 0.23840  0.91290  0.90890  Biso   1.000  C
  C34      1.0000 0.12200  0.99020  0.88900  Biso   1.000  C
  F19      1.0000 0.27110  0.05920  0.87400  Biso   1.000  F
  F20      1.0000 0.22450  0.08160  0.78300  Biso   1.000  F
  F21      1.0000 0.26740  0.05010  0.70100  Biso   1.000  F
  H15      1.0000 0.30650  0.00480  0.95260  Biso   1.000  H
  H16      1.0000 0.23300  0.92540  0.89700  Biso   1.000  H
  C35      1.0000 0.24560  0.04890  0.79400  Biso   1.000  C
  F22      1.0000 0.23600  0.97000  0.64300  Biso   1.000  F
  C36      1.0000 0.26550  0.94600  0.64400  Biso   1.000  C
  F23      1.0000 0.25100  0.91200  0.66500  Biso   1.000  F
  F24      1.0000 0.27700  0.94500  0.53900  Biso   1.000  F
  F25      1.0000 0.01970  0.16700  0.55340  Biso   1.000  F
  F26      1.0000 0.04820  0.21040  0.46380  Biso   1.000  F
  F27      1.0000 0.99730  0.22340  0.54770  Biso   1.000  F
  F28      1.0000 0.91330  0.22857  0.46670  Biso   1.000  F
  F29      1.0000 0.89030  0.25200  0.32150  Biso   1.000  F
  F30      1.0000 0.88880  0.28390  0.46940  Biso   1.000  F
  O13      1.0000 0.94623  0.09056  0.13870  Biso   1.000  O
  O14      1.0000 0.99280  0.07422  0.26050  Biso   1.000  O
  O15      1.0000 0.96024  0.39438  0.42760  Biso   1.000  O
  O16      1.0000 0.02150  0.39471  0.36960  Biso   1.000  O
  O17      1.0000 0.94150  0.98953  0.95620  Biso   1.000  O
  O18      1.0000 0.98651  0.03463  0.85900  Biso   1.000  O
  C37      1.0000 0.96840  0.09780  0.21610  Biso   1.000  C
  C38      1.0000 0.97000  0.13880  0.25630  Biso   1.000  C
  C39      1.0000 0.98850  0.14880  0.35200  Biso   1.000  C
  H17      1.0000 0.99930  0.12920  0.39690  Biso   1.000  H
  C40      1.0000 0.99200  0.18700  0.38570  Biso   1.000  C
  C41      1.0000 0.97630  0.21500  0.31870  Biso   1.000  C
  C42      1.0000 0.95770  0.20440  0.22230  Biso   1.000  C
  H18      1.0000 0.94660  0.22360  0.17650  Biso   1.000  H
  C43      1.0000 0.95520  0.16650  0.19180  Biso   1.000  C
  H19      1.0000 0.94280  0.15980  0.12430  Biso   1.000  H
  C44      1.0000 0.01250  0.19630  0.48530  Biso   1.000  C
  C45      1.0000 0.97980  0.25670  0.34050  Biso   1.000  C
  C46      1.0000 0.94920  0.27860  0.37950  Biso   1.000  C
  C47      1.0000 0.95440  0.31770  0.39210  Biso   1.000  C
  H20      1.0000 0.93330  0.33230  0.41820  Biso   1.000  H
  C48      1.0000 0.98700  0.33670  0.37040  Biso   1.000  C
  C49      1.0000 0.01810  0.31610  0.33180  Biso   1.000  C
  H21      1.0000 0.04170  0.32860  0.31750  Biso   1.000  H
  C50      1.0000 0.01430  0.27610  0.31360  Biso   1.000  C
  H22      1.0000 0.03520  0.26220  0.28300  Biso   1.000  H
  C51      1.0000 0.91290  0.26160  0.40890  Biso   1.000  C
  C52      1.0000 0.99020  0.37800  0.38900  Biso   1.000  C
  F31      1.0000 0.05920  0.22890  0.37400  Biso   1.000  F
  F32      1.0000 0.08160  0.27550  0.28300  Biso   1.000  F
  F33      1.0000 0.05010  0.23260  0.20100  Biso   1.000  F
  H23      1.0000 0.00480  0.19350  0.45260  Biso   1.000  H
  H24      1.0000 0.92540  0.26700  0.39700  Biso   1.000  H
  C53      1.0000 0.04890  0.25440  0.29400  Biso   1.000  C
  F34      1.0000 0.97000  0.26400  0.14300  Biso   1.000  F
  C54      1.0000 0.94600  0.23450  0.14400  Biso   1.000  C
  F35      1.0000 0.91200  0.24900  0.16500  Biso   1.000  F
  F36      1.0000 0.94500  0.22300  0.03900  Biso   1.000  F
  F37      1.0000 0.48030  0.33300  0.55340  Biso   1.000  F
  F38      1.0000 0.45180  0.28960  0.46380  Biso   1.000  F
  F39      1.0000 0.50270  0.27660  0.54770  Biso   1.000  F
  F40      1.0000 0.58670  0.27143  0.46670  Biso   1.000  F
  F41      1.0000 0.60970  0.24800  0.32150  Biso   1.000  F
  F42      1.0000 0.61120  0.21610  0.46940  Biso   1.000  F
  O19      1.0000 0.55377  0.40944  0.13870  Biso   1.000  O
  O20      1.0000 0.50720  0.42578  0.26050  Biso   1.000  O
  O21      1.0000 0.53976  0.10562  0.42760  Biso   1.000  O
  O22      1.0000 0.47850  0.10529  0.36960  Biso   1.000  O
  O23      1.0000 0.55850  0.51047  0.95620  Biso   1.000  O
  O24      1.0000 0.51349  0.46537  0.85900  Biso   1.000  O
  C55      1.0000 0.53160  0.40220  0.21610  Biso   1.000  C
  C56      1.0000 0.53000  0.36120  0.25630  Biso   1.000  C
  C57      1.0000 0.51150  0.35120  0.35200  Biso   1.000  C
  H25      1.0000 0.50070  0.37080  0.39690  Biso   1.000  H
  C58      1.0000 0.50800  0.31300  0.38570  Biso   1.000  C
  C59      1.0000 0.52370  0.28500  0.31870  Biso   1.000  C
  C60      1.0000 0.54230  0.29560  0.22230  Biso   1.000  C
  H26      1.0000 0.55340  0.27640  0.17650  Biso   1.000  H
  C61      1.0000 0.54480  0.33350  0.19180  Biso   1.000  C
  H27      1.0000 0.55720  0.34020  0.12430  Biso   1.000  H
  C62      1.0000 0.48750  0.30370  0.48530  Biso   1.000  C
  C63      1.0000 0.52020  0.24330  0.34050  Biso   1.000  C
  C64      1.0000 0.55080  0.22140  0.37950  Biso   1.000  C
  C65      1.0000 0.54560  0.18230  0.39210  Biso   1.000  C
  H28      1.0000 0.56670  0.16770  0.41820  Biso   1.000  H
  C66      1.0000 0.51300  0.16330  0.37040  Biso   1.000  C
  C67      1.0000 0.48190  0.18390  0.33180  Biso   1.000  C
  H29      1.0000 0.45830  0.17140  0.31750  Biso   1.000  H
  C68      1.0000 0.48570  0.22390  0.31360  Biso   1.000  C
  H30      1.0000 0.46480  0.23780  0.28300  Biso   1.000  H
  C69      1.0000 0.58710  0.23840  0.40890  Biso   1.000  C
  C70      1.0000 0.50980  0.12200  0.38900  Biso   1.000  C
  F43      1.0000 0.44080  0.27110  0.37400  Biso   1.000  F
  F44      1.0000 0.41840  0.22450  0.28300  Biso   1.000  F
  F45      1.0000 0.44990  0.26740  0.20100  Biso   1.000  F
  H31      1.0000 0.49520  0.30650  0.45260  Biso   1.000  H
  H32      1.0000 0.57460  0.23300  0.39700  Biso   1.000  H
  C71      1.0000 0.45110  0.24560  0.29400  Biso   1.000  C
  F46      1.0000 0.53000  0.23600  0.14300  Biso   1.000  F
  C72      1.0000 0.55400  0.26550  0.14400  Biso   1.000  C
  F47      1.0000 0.58800  0.25100  0.16500  Biso   1.000  F
  F48      1.0000 0.55500  0.27700  0.03900  Biso   1.000  F
  F49      1.0000 0.83300  0.98030  0.44660  Biso   1.000  F
  F50      1.0000 0.78960  0.95180  0.53620  Biso   1.000  F
  F51      1.0000 0.77660  0.00270  0.45230  Biso   1.000  F
  F52      1.0000 0.77143  0.08670  0.53330  Biso   1.000  F
  F53      1.0000 0.74800  0.10970  0.67850  Biso   1.000  F
  F54      1.0000 0.71610  0.11120  0.53060  Biso   1.000  F
  O25      1.0000 0.90944  0.05377  0.86130  Biso   1.000  O
  O26      1.0000 0.92578  0.00720  0.73950  Biso   1.000  O
  O27      1.0000 0.60562  0.03976  0.57240  Biso   1.000  O
  O28      1.0000 0.60529  0.97850  0.63040  Biso   1.000  O
  O29      1.0000 0.01047  0.05850  0.04380  Biso   1.000  O
  O30      1.0000 0.96537  0.01349  0.14100  Biso   1.000  O
  C73      1.0000 0.90220  0.03160  0.78390  Biso   1.000  C
  C74      1.0000 0.86120  0.03000  0.74370  Biso   1.000  C
  C75      1.0000 0.85120  0.01150  0.64800  Biso   1.000  C
  H33      1.0000 0.87080  0.00070  0.60310  Biso   1.000  H
  C76      1.0000 0.81300  0.00800  0.61430  Biso   1.000  C
  C77      1.0000 0.78500  0.02370  0.68130  Biso   1.000  C
  C78      1.0000 0.79560  0.04230  0.77770  Biso   1.000  C
  H34      1.0000 0.77640  0.05340  0.82350  Biso   1.000  H
  C79      1.0000 0.83350  0.04480  0.80820  Biso   1.000  C
  H35      1.0000 0.84020  0.05720  0.87570  Biso   1.000  H
  C80      1.0000 0.80370  0.98750  0.51470  Biso   1.000  C
  C81      1.0000 0.74330  0.02020  0.65950  Biso   1.000  C
  C82      1.0000 0.72140  0.05080  0.62050  Biso   1.000  C
  C83      1.0000 0.68230  0.04560  0.60790  Biso   1.000  C
  H36      1.0000 0.66770  0.06670  0.58180  Biso   1.000  H
  C84      1.0000 0.66330  0.01300  0.62960  Biso   1.000  C
  C85      1.0000 0.68390  0.98190  0.66820  Biso   1.000  C
  H37      1.0000 0.67140  0.95830  0.68250  Biso   1.000  H
  C86      1.0000 0.72390  0.98570  0.68640  Biso   1.000  C
  H38      1.0000 0.73780  0.96480  0.71700  Biso   1.000  H
  C87      1.0000 0.73840  0.08710  0.59110  Biso   1.000  C
  C88      1.0000 0.62200  0.00980  0.61100  Biso   1.000  C
  F55      1.0000 0.77110  0.94080  0.62600  Biso   1.000  F
  F56      1.0000 0.72450  0.91840  0.71700  Biso   1.000  F
  F57      1.0000 0.76740  0.94990  0.79900  Biso   1.000  F
  H39      1.0000 0.80650  0.99520  0.54740  Biso   1.000  H
  H40      1.0000 0.73300  0.07460  0.60300  Biso   1.000  H
  C89      1.0000 0.74560  0.95110  0.70600  Biso   1.000  C
  F58      1.0000 0.73600  0.03000  0.85700  Biso   1.000  F
  C90      1.0000 0.76550  0.05400  0.85600  Biso   1.000  C
  F59      1.0000 0.75100  0.08800  0.83500  Biso   1.000  F
  F60      1.0000 0.77700  0.05500  0.96100  Biso   1.000  F
  F61      1.0000 0.66700  0.51970  0.44660  Biso   1.000  F
  F62      1.0000 0.71040  0.54820  0.53620  Biso   1.000  F
  F63      1.0000 0.72340  0.49730  0.45230  Biso   1.000  F
  F64      1.0000 0.72857  0.41330  0.53330  Biso   1.000  F
  F65      1.0000 0.75200  0.39030  0.67850  Biso   1.000  F
  F66      1.0000 0.78390  0.38880  0.53060  Biso   1.000  F
  O31      1.0000 0.59056  0.44623  0.86130  Biso   1.000  O
  O32      1.0000 0.57422  0.49280  0.73950  Biso   1.000  O
  O33      1.0000 0.89438  0.46024  0.57240  Biso   1.000  O
  O34      1.0000 0.89471  0.52150  0.63040  Biso   1.000  O
  O35      1.0000 0.48953  0.44150  0.04380  Biso   1.000  O
  O36      1.0000 0.53463  0.48651  0.14100  Biso   1.000  O
  C91      1.0000 0.59780  0.46840  0.78390  Biso   1.000  C
  C92      1.0000 0.63880  0.47000  0.74370  Biso   1.000  C
  C93      1.0000 0.64880  0.48850  0.64800  Biso   1.000  C
  H41      1.0000 0.62920  0.49930  0.60310  Biso   1.000  H
  C94      1.0000 0.68700  0.49200  0.61430  Biso   1.000  C
  C95      1.0000 0.71500  0.47630  0.68130  Biso   1.000  C
  C96      1.0000 0.70440  0.45770  0.77770  Biso   1.000  C
  H42      1.0000 0.72360  0.44660  0.82350  Biso   1.000  H
  C97      1.0000 0.66650  0.45520  0.80820  Biso   1.000  C
  H43      1.0000 0.65980  0.44280  0.87570  Biso   1.000  H
  C98      1.0000 0.69630  0.51250  0.51470  Biso   1.000  C
  C99      1.0000 0.75670  0.47980  0.65950  Biso   1.000  C
  C100     1.0000 0.77860  0.44920  0.62050  Biso   1.000  C
  C101     1.0000 0.81770  0.45440  0.60790  Biso   1.000  C
  H44      1.0000 0.83230  0.43330  0.58180  Biso   1.000  H
  C102     1.0000 0.83670  0.48700  0.62960  Biso   1.000  C
  C103     1.0000 0.81610  0.51810  0.66820  Biso   1.000  C
  H45      1.0000 0.82860  0.54170  0.68250  Biso   1.000  H
  C104     1.0000 0.77610  0.51430  0.68640  Biso   1.000  C
  H46      1.0000 0.76220  0.53520  0.71700  Biso   1.000  H
  C105     1.0000 0.76160  0.41290  0.59110  Biso   1.000  C
  C106     1.0000 0.87800  0.49020  0.61100  Biso   1.000  C
  F67      1.0000 0.72890  0.55920  0.62600  Biso   1.000  F
  F68      1.0000 0.77550  0.58160  0.71700  Biso   1.000  F
  F69      1.0000 0.73260  0.55010  0.79900  Biso   1.000  F
  H47      1.0000 0.69350  0.50480  0.54740  Biso   1.000  H
  H48      1.0000 0.76700  0.42540  0.60300  Biso   1.000  H
  C107     1.0000 0.75440  0.54890  0.70600  Biso   1.000  C
  F70      1.0000 0.76400  0.47000  0.85700  Biso   1.000  F
  C108     1.0000 0.73450  0.44600  0.85600  Biso   1.000  C
  F71      1.0000 0.74900  0.41200  0.83500  Biso   1.000  F
  F72      1.0000 0.72300  0.44500  0.96100  Biso   1.000  F
  F73      1.0000 0.98030  0.66700  0.94660  Biso   1.000  F
  F74      1.0000 0.95180  0.71040  0.03620  Biso   1.000  F
  F75      1.0000 0.00270  0.72340  0.95230  Biso   1.000  F
  F76      1.0000 0.08670  0.72857  0.03330  Biso   1.000  F
  F77      1.0000 0.10970  0.75200  0.17850  Biso   1.000  F
  F78      1.0000 0.11120  0.78390  0.03060  Biso   1.000  F
  O37      1.0000 0.05377  0.59056  0.36130  Biso   1.000  O
  O38      1.0000 0.00720  0.57422  0.23950  Biso   1.000  O
  O39      1.0000 0.03976  0.89438  0.07240  Biso   1.000  O
  O40      1.0000 0.97850  0.89471  0.13040  Biso   1.000  O
  O41      1.0000 0.05850  0.48953  0.54380  Biso   1.000  O
  O42      1.0000 0.01349  0.53463  0.64100  Biso   1.000  O
  C109     1.0000 0.03160  0.59780  0.28390  Biso   1.000  C
  C110     1.0000 0.03000  0.63880  0.24370  Biso   1.000  C
  C111     1.0000 0.01150  0.64880  0.14800  Biso   1.000  C
  H49      1.0000 0.00070  0.62920  0.10310  Biso   1.000  H
  C112     1.0000 0.00800  0.68700  0.11430  Biso   1.000  C
  C113     1.0000 0.02370  0.71500  0.18130  Biso   1.000  C
  C114     1.0000 0.04230  0.70440  0.27770  Biso   1.000  C
  H50      1.0000 0.05340  0.72360  0.32350  Biso   1.000  H
  C115     1.0000 0.04480  0.66650  0.30820  Biso   1.000  C
  H51      1.0000 0.05720  0.65980  0.37570  Biso   1.000  H
  C116     1.0000 0.98750  0.69630  0.01470  Biso   1.000  C
  C117     1.0000 0.02020  0.75670  0.15950  Biso   1.000  C
  C118     1.0000 0.05080  0.77860  0.12050  Biso   1.000  C
  C119     1.0000 0.04560  0.81770  0.10790  Biso   1.000  C
  H52      1.0000 0.06670  0.83230  0.08180  Biso   1.000  H
  C120     1.0000 0.01300  0.83670  0.12960  Biso   1.000  C
  C121     1.0000 0.98190  0.81610  0.16820  Biso   1.000  C
  H53      1.0000 0.95830  0.82860  0.18250  Biso   1.000  H
  C122     1.0000 0.98570  0.77610  0.18640  Biso   1.000  C
  H54      1.0000 0.96480  0.76220  0.21700  Biso   1.000  H
  C123     1.0000 0.08710  0.76160  0.09110  Biso   1.000  C
  C124     1.0000 0.00980  0.87800  0.11100  Biso   1.000  C
  F79      1.0000 0.94080  0.72890  0.12600  Biso   1.000  F
  F80      1.0000 0.91840  0.77550  0.21700  Biso   1.000  F
  F81      1.0000 0.94990  0.73260  0.29900  Biso   1.000  F
  H55      1.0000 0.99520  0.69350  0.04740  Biso   1.000  H
  H56      1.0000 0.07460  0.76700  0.10300  Biso   1.000  H
  C125     1.0000 0.95110  0.75440  0.20600  Biso   1.000  C
  F82      1.0000 0.03000  0.76400  0.35700  Biso   1.000  F
  C126     1.0000 0.05400  0.73450  0.35600  Biso   1.000  C
  F83      1.0000 0.08800  0.74900  0.33500  Biso   1.000  F
  F84      1.0000 0.05500  0.72300  0.46100  Biso   1.000  F
  F85      1.0000 0.51970  0.83300  0.94660  Biso   1.000  F
  F86      1.0000 0.54820  0.78960  0.03620  Biso   1.000  F
  F87      1.0000 0.49730  0.77660  0.95230  Biso   1.000  F
  F88      1.0000 0.41330  0.77143  0.03330  Biso   1.000  F
  F89      1.0000 0.39030  0.74800  0.17850  Biso   1.000  F
  F90      1.0000 0.38880  0.71610  0.03060  Biso   1.000  F
  O43      1.0000 0.44623  0.90944  0.36130  Biso   1.000  O
  O44      1.0000 0.49280  0.92578  0.23950  Biso   1.000  O
  O45      1.0000 0.46024  0.60562  0.07240  Biso   1.000  O
  O46      1.0000 0.52150  0.60529  0.13040  Biso   1.000  O
  O47      1.0000 0.44150  0.01047  0.54380  Biso   1.000  O
  O48      1.0000 0.48651  0.96537  0.64100  Biso   1.000  O
  C127     1.0000 0.46840  0.90220  0.28390  Biso   1.000  C
  C128     1.0000 0.47000  0.86120  0.24370  Biso   1.000  C
  C129     1.0000 0.48850  0.85120  0.14800  Biso   1.000  C
  H57      1.0000 0.49930  0.87080  0.10310  Biso   1.000  H
  C130     1.0000 0.49200  0.81300  0.11430  Biso   1.000  C
  C131     1.0000 0.47630  0.78500  0.18130  Biso   1.000  C
  C132     1.0000 0.45770  0.79560  0.27770  Biso   1.000  C
  H58      1.0000 0.44660  0.77640  0.32350  Biso   1.000  H
  C133     1.0000 0.45520  0.83350  0.30820  Biso   1.000  C
  H59      1.0000 0.44280  0.84020  0.37570  Biso   1.000  H
  C134     1.0000 0.51250  0.80370  0.01470  Biso   1.000  C
  C135     1.0000 0.47980  0.74330  0.15950  Biso   1.000  C
  C136     1.0000 0.44920  0.72140  0.12050  Biso   1.000  C
  C137     1.0000 0.45440  0.68230  0.10790  Biso   1.000  C
  H60      1.0000 0.43330  0.66770  0.08180  Biso   1.000  H
  C138     1.0000 0.48700  0.66330  0.12960  Biso   1.000  C
  C139     1.0000 0.51810  0.68390  0.16820  Biso   1.000  C
  H61      1.0000 0.54170  0.67140  0.18250  Biso   1.000  H
  C140     1.0000 0.51430  0.72390  0.18640  Biso   1.000  C
  H62      1.0000 0.53520  0.73780  0.21700  Biso   1.000  H
  C141     1.0000 0.41290  0.73840  0.09110  Biso   1.000  C
  C142     1.0000 0.49020  0.62200  0.11100  Biso   1.000  C
  F91      1.0000 0.55920  0.77110  0.12600  Biso   1.000  F
  F92      1.0000 0.58160  0.72450  0.21700  Biso   1.000  F
  F93      1.0000 0.55010  0.76740  0.29900  Biso   1.000  F
  H63      1.0000 0.50480  0.80650  0.04740  Biso   1.000  H
  H64      1.0000 0.42540  0.73300  0.10300  Biso   1.000  H
  C143     1.0000 0.54890  0.74560  0.20600  Biso   1.000  C
  F94      1.0000 0.47000  0.73600  0.35700  Biso   1.000  F
  C144     1.0000 0.44600  0.76550  0.35600  Biso   1.000  C
  F95      1.0000 0.41200  0.75100  0.33500  Biso   1.000  F
  F96      1.0000 0.44500  0.77700  0.46100  Biso   1.000  F
  F97      1.0000 0.83300  0.51970  0.94660  Biso   1.000  F
  F98      1.0000 0.78960  0.54820  0.03620  Biso   1.000  F
  F99      1.0000 0.77660  0.49730  0.95230  Biso   1.000  F
  F100     1.0000 0.77143  0.41330  0.03330  Biso   1.000  F
  F101     1.0000 0.74800  0.39030  0.17850  Biso   1.000  F
  F102     1.0000 0.71610  0.38880  0.03060  Biso   1.000  F
  O49      1.0000 0.90944  0.44623  0.36130  Biso   1.000  O
  O50      1.0000 0.92578  0.49280  0.23950  Biso   1.000  O
  O51      1.0000 0.60562  0.46024  0.07240  Biso   1.000  O
  O52      1.0000 0.60529  0.52150  0.13040  Biso   1.000  O
  O53      1.0000 0.01047  0.44150  0.54380  Biso   1.000  O
  O54      1.0000 0.96537  0.48651  0.64100  Biso   1.000  O
  C145     1.0000 0.90220  0.46840  0.28390  Biso   1.000  C
  C146     1.0000 0.86120  0.47000  0.24370  Biso   1.000  C
  C147     1.0000 0.85120  0.48850  0.14800  Biso   1.000  C
  H65      1.0000 0.87080  0.49930  0.10310  Biso   1.000  H
  C148     1.0000 0.81300  0.49200  0.11430  Biso   1.000  C
  C149     1.0000 0.78500  0.47630  0.18130  Biso   1.000  C
  C150     1.0000 0.79560  0.45770  0.27770  Biso   1.000  C
  H66      1.0000 0.77640  0.44660  0.32350  Biso   1.000  H
  C151     1.0000 0.83350  0.45520  0.30820  Biso   1.000  C
  H67      1.0000 0.84020  0.44280  0.37570  Biso   1.000  H
  C152     1.0000 0.80370  0.51250  0.01470  Biso   1.000  C
  C153     1.0000 0.74330  0.47980  0.15950  Biso   1.000  C
  C154     1.0000 0.72140  0.44920  0.12050  Biso   1.000  C
  C155     1.0000 0.68230  0.45440  0.10790  Biso   1.000  C
  H68      1.0000 0.66770  0.43330  0.08180  Biso   1.000  H
  C156     1.0000 0.66330  0.48700  0.12960  Biso   1.000  C
  C157     1.0000 0.68390  0.51810  0.16820  Biso   1.000  C
  H69      1.0000 0.67140  0.54170  0.18250  Biso   1.000  H
  C158     1.0000 0.72390  0.51430  0.18640  Biso   1.000  C
  H70      1.0000 0.73780  0.53520  0.21700  Biso   1.000  H
  C159     1.0000 0.73840  0.41290  0.09110  Biso   1.000  C
  C160     1.0000 0.62200  0.49020  0.11100  Biso   1.000  C
  F103     1.0000 0.77110  0.55920  0.12600  Biso   1.000  F
  F104     1.0000 0.72450  0.58160  0.21700  Biso   1.000  F
  F105     1.0000 0.76740  0.55010  0.29900  Biso   1.000  F
  H71      1.0000 0.80650  0.50480  0.04740  Biso   1.000  H
  H72      1.0000 0.73300  0.42540  0.10300  Biso   1.000  H
  C161     1.0000 0.74560  0.54890  0.20600  Biso   1.000  C
  F106     1.0000 0.73600  0.47000  0.35700  Biso   1.000  F
  C162     1.0000 0.76550  0.44600  0.35600  Biso   1.000  C
  F107     1.0000 0.75100  0.41200  0.33500  Biso   1.000  F
  F108     1.0000 0.77700  0.44500  0.46100  Biso   1.000  F
  F109     1.0000 0.66700  0.98030  0.94660  Biso   1.000  F
  F110     1.0000 0.71040  0.95180  0.03620  Biso   1.000  F
  F111     1.0000 0.72340  0.00270  0.95230  Biso   1.000  F
  F112     1.0000 0.72857  0.08670  0.03330  Biso   1.000  F
  F113     1.0000 0.75200  0.10970  0.17850  Biso   1.000  F
  F114     1.0000 0.78390  0.11120  0.03060  Biso   1.000  F
  O55      1.0000 0.59056  0.05377  0.36130  Biso   1.000  O
  O56      1.0000 0.57422  0.00720  0.23950  Biso   1.000  O
  O57      1.0000 0.89438  0.03976  0.07240  Biso   1.000  O
  O58      1.0000 0.89471  0.97850  0.13040  Biso   1.000  O
  O59      1.0000 0.48953  0.05850  0.54380  Biso   1.000  O
  O60      1.0000 0.53463  0.01349  0.64100  Biso   1.000  O
  C163     1.0000 0.59780  0.03160  0.28390  Biso   1.000  C
  C164     1.0000 0.63880  0.03000  0.24370  Biso   1.000  C
  C165     1.0000 0.64880  0.01150  0.14800  Biso   1.000  C
  H73      1.0000 0.62920  0.00070  0.10310  Biso   1.000  H
  C166     1.0000 0.68700  0.00800  0.11430  Biso   1.000  C
  C167     1.0000 0.71500  0.02370  0.18130  Biso   1.000  C
  C168     1.0000 0.70440  0.04230  0.27770  Biso   1.000  C
  H74      1.0000 0.72360  0.05340  0.32350  Biso   1.000  H
  C169     1.0000 0.66650  0.04480  0.30820  Biso   1.000  C
  H75      1.0000 0.65980  0.05720  0.37570  Biso   1.000  H
  C170     1.0000 0.69630  0.98750  0.01470  Biso   1.000  C
  C171     1.0000 0.75670  0.02020  0.15950  Biso   1.000  C
  C172     1.0000 0.77860  0.05080  0.12050  Biso   1.000  C
  C173     1.0000 0.81770  0.04560  0.10790  Biso   1.000  C
  H76      1.0000 0.83230  0.06670  0.08180  Biso   1.000  H
  C174     1.0000 0.83670  0.01300  0.12960  Biso   1.000  C
  C175     1.0000 0.81610  0.98190  0.16820  Biso   1.000  C
  H77      1.0000 0.82860  0.95830  0.18250  Biso   1.000  H
  C176     1.0000 0.77610  0.98570  0.18640  Biso   1.000  C
  H78      1.0000 0.76220  0.96480  0.21700  Biso   1.000  H
  C177     1.0000 0.76160  0.08710  0.09110  Biso   1.000  C
  C178     1.0000 0.87800  0.00980  0.11100  Biso   1.000  C
  F115     1.0000 0.72890  0.94080  0.12600  Biso   1.000  F
  F116     1.0000 0.77550  0.91840  0.21700  Biso   1.000  F
  F117     1.0000 0.73260  0.94990  0.29900  Biso   1.000  F
  H79      1.0000 0.69350  0.99520  0.04740  Biso   1.000  H
  H80      1.0000 0.76700  0.07460  0.10300  Biso   1.000  H
  C179     1.0000 0.75440  0.95110  0.20600  Biso   1.000  C
  F118     1.0000 0.76400  0.03000  0.35700  Biso   1.000  F
  C180     1.0000 0.73450  0.05400  0.35600  Biso   1.000  C
  F119     1.0000 0.74900  0.08800  0.33500  Biso   1.000  F
  F120     1.0000 0.72300  0.05500  0.46100  Biso   1.000  F
  F121     1.0000 0.98030  0.83300  0.44660  Biso   1.000  F
  F122     1.0000 0.95180  0.78960  0.53620  Biso   1.000  F
  F123     1.0000 0.00270  0.77660  0.45230  Biso   1.000  F
  F124     1.0000 0.08670  0.77143  0.53330  Biso   1.000  F
  F125     1.0000 0.10970  0.74800  0.67850  Biso   1.000  F
  F126     1.0000 0.11120  0.71610  0.53060  Biso   1.000  F
  O61      1.0000 0.05377  0.90944  0.86130  Biso   1.000  O
  O62      1.0000 0.00720  0.92578  0.73950  Biso   1.000  O
  O63      1.0000 0.03976  0.60562  0.57240  Biso   1.000  O
  O64      1.0000 0.97850  0.60529  0.63040  Biso   1.000  O
  O65      1.0000 0.05850  0.01047  0.04380  Biso   1.000  O
  O66      1.0000 0.01349  0.96537  0.14100  Biso   1.000  O
  C181     1.0000 0.03160  0.90220  0.78390  Biso   1.000  C
  C182     1.0000 0.03000  0.86120  0.74370  Biso   1.000  C
  C183     1.0000 0.01150  0.85120  0.64800  Biso   1.000  C
  H81      1.0000 0.00070  0.87080  0.60310  Biso   1.000  H
  C184     1.0000 0.00800  0.81300  0.61430  Biso   1.000  C
  C185     1.0000 0.02370  0.78500  0.68130  Biso   1.000  C
  C186     1.0000 0.04230  0.79560  0.77770  Biso   1.000  C
  H82      1.0000 0.05340  0.77640  0.82350  Biso   1.000  H
  C187     1.0000 0.04480  0.83350  0.80820  Biso   1.000  C
  H83      1.0000 0.05720  0.84020  0.87570  Biso   1.000  H
  C188     1.0000 0.98750  0.80370  0.51470  Biso   1.000  C
  C189     1.0000 0.02020  0.74330  0.65950  Biso   1.000  C
  C190     1.0000 0.05080  0.72140  0.62050  Biso   1.000  C
  C191     1.0000 0.04560  0.68230  0.60790  Biso   1.000  C
  H84      1.0000 0.06670  0.66770  0.58180  Biso   1.000  H
  C192     1.0000 0.01300  0.66330  0.62960  Biso   1.000  C
  C193     1.0000 0.98190  0.68390  0.66820  Biso   1.000  C
  H85      1.0000 0.95830  0.67140  0.68250  Biso   1.000  H
  C194     1.0000 0.98570  0.72390  0.68640  Biso   1.000  C
  H86      1.0000 0.96480  0.73780  0.71700  Biso   1.000  H
  C195     1.0000 0.08710  0.73840  0.59110  Biso   1.000  C
  C196     1.0000 0.00980  0.62200  0.61100  Biso   1.000  C
  F127     1.0000 0.94080  0.77110  0.62600  Biso   1.000  F
  F128     1.0000 0.91840  0.72450  0.71700  Biso   1.000  F
  F129     1.0000 0.94990  0.76740  0.79900  Biso   1.000  F
  H87      1.0000 0.99520  0.80650  0.54740  Biso   1.000  H
  H88      1.0000 0.07460  0.73300  0.60300  Biso   1.000  H
  C197     1.0000 0.95110  0.74560  0.70600  Biso   1.000  C
  F130     1.0000 0.03000  0.73600  0.85700  Biso   1.000  F
  C198     1.0000 0.05400  0.76550  0.85600  Biso   1.000  C
  F131     1.0000 0.08800  0.75100  0.83500  Biso   1.000  F
  F132     1.0000 0.05500  0.77700  0.96100  Biso   1.000  F
  F133     1.0000 0.51970  0.66700  0.44660  Biso   1.000  F
  F134     1.0000 0.54820  0.71040  0.53620  Biso   1.000  F
  F135     1.0000 0.49730  0.72340  0.45230  Biso   1.000  F
  F136     1.0000 0.41330  0.72857  0.53330  Biso   1.000  F
  F137     1.0000 0.39030  0.75200  0.67850  Biso   1.000  F
  F138     1.0000 0.38880  0.78390  0.53060  Biso   1.000  F
  O67      1.0000 0.44623  0.59056  0.86130  Biso   1.000  O
  O68      1.0000 0.49280  0.57422  0.73950  Biso   1.000  O
  O69      1.0000 0.46024  0.89438  0.57240  Biso   1.000  O
  O70      1.0000 0.52150  0.89471  0.63040  Biso   1.000  O
  O71      1.0000 0.44150  0.48953  0.04380  Biso   1.000  O
  O72      1.0000 0.48651  0.53463  0.14100  Biso   1.000  O
  C199     1.0000 0.46840  0.59780  0.78390  Biso   1.000  C
  C200     1.0000 0.47000  0.63880  0.74370  Biso   1.000  C
  C201     1.0000 0.48850  0.64880  0.64800  Biso   1.000  C
  H89      1.0000 0.49930  0.62920  0.60310  Biso   1.000  H
  C202     1.0000 0.49200  0.68700  0.61430  Biso   1.000  C
  C203     1.0000 0.47630  0.71500  0.68130  Biso   1.000  C
  C204     1.0000 0.45770  0.70440  0.77770  Biso   1.000  C
  H90      1.0000 0.44660  0.72360  0.82350  Biso   1.000  H
  C205     1.0000 0.45520  0.66650  0.80820  Biso   1.000  C
  H91      1.0000 0.44280  0.65980  0.87570  Biso   1.000  H
  C206     1.0000 0.51250  0.69630  0.51470  Biso   1.000  C
  C207     1.0000 0.47980  0.75670  0.65950  Biso   1.000  C
  C208     1.0000 0.44920  0.77860  0.62050  Biso   1.000  C
  C209     1.0000 0.45440  0.81770  0.60790  Biso   1.000  C
  H92      1.0000 0.43330  0.83230  0.58180  Biso   1.000  H
  C210     1.0000 0.48700  0.83670  0.62960  Biso   1.000  C
  C211     1.0000 0.51810  0.81610  0.66820  Biso   1.000  C
  H93      1.0000 0.54170  0.82860  0.68250  Biso   1.000  H
  C212     1.0000 0.51430  0.77610  0.68640  Biso   1.000  C
  H94      1.0000 0.53520  0.76220  0.71700  Biso   1.000  H
  C213     1.0000 0.41290  0.76160  0.59110  Biso   1.000  C
  C214     1.0000 0.49020  0.87800  0.61100  Biso   1.000  C
  F139     1.0000 0.55920  0.72890  0.62600  Biso   1.000  F
  F140     1.0000 0.58160  0.77550  0.71700  Biso   1.000  F
  F141     1.0000 0.55010  0.73260  0.79900  Biso   1.000  F
  H95      1.0000 0.50480  0.69350  0.54740  Biso   1.000  H
  H96      1.0000 0.42540  0.76700  0.60300  Biso   1.000  H
  C215     1.0000 0.54890  0.75440  0.70600  Biso   1.000  C
  F142     1.0000 0.47000  0.76400  0.85700  Biso   1.000  F
  C216     1.0000 0.44600  0.73450  0.85600  Biso   1.000  C
  F143     1.0000 0.41200  0.74900  0.83500  Biso   1.000  F
  F144     1.0000 0.44500  0.72300  0.96100  Biso   1.000  F
  F145     1.0000 0.16700  0.01970  0.55340  Biso   1.000  F
  F146     1.0000 0.21040  0.04820  0.46380  Biso   1.000  F
  F147     1.0000 0.22340  0.99730  0.54770  Biso   1.000  F
  F148     1.0000 0.22857  0.91330  0.46670  Biso   1.000  F
  F149     1.0000 0.25200  0.89030  0.32150  Biso   1.000  F
  F150     1.0000 0.28390  0.88880  0.46940  Biso   1.000  F
  O73      1.0000 0.09056  0.94623  0.13870  Biso   1.000  O
  O74      1.0000 0.07422  0.99280  0.26050  Biso   1.000  O
  O75      1.0000 0.39438  0.96024  0.42760  Biso   1.000  O
  O76      1.0000 0.39471  0.02150  0.36960  Biso   1.000  O
  O77      1.0000 0.98953  0.94150  0.95620  Biso   1.000  O
  O78      1.0000 0.03463  0.98651  0.85900  Biso   1.000  O
  C217     1.0000 0.09780  0.96840  0.21610  Biso   1.000  C
  C218     1.0000 0.13880  0.97000  0.25630  Biso   1.000  C
  C219     1.0000 0.14880  0.98850  0.35200  Biso   1.000  C
  H97      1.0000 0.12920  0.99930  0.39690  Biso   1.000  H
  C220     1.0000 0.18700  0.99200  0.38570  Biso   1.000  C
  C221     1.0000 0.21500  0.97630  0.31870  Biso   1.000  C
  C222     1.0000 0.20440  0.95770  0.22230  Biso   1.000  C
  H98      1.0000 0.22360  0.94660  0.17650  Biso   1.000  H
  C223     1.0000 0.16650  0.95520  0.19180  Biso   1.000  C
  H99      1.0000 0.15980  0.94280  0.12430  Biso   1.000  H
  C224     1.0000 0.19630  0.01250  0.48530  Biso   1.000  C
  C225     1.0000 0.25670  0.97980  0.34050  Biso   1.000  C
  C226     1.0000 0.27860  0.94920  0.37950  Biso   1.000  C
  C227     1.0000 0.31770  0.95440  0.39210  Biso   1.000  C
  H100     1.0000 0.33230  0.93330  0.41820  Biso   1.000  H
  C228     1.0000 0.33670  0.98700  0.37040  Biso   1.000  C
  C229     1.0000 0.31610  0.01810  0.33180  Biso   1.000  C
  H101     1.0000 0.32860  0.04170  0.31750  Biso   1.000  H
  C230     1.0000 0.27610  0.01430  0.31360  Biso   1.000  C
  H102     1.0000 0.26220  0.03520  0.28300  Biso   1.000  H
  C231     1.0000 0.26160  0.91290  0.40890  Biso   1.000  C
  C232     1.0000 0.37800  0.99020  0.38900  Biso   1.000  C
  F151     1.0000 0.22890  0.05920  0.37400  Biso   1.000  F
  F152     1.0000 0.27550  0.08160  0.28300  Biso   1.000  F
  F153     1.0000 0.23260  0.05010  0.20100  Biso   1.000  F
  H103     1.0000 0.19350  0.00480  0.45260  Biso   1.000  H
  H104     1.0000 0.26700  0.92540  0.39700  Biso   1.000  H
  C233     1.0000 0.25440  0.04890  0.29400  Biso   1.000  C
  F154     1.0000 0.26400  0.97000  0.14300  Biso   1.000  F
  C234     1.0000 0.23450  0.94600  0.14400  Biso   1.000  C
  F155     1.0000 0.24900  0.91200  0.16500  Biso   1.000  F
  F156     1.0000 0.22300  0.94500  0.03900  Biso   1.000  F
  F157     1.0000 0.33300  0.48030  0.55340  Biso   1.000  F
  F158     1.0000 0.28960  0.45180  0.46380  Biso   1.000  F
  F159     1.0000 0.27660  0.50270  0.54770  Biso   1.000  F
  F160     1.0000 0.27143  0.58670  0.46670  Biso   1.000  F
  F161     1.0000 0.24800  0.60970  0.32150  Biso   1.000  F
  F162     1.0000 0.21610  0.61120  0.46940  Biso   1.000  F
  O79      1.0000 0.40944  0.55377  0.13870  Biso   1.000  O
  O80      1.0000 0.42578  0.50720  0.26050  Biso   1.000  O
  O81      1.0000 0.10562  0.53976  0.42760  Biso   1.000  O
  O82      1.0000 0.10529  0.47850  0.36960  Biso   1.000  O
  O83      1.0000 0.51047  0.55850  0.95620  Biso   1.000  O
  O84      1.0000 0.46537  0.51349  0.85900  Biso   1.000  O
  C235     1.0000 0.40220  0.53160  0.21610  Biso   1.000  C
  C236     1.0000 0.36120  0.53000  0.25630  Biso   1.000  C
  C237     1.0000 0.35120  0.51150  0.35200  Biso   1.000  C
  H105     1.0000 0.37080  0.50070  0.39690  Biso   1.000  H
  C238     1.0000 0.31300  0.50800  0.38570  Biso   1.000  C
  C239     1.0000 0.28500  0.52370  0.31870  Biso   1.000  C
  C240     1.0000 0.29560  0.54230  0.22230  Biso   1.000  C
  H106     1.0000 0.27640  0.55340  0.17650  Biso   1.000  H
  C241     1.0000 0.33350  0.54480  0.19180  Biso   1.000  C
  H107     1.0000 0.34020  0.55720  0.12430  Biso   1.000  H
  C242     1.0000 0.30370  0.48750  0.48530  Biso   1.000  C
  C243     1.0000 0.24330  0.52020  0.34050  Biso   1.000  C
  C244     1.0000 0.22140  0.55080  0.37950  Biso   1.000  C
  C245     1.0000 0.18230  0.54560  0.39210  Biso   1.000  C
  H108     1.0000 0.16770  0.56670  0.41820  Biso   1.000  H
  C246     1.0000 0.16330  0.51300  0.37040  Biso   1.000  C
  C247     1.0000 0.18390  0.48190  0.33180  Biso   1.000  C
  H109     1.0000 0.17140  0.45830  0.31750  Biso   1.000  H
  C248     1.0000 0.22390  0.48570  0.31360  Biso   1.000  C
  H110     1.0000 0.23780  0.46480  0.28300  Biso   1.000  H
  C249     1.0000 0.23840  0.58710  0.40890  Biso   1.000  C
  C250     1.0000 0.12200  0.50980  0.38900  Biso   1.000  C
  F163     1.0000 0.27110  0.44080  0.37400  Biso   1.000  F
  F164     1.0000 0.22450  0.41840  0.28300  Biso   1.000  F
  F165     1.0000 0.26740  0.44990  0.20100  Biso   1.000  F
  H111     1.0000 0.30650  0.49520  0.45260  Biso   1.000  H
  H112     1.0000 0.23300  0.57460  0.39700  Biso   1.000  H
  C251     1.0000 0.24560  0.45110  0.29400  Biso   1.000  C
  F166     1.0000 0.23600  0.53000  0.14300  Biso   1.000  F
  C252     1.0000 0.26550  0.55400  0.14400  Biso   1.000  C
  F167     1.0000 0.25100  0.58800  0.16500  Biso   1.000  F
  F168     1.0000 0.27700  0.55500  0.03900  Biso   1.000  F
  F169     1.0000 0.01970  0.33300  0.05340  Biso   1.000  F
  F170     1.0000 0.04820  0.28960  0.96380  Biso   1.000  F
  F171     1.0000 0.99730  0.27660  0.04770  Biso   1.000  F
  F172     1.0000 0.91330  0.27143  0.96670  Biso   1.000  F
  F173     1.0000 0.89030  0.24800  0.82150  Biso   1.000  F
  F174     1.0000 0.88880  0.21610  0.96940  Biso   1.000  F
  O85      1.0000 0.94623  0.40944  0.63870  Biso   1.000  O
  O86      1.0000 0.99280  0.42578  0.76050  Biso   1.000  O
  O87      1.0000 0.96024  0.10562  0.92760  Biso   1.000  O
  O88      1.0000 0.02150  0.10529  0.86960  Biso   1.000  O
  O89      1.0000 0.94150  0.51047  0.45620  Biso   1.000  O
  O90      1.0000 0.98651  0.46537  0.35900  Biso   1.000  O
  C253     1.0000 0.96840  0.40220  0.71610  Biso   1.000  C
  C254     1.0000 0.97000  0.36120  0.75630  Biso   1.000  C
  C255     1.0000 0.98850  0.35120  0.85200  Biso   1.000  C
  H113     1.0000 0.99930  0.37080  0.89690  Biso   1.000  H
  C256     1.0000 0.99200  0.31300  0.88570  Biso   1.000  C
  C257     1.0000 0.97630  0.28500  0.81870  Biso   1.000  C
  C258     1.0000 0.95770  0.29560  0.72230  Biso   1.000  C
  H114     1.0000 0.94660  0.27640  0.67650  Biso   1.000  H
  C259     1.0000 0.95520  0.33350  0.69180  Biso   1.000  C
  H115     1.0000 0.94280  0.34020  0.62430  Biso   1.000  H
  C260     1.0000 0.01250  0.30370  0.98530  Biso   1.000  C
  C261     1.0000 0.97980  0.24330  0.84050  Biso   1.000  C
  C262     1.0000 0.94920  0.22140  0.87950  Biso   1.000  C
  C263     1.0000 0.95440  0.18230  0.89210  Biso   1.000  C
  H116     1.0000 0.93330  0.16770  0.91820  Biso   1.000  H
  C264     1.0000 0.98700  0.16330  0.87040  Biso   1.000  C
  C265     1.0000 0.01810  0.18390  0.83180  Biso   1.000  C
  H117     1.0000 0.04170  0.17140  0.81750  Biso   1.000  H
  C266     1.0000 0.01430  0.22390  0.81360  Biso   1.000  C
  H118     1.0000 0.03520  0.23780  0.78300  Biso   1.000  H
  C267     1.0000 0.91290  0.23840  0.90890  Biso   1.000  C
  C268     1.0000 0.99020  0.12200  0.88900  Biso   1.000  C
  F175     1.0000 0.05920  0.27110  0.87400  Biso   1.000  F
  F176     1.0000 0.08160  0.22450  0.78300  Biso   1.000  F
  F177     1.0000 0.05010  0.26740  0.70100  Biso   1.000  F
  H119     1.0000 0.00480  0.30650  0.95260  Biso   1.000  H
  H120     1.0000 0.92540  0.23300  0.89700  Biso   1.000  H
  C269     1.0000 0.04890  0.24560  0.79400  Biso   1.000  C
  F178     1.0000 0.97000  0.23600  0.64300  Biso   1.000  F
  C270     1.0000 0.94600  0.26550  0.64400  Biso   1.000  C
  F179     1.0000 0.91200  0.25100  0.66500  Biso   1.000  F
  F180     1.0000 0.94500  0.27700  0.53900  Biso   1.000  F
  F181     1.0000 0.48030  0.16700  0.05340  Biso   1.000  F
  F182     1.0000 0.45180  0.21040  0.96380  Biso   1.000  F
  F183     1.0000 0.50270  0.22340  0.04770  Biso   1.000  F
  F184     1.0000 0.58670  0.22857  0.96670  Biso   1.000  F
  F185     1.0000 0.60970  0.25200  0.82150  Biso   1.000  F
  F186     1.0000 0.61120  0.28390  0.96940  Biso   1.000  F
  O91      1.0000 0.55377  0.09056  0.63870  Biso   1.000  O
  O92      1.0000 0.50720  0.07422  0.76050  Biso   1.000  O
  O93      1.0000 0.53976  0.39438  0.92760  Biso   1.000  O
  O94      1.0000 0.47850  0.39471  0.86960  Biso   1.000  O
  O95      1.0000 0.55850  0.98953  0.45620  Biso   1.000  O
  O96      1.0000 0.51349  0.03463  0.35900  Biso   1.000  O
  C271     1.0000 0.53160  0.09780  0.71610  Biso   1.000  C
  C272     1.0000 0.53000  0.13880  0.75630  Biso   1.000  C
  C273     1.0000 0.51150  0.14880  0.85200  Biso   1.000  C
  H121     1.0000 0.50070  0.12920  0.89690  Biso   1.000  H
  C274     1.0000 0.50800  0.18700  0.88570  Biso   1.000  C
  C275     1.0000 0.52370  0.21500  0.81870  Biso   1.000  C
  C276     1.0000 0.54230  0.20440  0.72230  Biso   1.000  C
  H122     1.0000 0.55340  0.22360  0.67650  Biso   1.000  H
  C277     1.0000 0.54480  0.16650  0.69180  Biso   1.000  C
  H123     1.0000 0.55720  0.15980  0.62430  Biso   1.000  H
  C278     1.0000 0.48750  0.19630  0.98530  Biso   1.000  C
  C279     1.0000 0.52020  0.25670  0.84050  Biso   1.000  C
  C280     1.0000 0.55080  0.27860  0.87950  Biso   1.000  C
  C281     1.0000 0.54560  0.31770  0.89210  Biso   1.000  C
  H124     1.0000 0.56670  0.33230  0.91820  Biso   1.000  H
  C282     1.0000 0.51300  0.33670  0.87040  Biso   1.000  C
  C283     1.0000 0.48190  0.31610  0.83180  Biso   1.000  C
  H125     1.0000 0.45830  0.32860  0.81750  Biso   1.000  H
  C284     1.0000 0.48570  0.27610  0.81360  Biso   1.000  C
  H126     1.0000 0.46480  0.26220  0.78300  Biso   1.000  H
  C285     1.0000 0.58710  0.26160  0.90890  Biso   1.000  C
  C286     1.0000 0.50980  0.37800  0.88900  Biso   1.000  C
  F187     1.0000 0.44080  0.22890  0.87400  Biso   1.000  F
  F188     1.0000 0.41840  0.27550  0.78300  Biso   1.000  F
  F189     1.0000 0.44990  0.23260  0.70100  Biso   1.000  F
  H127     1.0000 0.49520  0.19350  0.95260  Biso   1.000  H
  H128     1.0000 0.57460  0.26700  0.89700  Biso   1.000  H
  C287     1.0000 0.45110  0.25440  0.79400  Biso   1.000  C
  F190     1.0000 0.53000  0.26400  0.64300  Biso   1.000  F
  C288     1.0000 0.55400  0.23450  0.64400  Biso   1.000  C
  F191     1.0000 0.58800  0.24900  0.66500  Biso   1.000  F
  F192     1.0000 0.55500  0.22300  0.53900  Biso   1.000  F
  Zr1      1.0000 0.04973  0.54973  0.50000  Biso   1.000  Zr
  Zr2      1.0000 0.45027  0.95027  0.50000  Biso   1.000  Zr
  Zr3      1.0000 0.95027  0.04973  0.00000  Biso   1.000  Zr
  Zr4      1.0000 0.54973  0.45027  0.00000  Biso   1.000  Zr
  Zr5      1.0000 0.95027  0.45027  0.50000  Biso   1.000  Zr
  Zr6      1.0000 0.54973  0.04973  0.50000  Biso   1.000  Zr
  Zr7      1.0000 0.04973  0.95027  0.00000  Biso   1.000  Zr
  Zr8      1.0000 0.45027  0.54973  0.00000  Biso   1.000  Zr
  Zr9      1.0000 0.04510  0.45490  0.40498  Biso   1.000  Zr
  Zr10     1.0000 0.02315  0.47685  0.68417  Biso   1.000  Zr
  Zr11     1.0000 0.45490  0.04510  0.40498  Biso   1.000  Zr
  Zr12     1.0000 0.47685  0.02315  0.68417  Biso   1.000  Zr
  Zr13     1.0000 0.04510  0.04510  0.90498  Biso   1.000  Zr
  Zr14     1.0000 0.02315  0.02315  0.18417  Biso   1.000  Zr
  Zr15     1.0000 0.45490  0.45490  0.90498  Biso   1.000  Zr
  Zr16     1.0000 0.47685  0.47685  0.18417  Biso   1.000  Zr
  Zr17     1.0000 0.95490  0.95490  0.09502  Biso   1.000  Zr
  Zr18     1.0000 0.97685  0.97685  0.81583  Biso   1.000  Zr
  Zr19     1.0000 0.54510  0.54510  0.09502  Biso   1.000  Zr
  Zr20     1.0000 0.52315  0.52315  0.81583  Biso   1.000  Zr
  Zr21     1.0000 0.95490  0.54510  0.59502  Biso   1.000  Zr
  Zr22     1.0000 0.97685  0.52315  0.31583  Biso   1.000  Zr
  Zr23     1.0000 0.54510  0.95490  0.59502  Biso   1.000  Zr
  Zr24     1.0000 0.52315  0.97685  0.31583  Biso   1.000  Zr
