data_image0
_cell_length_a       27.249
_cell_length_b       27.42
_cell_length_c       25.189
_cell_angle_alpha    90
_cell_angle_beta     90
_cell_angle_gamma    90

_symmetry_space_group_name_H-M    "P 1"
_symmetry_int_tables_number       1

loop_
  _symmetry_equiv_pos_as_xyz
  'x, y, z'

loop_
  _atom_site_label
  _atom_site_occupancy
  _atom_site_fract_x
  _atom_site_fract_y
  _atom_site_fract_z
  _atom_site_thermal_displace_type
  _atom_site_B_iso_or_equiv
  _atom_site_type_symbol
  W1       1.0000 0.19158  0.81996  0.62329  Biso   1.000  W
  W2       1.0000 0.03685  0.88659  0.46567  Biso   1.000  W
  W3       1.0000 0.20742  0.76221  0.39150  Biso   1.000  W
  W4       1.0000 0.14602  0.93021  0.41937  Biso   1.000  W
  W5       1.0000 0.25612  0.75590  0.51486  Biso   1.000  W
  W6       1.0000 0.08919  0.71518  0.43969  Biso   1.000  W
  W7       1.0000 0.13756  0.70927  0.56367  Biso   1.000  W
  W8       1.0000 0.03234  0.77242  0.54265  Biso   1.000  W
  W9       1.0000 0.26024  0.86309  0.44661  Biso   1.000  W
  W10      1.0000 0.08614  0.88282  0.60168  Biso   1.000  W
  W11      1.0000 0.19633  0.92645  0.55583  Biso   1.000  W
  W12      1.0000 0.09440  0.82986  0.36378  Biso   1.000  W
  Co1      1.0000 0.90150  0.91062  0.47069  Biso   1.000  Co
  Co2      1.0000 0.25113  0.71621  0.25760  Biso   1.000  Co
  P1       1.0000 0.14452  0.82089  0.49435  Biso   1.000  P
  O1       1.0000 0.15270  0.84850  0.54650  Biso   1.000  O
  O2       1.0000 0.98040  0.91390  0.46400  Biso   1.000  O
  O3       1.0000 0.22590  0.73260  0.33530  Biso   1.000  O
  O4       1.0000 0.19460  0.80650  0.47090  Biso   1.000  O
  O5       1.0000 0.12420  0.89340  0.36080  Biso   1.000  O
  O6       1.0000 0.15610  0.72260  0.41540  Biso   1.000  O
  O7       1.0000 0.24240  0.89610  0.51040  Biso   1.000  O
  O8       1.0000 0.05920  0.90200  0.53510  Biso   1.000  O
  O9       1.0000 0.13540  0.93240  0.59390  Biso   1.000  O
  O10      1.0000 0.11700  0.85370  0.45480  Biso   1.000  O
  O11      1.0000 0.05580  0.82150  0.58920  Biso   1.000  O
  O12      1.0000 0.06960  0.72450  0.57930  Biso   1.000  O
  O13      1.0000 0.11510  0.68010  0.49970  Biso   1.000  O
  O14      1.0000 0.25230  0.81650  0.39090  Biso   1.000  O
  O15      1.0000 0.16170  0.94340  0.49290  Biso   1.000  O
  O16      1.0000 0.15580  0.76190  0.60950  Biso   1.000  O
  O17      1.0000 0.23880  0.79510  0.57480  Biso   1.000  O
  O18      1.0000 0.24990  0.73380  0.44350  Biso   1.000  O
  O19      1.0000 0.02190  0.82440  0.49280  Biso   1.000  O
  O20      1.0000 0.21720  0.88390  0.61240  Biso   1.000  O
  O21      1.0000 0.03870  0.85960  0.39580  Biso   1.000  O
  O22      1.0000 0.15870  0.80360  0.36360  Biso   1.000  O
  O23      1.0000 0.28950  0.81240  0.48700  Biso   1.000  O
  O24      1.0000 0.20110  0.71720  0.53320  Biso   1.000  O
  O25      1.0000 0.03270  0.72910  0.48150  Biso   1.000  O
  O26      1.0000 0.07790  0.93810  0.43910  Biso   1.000  O
  O27      1.0000 0.07640  0.77010  0.39690  Biso   1.000  O
  O28      1.0000 0.11410  0.77490  0.50530  Biso   1.000  O
  O29      1.0000 0.21890  0.80610  0.68230  Biso   1.000  O
  O30      1.0000 0.13260  0.84970  0.64720  Biso   1.000  O
  O31      1.0000 0.20760  0.89980  0.41580  Biso   1.000  O
  N1       1.0000 0.54990  0.99610  0.71840  Biso   1.000  N
  N2       1.0000 0.75190  0.92450  0.51530  Biso   1.000  N
  N3       1.0000 0.32280  0.73300  0.28460  Biso   1.000  N
  N4       1.0000 0.61220  0.96090  0.67650  Biso   1.000  N
  N5       1.0000 0.40330  0.73750  0.28610  Biso   1.000  N
  N6       1.0000 0.91200  0.05720  0.80620  Biso   1.000  N
  N7       1.0000 0.82420  0.91540  0.47830  Biso   1.000  N
  N8       1.0000 0.22570  0.06490  0.28190  Biso   1.000  N
  N9       1.0000 0.24470  0.78890  0.22860  Biso   1.000  N
  N10      1.0000 0.23980  0.86820  0.22170  Biso   1.000  N
  N11      1.0000 0.18030  0.70280  0.22800  Biso   1.000  N
  N12      1.0000 0.92850  0.92610  0.63650  Biso   1.000  N
  N13      1.0000 0.09930  0.69950  0.22250  Biso   1.000  N
  N14      1.0000 0.90150  0.08580  0.88690  Biso   1.000  N
  N15      1.0000 0.23710  0.14430  0.28280  Biso   1.000  N
  N16      1.0000 0.91640  0.90530  0.55220  Biso   1.000  N
  C1       1.0000 0.58050  0.99630  0.68090  Biso   1.000  C
  H1       1.0000 0.58050  0.02160  0.65640  Biso   1.000  H
  C2       1.0000 0.60600  0.93100  0.71600  Biso   1.000  C
  H2       1.0000 0.62060  0.90110  0.72410  Biso   1.000  H
  C3       1.0000 0.56640  0.95920  0.74700  Biso   1.000  C
  H3       1.0000 0.55550  0.95140  0.78050  Biso   1.000  H
  C4       1.0000 0.16930  0.70170  0.17790  Biso   1.000  C
  H4       1.0000 0.19180  0.70230  0.15010  Biso   1.000  H
  C5       1.0000 0.11740  0.69920  0.17190  Biso   1.000  C
  H5       1.0000 0.09960  0.69770  0.14040  Biso   1.000  H
  C6       1.0000 0.03400  0.71050  0.28470  Biso   1.000  C
  H6       1.0000 0.05670  0.72260  0.30900  Biso   1.000  H
  C7       1.0000 0.01490  0.70320  0.19960  Biso   1.000  C
  H7       1.0000 0.02320  0.70070  0.16390  Biso   1.000  H
  C8       1.0000 0.26480  0.80400  0.18190  Biso   1.000  C
  H8       1.0000 0.27860  0.78310  0.15700  Biso   1.000  H
  C9       1.0000 0.64710  0.95150  0.63190  Biso   1.000  C
  C10      1.0000 0.65700  0.90560  0.61750  Biso   1.000  C
  H9       1.0000 0.64030  0.87990  0.63350  Biso   1.000  H
  C11      1.0000 0.69290  0.89590  0.57750  Biso   1.000  C
  H10      1.0000 0.70100  0.86420  0.56810  Biso   1.000  H
  C12      1.0000 0.26230  0.85320  0.17600  Biso   1.000  C
  H11      1.0000 0.27320  0.87210  0.14770  Biso   1.000  H
  C13      1.0000 0.74520  0.89700  0.46900  Biso   1.000  C
  H12      1.0000 0.71590  0.88530  0.45510  Biso   1.000  H
  C14      1.0000 0.38760  0.75970  0.33030  Biso   1.000  C
  H13      1.0000 0.40680  0.77400  0.35660  Biso   1.000  H
  C15      1.0000 0.89570  0.12330  0.85090  Biso   1.000  C
  H14      1.0000 0.88800  0.15540  0.85930  Biso   1.000  H
  C16      1.0000 0.67140  0.99100  0.60880  Biso   1.000  C
  H15      1.0000 0.66540  0.02270  0.62020  Biso   1.000  H
  C17      1.0000 0.46190  0.73220  0.21370  Biso   1.000  C
  H16      1.0000 0.43640  0.73180  0.18920  Biso   1.000  H
  C18      1.0000 0.22610  0.95400  0.19770  Biso   1.000  C
  H17      1.0000 0.22310  0.94550  0.16210  Biso   1.000  H
  C19      1.0000 0.70400  0.98190  0.56890  Biso   1.000  C
  H18      1.0000 0.71910  0.00780  0.55160  Biso   1.000  H
  C20      1.0000 0.92460  0.87660  0.63440  Biso   1.000  C
  H19      1.0000 0.92660  0.85570  0.66340  Biso   1.000  H
  C21      1.0000 0.91760  0.86280  0.58420  Biso   1.000  C
  H20      1.0000 0.91400  0.83090  0.57230  Biso   1.000  H
  C22      1.0000 0.23300  0.97990  0.30320  Biso   1.000  C
  H21      1.0000 0.23380  0.98890  0.33880  Biso   1.000  H
  C23      1.0000 0.33810  0.75730  0.32880  Biso   1.000  C
  H22      1.0000 0.31740  0.77030  0.35450  Biso   1.000  H
  C24      1.0000 0.94340  0.03740  0.71850  Biso   1.000  C
  H23      1.0000 0.95670  0.06850  0.71560  Biso   1.000  H
  C25      1.0000 0.79180  0.89100  0.44840  Biso   1.000  C
  H24      1.0000 0.79950  0.87280  0.41840  Biso   1.000  H
  C26      1.0000 0.20640  0.08160  0.32860  Biso   1.000  C
  H25      1.0000 0.19140  0.06300  0.35490  Biso   1.000  H
  C27      1.0000 0.92000  0.02340  0.76430  Biso   1.000  C
  C28      1.0000 0.45260  0.73310  0.26660  Biso   1.000  C
  C29      1.0000 0.13900  0.70380  0.25360  Biso   1.000  C
  H26      1.0000 0.13710  0.70720  0.29030  Biso   1.000  H
  C30      1.0000 0.80010  0.93510  0.51770  Biso   1.000  C
  H27      1.0000 0.81450  0.95410  0.54400  Biso   1.000  H
  C31      1.0000 0.48920  0.73210  0.30270  Biso   1.000  C
  H28      1.0000 0.48180  0.73120  0.33870  Biso   1.000  H
  C32      1.0000 0.24310  0.10400  0.25610  Biso   1.000  C
  H29      1.0000 0.25780  0.10260  0.22280  Biso   1.000  H
  C33      1.0000 0.22280  0.00220  0.21360  Biso   1.000  C
  H30      1.0000 0.21680  0.02640  0.18860  Biso   1.000  H
  C34      1.0000 0.90210  0.97520  0.76990  Biso   1.000  C
  H31      1.0000 0.88760  0.96520  0.80140  Biso   1.000  H
  C35      1.0000 0.23650  0.93100  0.28890  Biso   1.000  C
  H32      1.0000 0.24050  0.90720  0.31480  Biso   1.000  H
  C36      1.0000 0.92850  0.95830  0.68080  Biso   1.000  C
  C37      1.0000 0.92340  0.94100  0.58450  Biso   1.000  C
  H33      1.0000 0.92490  0.97340  0.57380  Biso   1.000  H
  C38      1.0000 0.90340  0.10520  0.80070  Biso   1.000  C
  H34      1.0000 0.90270  0.12280  0.76920  Biso   1.000  H
  C39      1.0000 0.23130  0.82930  0.25150  Biso   1.000  C
  H35      1.0000 0.21730  0.83070  0.28520  Biso   1.000  H
  C40      1.0000 0.22830  0.01410  0.26490  Biso   1.000  C
  C41      1.0000 0.36290  0.72120  0.26040  Biso   1.000  C
  H36      1.0000 0.36390  0.70360  0.22890  Biso   1.000  H
  C42      1.0000 0.23410  0.91810  0.23670  Biso   1.000  C
  C43      1.0000 0.04800  0.70020  0.23570  Biso   1.000  C
  C44      1.0000 0.21350  0.13050  0.32900  Biso   1.000  C
  H37      1.0000 0.20400  0.15150  0.35610  Biso   1.000  H
  C45      1.0000 0.94730  0.00430  0.67610  Biso   1.000  C
  H38      1.0000 0.96270  0.01370  0.64480  Biso   1.000  H
  C46      1.0000 0.90990  0.04690  0.85890  Biso   1.000  C
  H39      1.0000 0.91400  0.01590  0.87320  Biso   1.000  H
  C47      1.0000 0.71470  0.93480  0.55390  Biso   1.000  C
  C48      1.0000 0.90650  0.94330  0.72770  Biso   1.000  C
  H40      1.0000 0.89480  0.91160  0.73080  Biso   1.000  H
  W13      1.0000 0.30842  0.68004  0.12329  Biso   1.000  W
  W14      1.0000 0.46315  0.61341  0.96567  Biso   1.000  W
  W15      1.0000 0.29258  0.73779  0.89150  Biso   1.000  W
  W16      1.0000 0.35398  0.56979  0.91937  Biso   1.000  W
  W17      1.0000 0.24388  0.74410  0.01486  Biso   1.000  W
  W18      1.0000 0.41081  0.78482  0.93969  Biso   1.000  W
  W19      1.0000 0.36244  0.79073  0.06367  Biso   1.000  W
  W20      1.0000 0.46766  0.72758  0.04265  Biso   1.000  W
  W21      1.0000 0.23976  0.63691  0.94661  Biso   1.000  W
  W22      1.0000 0.41386  0.61718  0.10168  Biso   1.000  W
  W23      1.0000 0.30367  0.57355  0.05583  Biso   1.000  W
  W24      1.0000 0.40560  0.67014  0.86378  Biso   1.000  W
  Co3      1.0000 0.59850  0.58938  0.97069  Biso   1.000  Co
  Co4      1.0000 0.24887  0.78379  0.75760  Biso   1.000  Co
  P2       1.0000 0.35548  0.67911  0.99435  Biso   1.000  P
  O32      1.0000 0.34730  0.65150  0.04650  Biso   1.000  O
  O33      1.0000 0.51960  0.58610  0.96400  Biso   1.000  O
  O34      1.0000 0.27410  0.76740  0.83530  Biso   1.000  O
  O35      1.0000 0.30540  0.69350  0.97090  Biso   1.000  O
  O36      1.0000 0.37580  0.60660  0.86080  Biso   1.000  O
  O37      1.0000 0.34390  0.77740  0.91540  Biso   1.000  O
  O38      1.0000 0.25760  0.60390  0.01040  Biso   1.000  O
  O39      1.0000 0.44080  0.59800  0.03510  Biso   1.000  O
  O40      1.0000 0.36460  0.56760  0.09390  Biso   1.000  O
  O41      1.0000 0.38300  0.64630  0.95480  Biso   1.000  O
  O42      1.0000 0.44420  0.67850  0.08920  Biso   1.000  O
  O43      1.0000 0.43040  0.77550  0.07930  Biso   1.000  O
  O44      1.0000 0.38490  0.81990  0.99970  Biso   1.000  O
  O45      1.0000 0.24770  0.68350  0.89090  Biso   1.000  O
  O46      1.0000 0.33830  0.55660  0.99290  Biso   1.000  O
  O47      1.0000 0.34420  0.73810  0.10950  Biso   1.000  O
  O48      1.0000 0.26120  0.70490  0.07480  Biso   1.000  O
  O49      1.0000 0.25010  0.76620  0.94350  Biso   1.000  O
  O50      1.0000 0.47810  0.67560  0.99280  Biso   1.000  O
  O51      1.0000 0.28280  0.61610  0.11240  Biso   1.000  O
  O52      1.0000 0.46130  0.64040  0.89580  Biso   1.000  O
  O53      1.0000 0.34130  0.69640  0.86360  Biso   1.000  O
  O54      1.0000 0.21050  0.68760  0.98700  Biso   1.000  O
  O55      1.0000 0.29890  0.78280  0.03320  Biso   1.000  O
  O56      1.0000 0.46730  0.77090  0.98150  Biso   1.000  O
  O57      1.0000 0.42210  0.56190  0.93910  Biso   1.000  O
  O58      1.0000 0.42360  0.72990  0.89690  Biso   1.000  O
  O59      1.0000 0.38590  0.72510  0.00530  Biso   1.000  O
  O60      1.0000 0.28110  0.69390  0.18230  Biso   1.000  O
  O61      1.0000 0.36740  0.65030  0.14720  Biso   1.000  O
  O62      1.0000 0.29240  0.60020  0.91580  Biso   1.000  O
  N17      1.0000 0.95010  0.50390  0.21840  Biso   1.000  N
  N18      1.0000 0.74810  0.57550  0.01530  Biso   1.000  N
  N19      1.0000 0.17720  0.76700  0.78460  Biso   1.000  N
  N20      1.0000 0.88780  0.53910  0.17650  Biso   1.000  N
  N21      1.0000 0.09670  0.76250  0.78610  Biso   1.000  N
  N22      1.0000 0.58800  0.44280  0.30620  Biso   1.000  N
  N23      1.0000 0.67580  0.58460  0.97830  Biso   1.000  N
  N24      1.0000 0.27430  0.43510  0.78190  Biso   1.000  N
  N25      1.0000 0.25530  0.71110  0.72860  Biso   1.000  N
  N26      1.0000 0.26020  0.63180  0.72170  Biso   1.000  N
  N27      1.0000 0.31970  0.79720  0.72800  Biso   1.000  N
  N28      1.0000 0.57150  0.57390  0.13650  Biso   1.000  N
  N29      1.0000 0.40070  0.80050  0.72250  Biso   1.000  N
  N30      1.0000 0.59850  0.41420  0.38690  Biso   1.000  N
  N31      1.0000 0.26290  0.35570  0.78280  Biso   1.000  N
  N32      1.0000 0.58360  0.59470  0.05220  Biso   1.000  N
  C49      1.0000 0.91950  0.50370  0.18090  Biso   1.000  C
  H41      1.0000 0.91950  0.47840  0.15640  Biso   1.000  H
  C50      1.0000 0.89400  0.56900  0.21600  Biso   1.000  C
  H42      1.0000 0.87940  0.59890  0.22410  Biso   1.000  H
  C51      1.0000 0.93360  0.54080  0.24700  Biso   1.000  C
  H43      1.0000 0.94450  0.54860  0.28050  Biso   1.000  H
  C52      1.0000 0.33070  0.79830  0.67790  Biso   1.000  C
  H44      1.0000 0.30820  0.79770  0.65010  Biso   1.000  H
  C53      1.0000 0.38260  0.80080  0.67190  Biso   1.000  C
  H45      1.0000 0.40040  0.80230  0.64040  Biso   1.000  H
  C54      1.0000 0.46600  0.78950  0.78470  Biso   1.000  C
  H46      1.0000 0.44330  0.77740  0.80900  Biso   1.000  H
  C55      1.0000 0.48510  0.79680  0.69960  Biso   1.000  C
  H47      1.0000 0.47680  0.79930  0.66390  Biso   1.000  H
  C56      1.0000 0.23520  0.69600  0.68190  Biso   1.000  C
  H48      1.0000 0.22140  0.71690  0.65700  Biso   1.000  H
  C57      1.0000 0.85290  0.54850  0.13190  Biso   1.000  C
  C58      1.0000 0.84300  0.59440  0.11750  Biso   1.000  C
  H49      1.0000 0.85970  0.62010  0.13350  Biso   1.000  H
  C59      1.0000 0.80710  0.60410  0.07750  Biso   1.000  C
  H50      1.0000 0.79900  0.63580  0.06810  Biso   1.000  H
  C60      1.0000 0.23770  0.64680  0.67600  Biso   1.000  C
  H51      1.0000 0.22680  0.62790  0.64770  Biso   1.000  H
  C61      1.0000 0.75480  0.60300  0.96900  Biso   1.000  C
  H52      1.0000 0.78410  0.61470  0.95510  Biso   1.000  H
  C62      1.0000 0.11240  0.74030  0.83030  Biso   1.000  C
  H53      1.0000 0.09320  0.72600  0.85660  Biso   1.000  H
  C63      1.0000 0.60430  0.37670  0.35090  Biso   1.000  C
  H54      1.0000 0.61200  0.34460  0.35930  Biso   1.000  H
  C64      1.0000 0.82860  0.50900  0.10880  Biso   1.000  C
  H55      1.0000 0.83460  0.47730  0.12020  Biso   1.000  H
  C65      1.0000 0.03810  0.76780  0.71370  Biso   1.000  C
  H56      1.0000 0.06360  0.76820  0.68920  Biso   1.000  H
  C66      1.0000 0.27390  0.54600  0.69770  Biso   1.000  C
  H57      1.0000 0.27690  0.55450  0.66210  Biso   1.000  H
  C67      1.0000 0.79600  0.51810  0.06890  Biso   1.000  C
  H58      1.0000 0.78090  0.49220  0.05160  Biso   1.000  H
  C68      1.0000 0.57540  0.62340  0.13440  Biso   1.000  C
  H59      1.0000 0.57340  0.64430  0.16340  Biso   1.000  H
  C69      1.0000 0.58240  0.63720  0.08420  Biso   1.000  C
  H60      1.0000 0.58600  0.66910  0.07230  Biso   1.000  H
  C70      1.0000 0.26700  0.52010  0.80320  Biso   1.000  C
  H61      1.0000 0.26620  0.51110  0.83880  Biso   1.000  H
  C71      1.0000 0.16190  0.74270  0.82880  Biso   1.000  C
  H62      1.0000 0.18260  0.72970  0.85450  Biso   1.000  H
  C72      1.0000 0.55660  0.46260  0.21850  Biso   1.000  C
  H63      1.0000 0.54330  0.43150  0.21560  Biso   1.000  H
  C73      1.0000 0.70820  0.60900  0.94840  Biso   1.000  C
  H64      1.0000 0.70050  0.62720  0.91840  Biso   1.000  H
  C74      1.0000 0.29360  0.41840  0.82860  Biso   1.000  C
  H65      1.0000 0.30860  0.43700  0.85490  Biso   1.000  H
  C75      1.0000 0.58000  0.47660  0.26430  Biso   1.000  C
  C76      1.0000 0.04740  0.76690  0.76660  Biso   1.000  C
  C77      1.0000 0.36100  0.79620  0.75360  Biso   1.000  C
  H66      1.0000 0.36290  0.79280  0.79030  Biso   1.000  H
  C78      1.0000 0.69990  0.56490  0.01770  Biso   1.000  C
  H67      1.0000 0.68550  0.54590  0.04400  Biso   1.000  H
  C79      1.0000 0.01080  0.76790  0.80270  Biso   1.000  C
  H68      1.0000 0.01820  0.76880  0.83870  Biso   1.000  H
  C80      1.0000 0.25690  0.39600  0.75610  Biso   1.000  C
  H69      1.0000 0.24220  0.39740  0.72280  Biso   1.000  H
  C81      1.0000 0.27720  0.49780  0.71360  Biso   1.000  C
  H70      1.0000 0.28320  0.47360  0.68860  Biso   1.000  H
  C82      1.0000 0.59790  0.52480  0.26990  Biso   1.000  C
  H71      1.0000 0.61240  0.53480  0.30140  Biso   1.000  H
  C83      1.0000 0.26350  0.56900  0.78890  Biso   1.000  C
  H72      1.0000 0.25950  0.59280  0.81480  Biso   1.000  H
  C84      1.0000 0.57150  0.54170  0.18080  Biso   1.000  C
  C85      1.0000 0.57660  0.55900  0.08450  Biso   1.000  C
  H73      1.0000 0.57510  0.52660  0.07380  Biso   1.000  H
  C86      1.0000 0.59660  0.39480  0.30070  Biso   1.000  C
  H74      1.0000 0.59730  0.37720  0.26920  Biso   1.000  H
  C87      1.0000 0.26870  0.67070  0.75150  Biso   1.000  C
  H75      1.0000 0.28270  0.66930  0.78520  Biso   1.000  H
  C88      1.0000 0.27170  0.48590  0.76490  Biso   1.000  C
  C89      1.0000 0.13710  0.77880  0.76040  Biso   1.000  C
  H76      1.0000 0.13610  0.79640  0.72890  Biso   1.000  H
  C90      1.0000 0.26590  0.58190  0.73670  Biso   1.000  C
  C91      1.0000 0.45200  0.79980  0.73570  Biso   1.000  C
  C92      1.0000 0.28650  0.36950  0.82900  Biso   1.000  C
  H77      1.0000 0.29600  0.34850  0.85610  Biso   1.000  H
  C93      1.0000 0.55270  0.49570  0.17610  Biso   1.000  C
  H78      1.0000 0.53730  0.48630  0.14480  Biso   1.000  H
  C94      1.0000 0.59010  0.45310  0.35890  Biso   1.000  C
  H79      1.0000 0.58600  0.48410  0.37320  Biso   1.000  H
  C95      1.0000 0.78530  0.56520  0.05390  Biso   1.000  C
  C96      1.0000 0.59350  0.55670  0.22770  Biso   1.000  C
  H80      1.0000 0.60520  0.58840  0.23080  Biso   1.000  H
  W25      1.0000 0.80842  0.81996  0.87671  Biso   1.000  W
  W26      1.0000 0.96315  0.88659  0.03433  Biso   1.000  W
  W27      1.0000 0.79258  0.76221  0.10850  Biso   1.000  W
  W28      1.0000 0.85398  0.93021  0.08063  Biso   1.000  W
  W29      1.0000 0.74388  0.75590  0.98514  Biso   1.000  W
  W30      1.0000 0.91081  0.71518  0.06031  Biso   1.000  W
  W31      1.0000 0.86244  0.70927  0.93633  Biso   1.000  W
  W32      1.0000 0.96766  0.77242  0.95735  Biso   1.000  W
  W33      1.0000 0.73976  0.86309  0.05339  Biso   1.000  W
  W34      1.0000 0.91386  0.88282  0.89832  Biso   1.000  W
  W35      1.0000 0.80367  0.92645  0.94417  Biso   1.000  W
  W36      1.0000 0.90560  0.82986  0.13622  Biso   1.000  W
  Co5      1.0000 0.09850  0.91062  0.02931  Biso   1.000  Co
  Co6      1.0000 0.74887  0.71621  0.24240  Biso   1.000  Co
  P3       1.0000 0.85548  0.82089  0.00565  Biso   1.000  P
  O63      1.0000 0.84730  0.84850  0.95350  Biso   1.000  O
  O64      1.0000 0.01960  0.91390  0.03600  Biso   1.000  O
  O65      1.0000 0.77410  0.73260  0.16470  Biso   1.000  O
  O66      1.0000 0.80540  0.80650  0.02910  Biso   1.000  O
  O67      1.0000 0.87580  0.89340  0.13920  Biso   1.000  O
  O68      1.0000 0.84390  0.72260  0.08460  Biso   1.000  O
  O69      1.0000 0.75760  0.89610  0.98960  Biso   1.000  O
  O70      1.0000 0.94080  0.90200  0.96490  Biso   1.000  O
  O71      1.0000 0.86460  0.93240  0.90610  Biso   1.000  O
  O72      1.0000 0.88300  0.85370  0.04520  Biso   1.000  O
  O73      1.0000 0.94420  0.82150  0.91080  Biso   1.000  O
  O74      1.0000 0.93040  0.72450  0.92070  Biso   1.000  O
  O75      1.0000 0.88490  0.68010  0.00030  Biso   1.000  O
  O76      1.0000 0.74770  0.81650  0.10910  Biso   1.000  O
  O77      1.0000 0.83830  0.94340  0.00710  Biso   1.000  O
  O78      1.0000 0.84420  0.76190  0.89050  Biso   1.000  O
  O79      1.0000 0.76120  0.79510  0.92520  Biso   1.000  O
  O80      1.0000 0.75010  0.73380  0.05650  Biso   1.000  O
  O81      1.0000 0.97810  0.82440  0.00720  Biso   1.000  O
  O82      1.0000 0.78280  0.88390  0.88760  Biso   1.000  O
  O83      1.0000 0.96130  0.85960  0.10420  Biso   1.000  O
  O84      1.0000 0.84130  0.80360  0.13640  Biso   1.000  O
  O85      1.0000 0.71050  0.81240  0.01300  Biso   1.000  O
  O86      1.0000 0.79890  0.71720  0.96680  Biso   1.000  O
  O87      1.0000 0.96730  0.72910  0.01850  Biso   1.000  O
  O88      1.0000 0.92210  0.93810  0.06090  Biso   1.000  O
  O89      1.0000 0.92360  0.77010  0.10310  Biso   1.000  O
  O90      1.0000 0.88590  0.77490  0.99470  Biso   1.000  O
  O91      1.0000 0.78110  0.80610  0.81770  Biso   1.000  O
  O92      1.0000 0.86740  0.84970  0.85280  Biso   1.000  O
  O93      1.0000 0.79240  0.89980  0.08420  Biso   1.000  O
  N33      1.0000 0.45010  0.99610  0.78160  Biso   1.000  N
  N34      1.0000 0.24810  0.92450  0.98470  Biso   1.000  N
  N35      1.0000 0.67720  0.73300  0.21540  Biso   1.000  N
  N36      1.0000 0.38780  0.96090  0.82350  Biso   1.000  N
  N37      1.0000 0.59670  0.73750  0.21390  Biso   1.000  N
  N38      1.0000 0.08800  0.05720  0.69380  Biso   1.000  N
  N39      1.0000 0.17580  0.91540  0.02170  Biso   1.000  N
  N40      1.0000 0.77430  0.06490  0.21810  Biso   1.000  N
  N41      1.0000 0.75530  0.78890  0.27140  Biso   1.000  N
  N42      1.0000 0.76020  0.86820  0.27830  Biso   1.000  N
  N43      1.0000 0.81970  0.70280  0.27200  Biso   1.000  N
  N44      1.0000 0.07150  0.92610  0.86350  Biso   1.000  N
  N45      1.0000 0.90070  0.69950  0.27750  Biso   1.000  N
  N46      1.0000 0.09850  0.08580  0.61310  Biso   1.000  N
  N47      1.0000 0.76290  0.14430  0.21720  Biso   1.000  N
  N48      1.0000 0.08360  0.90530  0.94780  Biso   1.000  N
  C97      1.0000 0.41950  0.99630  0.81910  Biso   1.000  C
  H81      1.0000 0.41950  0.02160  0.84360  Biso   1.000  H
  C98      1.0000 0.39400  0.93100  0.78400  Biso   1.000  C
  H82      1.0000 0.37940  0.90110  0.77590  Biso   1.000  H
  C99      1.0000 0.43360  0.95920  0.75300  Biso   1.000  C
  H83      1.0000 0.44450  0.95140  0.71950  Biso   1.000  H
  C100     1.0000 0.83070  0.70170  0.32210  Biso   1.000  C
  H84      1.0000 0.80820  0.70230  0.34990  Biso   1.000  H
  C101     1.0000 0.88260  0.69920  0.32810  Biso   1.000  C
  H85      1.0000 0.90040  0.69770  0.35960  Biso   1.000  H
  C102     1.0000 0.96600  0.71050  0.21530  Biso   1.000  C
  H86      1.0000 0.94330  0.72260  0.19100  Biso   1.000  H
  C103     1.0000 0.98510  0.70320  0.30040  Biso   1.000  C
  H87      1.0000 0.97680  0.70070  0.33610  Biso   1.000  H
  C104     1.0000 0.73520  0.80400  0.31810  Biso   1.000  C
  H88      1.0000 0.72140  0.78310  0.34300  Biso   1.000  H
  C105     1.0000 0.35290  0.95150  0.86810  Biso   1.000  C
  C106     1.0000 0.34300  0.90560  0.88250  Biso   1.000  C
  H89      1.0000 0.35970  0.87990  0.86650  Biso   1.000  H
  C107     1.0000 0.30710  0.89590  0.92250  Biso   1.000  C
  H90      1.0000 0.29900  0.86420  0.93190  Biso   1.000  H
  C108     1.0000 0.73770  0.85320  0.32400  Biso   1.000  C
  H91      1.0000 0.72680  0.87210  0.35230  Biso   1.000  H
  C109     1.0000 0.25480  0.89700  0.03100  Biso   1.000  C
  H92      1.0000 0.28410  0.88530  0.04490  Biso   1.000  H
  C110     1.0000 0.61240  0.75970  0.16970  Biso   1.000  C
  H93      1.0000 0.59320  0.77400  0.14340  Biso   1.000  H
  C111     1.0000 0.10430  0.12330  0.64910  Biso   1.000  C
  H94      1.0000 0.11200  0.15540  0.64070  Biso   1.000  H
  C112     1.0000 0.32860  0.99100  0.89120  Biso   1.000  C
  H95      1.0000 0.33460  0.02270  0.87980  Biso   1.000  H
  C113     1.0000 0.53810  0.73220  0.28630  Biso   1.000  C
  H96      1.0000 0.56360  0.73180  0.31080  Biso   1.000  H
  C114     1.0000 0.77390  0.95400  0.30230  Biso   1.000  C
  H97      1.0000 0.77690  0.94550  0.33790  Biso   1.000  H
  C115     1.0000 0.29600  0.98190  0.93110  Biso   1.000  C
  H98      1.0000 0.28090  0.00780  0.94840  Biso   1.000  H
  C116     1.0000 0.07540  0.87660  0.86560  Biso   1.000  C
  H99      1.0000 0.07340  0.85570  0.83660  Biso   1.000  H
  C117     1.0000 0.08240  0.86280  0.91580  Biso   1.000  C
  H100     1.0000 0.08600  0.83090  0.92770  Biso   1.000  H
  C118     1.0000 0.76700  0.97990  0.19680  Biso   1.000  C
  H101     1.0000 0.76620  0.98890  0.16120  Biso   1.000  H
  C119     1.0000 0.66190  0.75730  0.17120  Biso   1.000  C
  H102     1.0000 0.68260  0.77030  0.14550  Biso   1.000  H
  C120     1.0000 0.05660  0.03740  0.78150  Biso   1.000  C
  H103     1.0000 0.04330  0.06850  0.78440  Biso   1.000  H
  C121     1.0000 0.20820  0.89100  0.05160  Biso   1.000  C
  H104     1.0000 0.20050  0.87280  0.08160  Biso   1.000  H
  C122     1.0000 0.79360  0.08160  0.17140  Biso   1.000  C
  H105     1.0000 0.80860  0.06300  0.14510  Biso   1.000  H
  C123     1.0000 0.08000  0.02340  0.73570  Biso   1.000  C
  C124     1.0000 0.54740  0.73310  0.23340  Biso   1.000  C
  C125     1.0000 0.86100  0.70380  0.24640  Biso   1.000  C
  H106     1.0000 0.86290  0.70720  0.20970  Biso   1.000  H
  C126     1.0000 0.19990  0.93510  0.98230  Biso   1.000  C
  H107     1.0000 0.18550  0.95410  0.95600  Biso   1.000  H
  C127     1.0000 0.51080  0.73210  0.19730  Biso   1.000  C
  H108     1.0000 0.51820  0.73120  0.16130  Biso   1.000  H
  C128     1.0000 0.75690  0.10400  0.24390  Biso   1.000  C
  H109     1.0000 0.74220  0.10260  0.27720  Biso   1.000  H
  C129     1.0000 0.77720  0.00220  0.28640  Biso   1.000  C
  H110     1.0000 0.78320  0.02640  0.31140  Biso   1.000  H
  C130     1.0000 0.09790  0.97520  0.73010  Biso   1.000  C
  H111     1.0000 0.11240  0.96520  0.69860  Biso   1.000  H
  C131     1.0000 0.76350  0.93100  0.21110  Biso   1.000  C
  H112     1.0000 0.75950  0.90720  0.18520  Biso   1.000  H
  C132     1.0000 0.07150  0.95830  0.81920  Biso   1.000  C
  C133     1.0000 0.07660  0.94100  0.91550  Biso   1.000  C
  H113     1.0000 0.07510  0.97340  0.92620  Biso   1.000  H
  C134     1.0000 0.09660  0.10520  0.69930  Biso   1.000  C
  H114     1.0000 0.09730  0.12280  0.73080  Biso   1.000  H
  C135     1.0000 0.76870  0.82930  0.24850  Biso   1.000  C
  H115     1.0000 0.78270  0.83070  0.21480  Biso   1.000  H
  C136     1.0000 0.77170  0.01410  0.23510  Biso   1.000  C
  C137     1.0000 0.63710  0.72120  0.23960  Biso   1.000  C
  H116     1.0000 0.63610  0.70360  0.27110  Biso   1.000  H
  C138     1.0000 0.76590  0.91810  0.26330  Biso   1.000  C
  C139     1.0000 0.95200  0.70020  0.26430  Biso   1.000  C
  C140     1.0000 0.78650  0.13050  0.17100  Biso   1.000  C
  H117     1.0000 0.79600  0.15150  0.14390  Biso   1.000  H
  C141     1.0000 0.05270  0.00430  0.82390  Biso   1.000  C
  H118     1.0000 0.03730  0.01370  0.85520  Biso   1.000  H
  C142     1.0000 0.09010  0.04690  0.64110  Biso   1.000  C
  H119     1.0000 0.08600  0.01590  0.62680  Biso   1.000  H
  C143     1.0000 0.28530  0.93480  0.94610  Biso   1.000  C
  C144     1.0000 0.09350  0.94330  0.77230  Biso   1.000  C
  H120     1.0000 0.10520  0.91160  0.76920  Biso   1.000  H
  W37      1.0000 0.69158  0.68004  0.37671  Biso   1.000  W
  W38      1.0000 0.53685  0.61341  0.53433  Biso   1.000  W
  W39      1.0000 0.70742  0.73779  0.60850  Biso   1.000  W
  W40      1.0000 0.64602  0.56979  0.58063  Biso   1.000  W
  W41      1.0000 0.75612  0.74410  0.48514  Biso   1.000  W
  W42      1.0000 0.58919  0.78482  0.56031  Biso   1.000  W
  W43      1.0000 0.63756  0.79073  0.43633  Biso   1.000  W
  W44      1.0000 0.53234  0.72758  0.45735  Biso   1.000  W
  W45      1.0000 0.76024  0.63691  0.55339  Biso   1.000  W
  W46      1.0000 0.58614  0.61718  0.39832  Biso   1.000  W
  W47      1.0000 0.69633  0.57355  0.44417  Biso   1.000  W
  W48      1.0000 0.59440  0.67014  0.63622  Biso   1.000  W
  Co7      1.0000 0.40150  0.58938  0.52931  Biso   1.000  Co
  Co8      1.0000 0.75113  0.78379  0.74240  Biso   1.000  Co
  P4       1.0000 0.64452  0.67911  0.50565  Biso   1.000  P
  O94      1.0000 0.65270  0.65150  0.45350  Biso   1.000  O
  O95      1.0000 0.48040  0.58610  0.53600  Biso   1.000  O
  O96      1.0000 0.72590  0.76740  0.66470  Biso   1.000  O
  O97      1.0000 0.69460  0.69350  0.52910  Biso   1.000  O
  O98      1.0000 0.62420  0.60660  0.63920  Biso   1.000  O
  O99      1.0000 0.65610  0.77740  0.58460  Biso   1.000  O
  O100     1.0000 0.74240  0.60390  0.48960  Biso   1.000  O
  O101     1.0000 0.55920  0.59800  0.46490  Biso   1.000  O
  O102     1.0000 0.63540  0.56760  0.40610  Biso   1.000  O
  O103     1.0000 0.61700  0.64630  0.54520  Biso   1.000  O
  O104     1.0000 0.55580  0.67850  0.41080  Biso   1.000  O
  O105     1.0000 0.56960  0.77550  0.42070  Biso   1.000  O
  O106     1.0000 0.61510  0.81990  0.50030  Biso   1.000  O
  O107     1.0000 0.75230  0.68350  0.60910  Biso   1.000  O
  O108     1.0000 0.66170  0.55660  0.50710  Biso   1.000  O
  O109     1.0000 0.65580  0.73810  0.39050  Biso   1.000  O
  O110     1.0000 0.73880  0.70490  0.42520  Biso   1.000  O
  O111     1.0000 0.74990  0.76620  0.55650  Biso   1.000  O
  O112     1.0000 0.52190  0.67560  0.50720  Biso   1.000  O
  O113     1.0000 0.71720  0.61610  0.38760  Biso   1.000  O
  O114     1.0000 0.53870  0.64040  0.60420  Biso   1.000  O
  O115     1.0000 0.65870  0.69640  0.63640  Biso   1.000  O
  O116     1.0000 0.78950  0.68760  0.51300  Biso   1.000  O
  O117     1.0000 0.70110  0.78280  0.46680  Biso   1.000  O
  O118     1.0000 0.53270  0.77090  0.51850  Biso   1.000  O
  O119     1.0000 0.57790  0.56190  0.56090  Biso   1.000  O
  O120     1.0000 0.57640  0.72990  0.60310  Biso   1.000  O
  O121     1.0000 0.61410  0.72510  0.49470  Biso   1.000  O
  O122     1.0000 0.71890  0.69390  0.31770  Biso   1.000  O
  O123     1.0000 0.63260  0.65030  0.35280  Biso   1.000  O
  O124     1.0000 0.70760  0.60020  0.58420  Biso   1.000  O
  N49      1.0000 0.04990  0.50390  0.28160  Biso   1.000  N
  N50      1.0000 0.25190  0.57550  0.48470  Biso   1.000  N
  N51      1.0000 0.82280  0.76700  0.71540  Biso   1.000  N
  N52      1.0000 0.11220  0.53910  0.32350  Biso   1.000  N
  N53      1.0000 0.90330  0.76250  0.71390  Biso   1.000  N
  N54      1.0000 0.41200  0.44280  0.19380  Biso   1.000  N
  N55      1.0000 0.32420  0.58460  0.52170  Biso   1.000  N
  N56      1.0000 0.72570  0.43510  0.71810  Biso   1.000  N
  N57      1.0000 0.74470  0.71110  0.77140  Biso   1.000  N
  N58      1.0000 0.73980  0.63180  0.77830  Biso   1.000  N
  N59      1.0000 0.68030  0.79720  0.77200  Biso   1.000  N
  N60      1.0000 0.42850  0.57390  0.36350  Biso   1.000  N
  N61      1.0000 0.59930  0.80050  0.77750  Biso   1.000  N
  N62      1.0000 0.40150  0.41420  0.11310  Biso   1.000  N
  N63      1.0000 0.73710  0.35570  0.71720  Biso   1.000  N
  N64      1.0000 0.41640  0.59470  0.44780  Biso   1.000  N
  C145     1.0000 0.08050  0.50370  0.31910  Biso   1.000  C
  H121     1.0000 0.08050  0.47840  0.34360  Biso   1.000  H
  C146     1.0000 0.10600  0.56900  0.28400  Biso   1.000  C
  H122     1.0000 0.12060  0.59890  0.27590  Biso   1.000  H
  C147     1.0000 0.06640  0.54080  0.25300  Biso   1.000  C
  H123     1.0000 0.05550  0.54860  0.21950  Biso   1.000  H
  C148     1.0000 0.66930  0.79830  0.82210  Biso   1.000  C
  H124     1.0000 0.69180  0.79770  0.84990  Biso   1.000  H
  C149     1.0000 0.61740  0.80080  0.82810  Biso   1.000  C
  H125     1.0000 0.59960  0.80230  0.85960  Biso   1.000  H
  C150     1.0000 0.53400  0.78950  0.71530  Biso   1.000  C
  H126     1.0000 0.55670  0.77740  0.69100  Biso   1.000  H
  C151     1.0000 0.51490  0.79680  0.80040  Biso   1.000  C
  H127     1.0000 0.52320  0.79930  0.83610  Biso   1.000  H
  C152     1.0000 0.76480  0.69600  0.81810  Biso   1.000  C
  H128     1.0000 0.77860  0.71690  0.84300  Biso   1.000  H
  C153     1.0000 0.14710  0.54850  0.36810  Biso   1.000  C
  C154     1.0000 0.15700  0.59440  0.38250  Biso   1.000  C
  H129     1.0000 0.14030  0.62010  0.36650  Biso   1.000  H
  C155     1.0000 0.19290  0.60410  0.42250  Biso   1.000  C
  H130     1.0000 0.20100  0.63580  0.43190  Biso   1.000  H
  C156     1.0000 0.76230  0.64680  0.82400  Biso   1.000  C
  H131     1.0000 0.77320  0.62790  0.85230  Biso   1.000  H
  C157     1.0000 0.24520  0.60300  0.53100  Biso   1.000  C
  H132     1.0000 0.21590  0.61470  0.54490  Biso   1.000  H
  C158     1.0000 0.88760  0.74030  0.66970  Biso   1.000  C
  H133     1.0000 0.90680  0.72600  0.64340  Biso   1.000  H
  C159     1.0000 0.39570  0.37670  0.14910  Biso   1.000  C
  H134     1.0000 0.38800  0.34460  0.14070  Biso   1.000  H
  C160     1.0000 0.17140  0.50900  0.39120  Biso   1.000  C
  H135     1.0000 0.16540  0.47730  0.37980  Biso   1.000  H
  C161     1.0000 0.96190  0.76780  0.78630  Biso   1.000  C
  H136     1.0000 0.93640  0.76820  0.81080  Biso   1.000  H
  C162     1.0000 0.72610  0.54600  0.80230  Biso   1.000  C
  H137     1.0000 0.72310  0.55450  0.83790  Biso   1.000  H
  C163     1.0000 0.20400  0.51810  0.43110  Biso   1.000  C
  H138     1.0000 0.21910  0.49220  0.44840  Biso   1.000  H
  C164     1.0000 0.42460  0.62340  0.36560  Biso   1.000  C
  H139     1.0000 0.42660  0.64430  0.33660  Biso   1.000  H
  C165     1.0000 0.41760  0.63720  0.41580  Biso   1.000  C
  H140     1.0000 0.41400  0.66910  0.42770  Biso   1.000  H
  C166     1.0000 0.73300  0.52010  0.69680  Biso   1.000  C
  H141     1.0000 0.73380  0.51110  0.66120  Biso   1.000  H
  C167     1.0000 0.83810  0.74270  0.67120  Biso   1.000  C
  H142     1.0000 0.81740  0.72970  0.64550  Biso   1.000  H
  C168     1.0000 0.44340  0.46260  0.28150  Biso   1.000  C
  H143     1.0000 0.45670  0.43150  0.28440  Biso   1.000  H
  C169     1.0000 0.29180  0.60900  0.55160  Biso   1.000  C
  H144     1.0000 0.29950  0.62720  0.58160  Biso   1.000  H
  C170     1.0000 0.70640  0.41840  0.67140  Biso   1.000  C
  H145     1.0000 0.69140  0.43700  0.64510  Biso   1.000  H
  C171     1.0000 0.42000  0.47660  0.23570  Biso   1.000  C
  C172     1.0000 0.95260  0.76690  0.73340  Biso   1.000  C
  C173     1.0000 0.63900  0.79620  0.74640  Biso   1.000  C
  H146     1.0000 0.63710  0.79280  0.70970  Biso   1.000  H
  C174     1.0000 0.30010  0.56490  0.48230  Biso   1.000  C
  H147     1.0000 0.31450  0.54590  0.45600  Biso   1.000  H
  C175     1.0000 0.98920  0.76790  0.69730  Biso   1.000  C
  H148     1.0000 0.98180  0.76880  0.66130  Biso   1.000  H
  C176     1.0000 0.74310  0.39600  0.74390  Biso   1.000  C
  H149     1.0000 0.75780  0.39740  0.77720  Biso   1.000  H
  C177     1.0000 0.72280  0.49780  0.78640  Biso   1.000  C
  H150     1.0000 0.71680  0.47360  0.81140  Biso   1.000  H
  C178     1.0000 0.40210  0.52480  0.23010  Biso   1.000  C
  H151     1.0000 0.38760  0.53480  0.19860  Biso   1.000  H
  C179     1.0000 0.73650  0.56900  0.71110  Biso   1.000  C
  H152     1.0000 0.74050  0.59280  0.68520  Biso   1.000  H
  C180     1.0000 0.42850  0.54170  0.31920  Biso   1.000  C
  C181     1.0000 0.42340  0.55900  0.41550  Biso   1.000  C
  H153     1.0000 0.42490  0.52660  0.42620  Biso   1.000  H
  C182     1.0000 0.40340  0.39480  0.19930  Biso   1.000  C
  H154     1.0000 0.40270  0.37720  0.23080  Biso   1.000  H
  C183     1.0000 0.73130  0.67070  0.74850  Biso   1.000  C
  H155     1.0000 0.71730  0.66930  0.71480  Biso   1.000  H
  C184     1.0000 0.72830  0.48590  0.73510  Biso   1.000  C
  C185     1.0000 0.86290  0.77880  0.73960  Biso   1.000  C
  H156     1.0000 0.86390  0.79640  0.77110  Biso   1.000  H
  C186     1.0000 0.73410  0.58190  0.76330  Biso   1.000  C
  C187     1.0000 0.54800  0.79980  0.76430  Biso   1.000  C
  C188     1.0000 0.71350  0.36950  0.67100  Biso   1.000  C
  H157     1.0000 0.70400  0.34850  0.64390  Biso   1.000  H
  C189     1.0000 0.44730  0.49570  0.32390  Biso   1.000  C
  H158     1.0000 0.46270  0.48630  0.35520  Biso   1.000  H
  C190     1.0000 0.40990  0.45310  0.14110  Biso   1.000  C
  H159     1.0000 0.41400  0.48410  0.12680  Biso   1.000  H
  C191     1.0000 0.21470  0.56520  0.44610  Biso   1.000  C
  C192     1.0000 0.40650  0.55670  0.27230  Biso   1.000  C
  H160     1.0000 0.39480  0.58840  0.26920  Biso   1.000  H
  W49      1.0000 0.80842  0.18004  0.37671  Biso   1.000  W
  W50      1.0000 0.96315  0.11341  0.53433  Biso   1.000  W
  W51      1.0000 0.79258  0.23779  0.60850  Biso   1.000  W
  W52      1.0000 0.85398  0.06979  0.58063  Biso   1.000  W
  W53      1.0000 0.74388  0.24410  0.48514  Biso   1.000  W
  W54      1.0000 0.91081  0.28482  0.56031  Biso   1.000  W
  W55      1.0000 0.86244  0.29073  0.43633  Biso   1.000  W
  W56      1.0000 0.96766  0.22758  0.45735  Biso   1.000  W
  W57      1.0000 0.73976  0.13691  0.55339  Biso   1.000  W
  W58      1.0000 0.91386  0.11718  0.39832  Biso   1.000  W
  W59      1.0000 0.80367  0.07355  0.44417  Biso   1.000  W
  W60      1.0000 0.90560  0.17014  0.63622  Biso   1.000  W
  Co9      1.0000 0.09850  0.08938  0.52931  Biso   1.000  Co
  Co10     1.0000 0.74887  0.28379  0.74240  Biso   1.000  Co
  P5       1.0000 0.85548  0.17911  0.50565  Biso   1.000  P
  O125     1.0000 0.84730  0.15150  0.45350  Biso   1.000  O
  O126     1.0000 0.01960  0.08610  0.53600  Biso   1.000  O
  O127     1.0000 0.77410  0.26740  0.66470  Biso   1.000  O
  O128     1.0000 0.80540  0.19350  0.52910  Biso   1.000  O
  O129     1.0000 0.87580  0.10660  0.63920  Biso   1.000  O
  O130     1.0000 0.84390  0.27740  0.58460  Biso   1.000  O
  O131     1.0000 0.75760  0.10390  0.48960  Biso   1.000  O
  O132     1.0000 0.94080  0.09800  0.46490  Biso   1.000  O
  O133     1.0000 0.86460  0.06760  0.40610  Biso   1.000  O
  O134     1.0000 0.88300  0.14630  0.54520  Biso   1.000  O
  O135     1.0000 0.94420  0.17850  0.41080  Biso   1.000  O
  O136     1.0000 0.93040  0.27550  0.42070  Biso   1.000  O
  O137     1.0000 0.88490  0.31990  0.50030  Biso   1.000  O
  O138     1.0000 0.74770  0.18350  0.60910  Biso   1.000  O
  O139     1.0000 0.83830  0.05660  0.50710  Biso   1.000  O
  O140     1.0000 0.84420  0.23810  0.39050  Biso   1.000  O
  O141     1.0000 0.76120  0.20490  0.42520  Biso   1.000  O
  O142     1.0000 0.75010  0.26620  0.55650  Biso   1.000  O
  O143     1.0000 0.97810  0.17560  0.50720  Biso   1.000  O
  O144     1.0000 0.78280  0.11610  0.38760  Biso   1.000  O
  O145     1.0000 0.96130  0.14040  0.60420  Biso   1.000  O
  O146     1.0000 0.84130  0.19640  0.63640  Biso   1.000  O
  O147     1.0000 0.71050  0.18760  0.51300  Biso   1.000  O
  O148     1.0000 0.79890  0.28280  0.46680  Biso   1.000  O
  O149     1.0000 0.96730  0.27090  0.51850  Biso   1.000  O
  O150     1.0000 0.92210  0.06190  0.56090  Biso   1.000  O
  O151     1.0000 0.92360  0.22990  0.60310  Biso   1.000  O
  O152     1.0000 0.88590  0.22510  0.49470  Biso   1.000  O
  O153     1.0000 0.78110  0.19390  0.31770  Biso   1.000  O
  O154     1.0000 0.86740  0.15030  0.35280  Biso   1.000  O
  O155     1.0000 0.79240  0.10020  0.58420  Biso   1.000  O
  N65      1.0000 0.45010  0.00390  0.28160  Biso   1.000  N
  N66      1.0000 0.24810  0.07550  0.48470  Biso   1.000  N
  N67      1.0000 0.67720  0.26700  0.71540  Biso   1.000  N
  N68      1.0000 0.38780  0.03910  0.32350  Biso   1.000  N
  N69      1.0000 0.59670  0.26250  0.71390  Biso   1.000  N
  N70      1.0000 0.08800  0.94280  0.19380  Biso   1.000  N
  N71      1.0000 0.17580  0.08460  0.52170  Biso   1.000  N
  N72      1.0000 0.77430  0.93510  0.71810  Biso   1.000  N
  N73      1.0000 0.75530  0.21110  0.77140  Biso   1.000  N
  N74      1.0000 0.76020  0.13180  0.77830  Biso   1.000  N
  N75      1.0000 0.81970  0.29720  0.77200  Biso   1.000  N
  N76      1.0000 0.07150  0.07390  0.36350  Biso   1.000  N
  N77      1.0000 0.90070  0.30050  0.77750  Biso   1.000  N
  N78      1.0000 0.09850  0.91420  0.11310  Biso   1.000  N
  N79      1.0000 0.76290  0.85570  0.71720  Biso   1.000  N
  N80      1.0000 0.08360  0.09470  0.44780  Biso   1.000  N
  C193     1.0000 0.41950  0.00370  0.31910  Biso   1.000  C
  H161     1.0000 0.41950  0.97840  0.34360  Biso   1.000  H
  C194     1.0000 0.39400  0.06900  0.28400  Biso   1.000  C
  H162     1.0000 0.37940  0.09890  0.27590  Biso   1.000  H
  C195     1.0000 0.43360  0.04080  0.25300  Biso   1.000  C
  H163     1.0000 0.44450  0.04860  0.21950  Biso   1.000  H
  C196     1.0000 0.83070  0.29830  0.82210  Biso   1.000  C
  H164     1.0000 0.80820  0.29770  0.84990  Biso   1.000  H
  C197     1.0000 0.88260  0.30080  0.82810  Biso   1.000  C
  H165     1.0000 0.90040  0.30230  0.85960  Biso   1.000  H
  C198     1.0000 0.96600  0.28950  0.71530  Biso   1.000  C
  H166     1.0000 0.94330  0.27740  0.69100  Biso   1.000  H
  C199     1.0000 0.98510  0.29680  0.80040  Biso   1.000  C
  H167     1.0000 0.97680  0.29930  0.83610  Biso   1.000  H
  C200     1.0000 0.73520  0.19600  0.81810  Biso   1.000  C
  H168     1.0000 0.72140  0.21690  0.84300  Biso   1.000  H
  C201     1.0000 0.35290  0.04850  0.36810  Biso   1.000  C
  C202     1.0000 0.34300  0.09440  0.38250  Biso   1.000  C
  H169     1.0000 0.35970  0.12010  0.36650  Biso   1.000  H
  C203     1.0000 0.30710  0.10410  0.42250  Biso   1.000  C
  H170     1.0000 0.29900  0.13580  0.43190  Biso   1.000  H
  C204     1.0000 0.73770  0.14680  0.82400  Biso   1.000  C
  H171     1.0000 0.72680  0.12790  0.85230  Biso   1.000  H
  C205     1.0000 0.25480  0.10300  0.53100  Biso   1.000  C
  H172     1.0000 0.28410  0.11470  0.54490  Biso   1.000  H
  C206     1.0000 0.61240  0.24030  0.66970  Biso   1.000  C
  H173     1.0000 0.59320  0.22600  0.64340  Biso   1.000  H
  C207     1.0000 0.10430  0.87670  0.14910  Biso   1.000  C
  H174     1.0000 0.11200  0.84460  0.14070  Biso   1.000  H
  C208     1.0000 0.32860  0.00900  0.39120  Biso   1.000  C
  H175     1.0000 0.33460  0.97730  0.37980  Biso   1.000  H
  C209     1.0000 0.53810  0.26780  0.78630  Biso   1.000  C
  H176     1.0000 0.56360  0.26820  0.81080  Biso   1.000  H
  C210     1.0000 0.77390  0.04600  0.80230  Biso   1.000  C
  H177     1.0000 0.77690  0.05450  0.83790  Biso   1.000  H
  C211     1.0000 0.29600  0.01810  0.43110  Biso   1.000  C
  H178     1.0000 0.28090  0.99220  0.44840  Biso   1.000  H
  C212     1.0000 0.07540  0.12340  0.36560  Biso   1.000  C
  H179     1.0000 0.07340  0.14430  0.33660  Biso   1.000  H
  C213     1.0000 0.08240  0.13720  0.41580  Biso   1.000  C
  H180     1.0000 0.08600  0.16910  0.42770  Biso   1.000  H
  C214     1.0000 0.76700  0.02010  0.69680  Biso   1.000  C
  H181     1.0000 0.76620  0.01110  0.66120  Biso   1.000  H
  C215     1.0000 0.66190  0.24270  0.67120  Biso   1.000  C
  H182     1.0000 0.68260  0.22970  0.64550  Biso   1.000  H
  C216     1.0000 0.05660  0.96260  0.28150  Biso   1.000  C
  H183     1.0000 0.04330  0.93150  0.28440  Biso   1.000  H
  C217     1.0000 0.20820  0.10900  0.55160  Biso   1.000  C
  H184     1.0000 0.20050  0.12720  0.58160  Biso   1.000  H
  C218     1.0000 0.79360  0.91840  0.67140  Biso   1.000  C
  H185     1.0000 0.80860  0.93700  0.64510  Biso   1.000  H
  C219     1.0000 0.08000  0.97660  0.23570  Biso   1.000  C
  C220     1.0000 0.54740  0.26690  0.73340  Biso   1.000  C
  C221     1.0000 0.86100  0.29620  0.74640  Biso   1.000  C
  H186     1.0000 0.86290  0.29280  0.70970  Biso   1.000  H
  C222     1.0000 0.19990  0.06490  0.48230  Biso   1.000  C
  H187     1.0000 0.18550  0.04590  0.45600  Biso   1.000  H
  C223     1.0000 0.51080  0.26790  0.69730  Biso   1.000  C
  H188     1.0000 0.51820  0.26880  0.66130  Biso   1.000  H
  C224     1.0000 0.75690  0.89600  0.74390  Biso   1.000  C
  H189     1.0000 0.74220  0.89740  0.77720  Biso   1.000  H
  C225     1.0000 0.77720  0.99780  0.78640  Biso   1.000  C
  H190     1.0000 0.78320  0.97360  0.81140  Biso   1.000  H
  C226     1.0000 0.09790  0.02480  0.23010  Biso   1.000  C
  H191     1.0000 0.11240  0.03480  0.19860  Biso   1.000  H
  C227     1.0000 0.76350  0.06900  0.71110  Biso   1.000  C
  H192     1.0000 0.75950  0.09280  0.68520  Biso   1.000  H
  C228     1.0000 0.07150  0.04170  0.31920  Biso   1.000  C
  C229     1.0000 0.07660  0.05900  0.41550  Biso   1.000  C
  H193     1.0000 0.07510  0.02660  0.42620  Biso   1.000  H
  C230     1.0000 0.09660  0.89480  0.19930  Biso   1.000  C
  H194     1.0000 0.09730  0.87720  0.23080  Biso   1.000  H
  C231     1.0000 0.76870  0.17070  0.74850  Biso   1.000  C
  H195     1.0000 0.78270  0.16930  0.71480  Biso   1.000  H
  C232     1.0000 0.77170  0.98590  0.73510  Biso   1.000  C
  C233     1.0000 0.63710  0.27880  0.73960  Biso   1.000  C
  H196     1.0000 0.63610  0.29640  0.77110  Biso   1.000  H
  C234     1.0000 0.76590  0.08190  0.76330  Biso   1.000  C
  C235     1.0000 0.95200  0.29980  0.76430  Biso   1.000  C
  C236     1.0000 0.78650  0.86950  0.67100  Biso   1.000  C
  H197     1.0000 0.79600  0.84850  0.64390  Biso   1.000  H
  C237     1.0000 0.05270  0.99570  0.32390  Biso   1.000  C
  H198     1.0000 0.03730  0.98630  0.35520  Biso   1.000  H
  C238     1.0000 0.09010  0.95310  0.14110  Biso   1.000  C
  H199     1.0000 0.08600  0.98410  0.12680  Biso   1.000  H
  C239     1.0000 0.28530  0.06520  0.44610  Biso   1.000  C
  C240     1.0000 0.09350  0.05670  0.27230  Biso   1.000  C
  H200     1.0000 0.10520  0.08840  0.26920  Biso   1.000  H
  W61      1.0000 0.69158  0.31996  0.87671  Biso   1.000  W
  W62      1.0000 0.53685  0.38659  0.03433  Biso   1.000  W
  W63      1.0000 0.70742  0.26221  0.10850  Biso   1.000  W
  W64      1.0000 0.64602  0.43021  0.08063  Biso   1.000  W
  W65      1.0000 0.75612  0.25590  0.98514  Biso   1.000  W
  W66      1.0000 0.58919  0.21518  0.06031  Biso   1.000  W
  W67      1.0000 0.63756  0.20927  0.93633  Biso   1.000  W
  W68      1.0000 0.53234  0.27242  0.95735  Biso   1.000  W
  W69      1.0000 0.76024  0.36309  0.05339  Biso   1.000  W
  W70      1.0000 0.58614  0.38282  0.89832  Biso   1.000  W
  W71      1.0000 0.69633  0.42645  0.94417  Biso   1.000  W
  W72      1.0000 0.59440  0.32986  0.13622  Biso   1.000  W
  Co11     1.0000 0.40150  0.41062  0.02931  Biso   1.000  Co
  Co12     1.0000 0.75113  0.21621  0.24240  Biso   1.000  Co
  P6       1.0000 0.64452  0.32089  0.00565  Biso   1.000  P
  O156     1.0000 0.65270  0.34850  0.95350  Biso   1.000  O
  O157     1.0000 0.48040  0.41390  0.03600  Biso   1.000  O
  O158     1.0000 0.72590  0.23260  0.16470  Biso   1.000  O
  O159     1.0000 0.69460  0.30650  0.02910  Biso   1.000  O
  O160     1.0000 0.62420  0.39340  0.13920  Biso   1.000  O
  O161     1.0000 0.65610  0.22260  0.08460  Biso   1.000  O
  O162     1.0000 0.74240  0.39610  0.98960  Biso   1.000  O
  O163     1.0000 0.55920  0.40200  0.96490  Biso   1.000  O
  O164     1.0000 0.63540  0.43240  0.90610  Biso   1.000  O
  O165     1.0000 0.61700  0.35370  0.04520  Biso   1.000  O
  O166     1.0000 0.55580  0.32150  0.91080  Biso   1.000  O
  O167     1.0000 0.56960  0.22450  0.92070  Biso   1.000  O
  O168     1.0000 0.61510  0.18010  0.00030  Biso   1.000  O
  O169     1.0000 0.75230  0.31650  0.10910  Biso   1.000  O
  O170     1.0000 0.66170  0.44340  0.00710  Biso   1.000  O
  O171     1.0000 0.65580  0.26190  0.89050  Biso   1.000  O
  O172     1.0000 0.73880  0.29510  0.92520  Biso   1.000  O
  O173     1.0000 0.74990  0.23380  0.05650  Biso   1.000  O
  O174     1.0000 0.52190  0.32440  0.00720  Biso   1.000  O
  O175     1.0000 0.71720  0.38390  0.88760  Biso   1.000  O
  O176     1.0000 0.53870  0.35960  0.10420  Biso   1.000  O
  O177     1.0000 0.65870  0.30360  0.13640  Biso   1.000  O
  O178     1.0000 0.78950  0.31240  0.01300  Biso   1.000  O
  O179     1.0000 0.70110  0.21720  0.96680  Biso   1.000  O
  O180     1.0000 0.53270  0.22910  0.01850  Biso   1.000  O
  O181     1.0000 0.57790  0.43810  0.06090  Biso   1.000  O
  O182     1.0000 0.57640  0.27010  0.10310  Biso   1.000  O
  O183     1.0000 0.61410  0.27490  0.99470  Biso   1.000  O
  O184     1.0000 0.71890  0.30610  0.81770  Biso   1.000  O
  O185     1.0000 0.63260  0.34970  0.85280  Biso   1.000  O
  O186     1.0000 0.70760  0.39980  0.08420  Biso   1.000  O
  N81      1.0000 0.04990  0.49610  0.78160  Biso   1.000  N
  N82      1.0000 0.25190  0.42450  0.98470  Biso   1.000  N
  N83      1.0000 0.82280  0.23300  0.21540  Biso   1.000  N
  N84      1.0000 0.11220  0.46090  0.82350  Biso   1.000  N
  N85      1.0000 0.90330  0.23750  0.21390  Biso   1.000  N
  N86      1.0000 0.41200  0.55720  0.69380  Biso   1.000  N
  N87      1.0000 0.32420  0.41540  0.02170  Biso   1.000  N
  N88      1.0000 0.72570  0.56490  0.21810  Biso   1.000  N
  N89      1.0000 0.74470  0.28890  0.27140  Biso   1.000  N
  N90      1.0000 0.73980  0.36820  0.27830  Biso   1.000  N
  N91      1.0000 0.68030  0.20280  0.27200  Biso   1.000  N
  N92      1.0000 0.42850  0.42610  0.86350  Biso   1.000  N
  N93      1.0000 0.59930  0.19950  0.27750  Biso   1.000  N
  N94      1.0000 0.40150  0.58580  0.61310  Biso   1.000  N
  N95      1.0000 0.73710  0.64430  0.21720  Biso   1.000  N
  N96      1.0000 0.41640  0.40530  0.94780  Biso   1.000  N
  C241     1.0000 0.08050  0.49630  0.81910  Biso   1.000  C
  H201     1.0000 0.08050  0.52160  0.84360  Biso   1.000  H
  C242     1.0000 0.10600  0.43100  0.78400  Biso   1.000  C
  H202     1.0000 0.12060  0.40110  0.77590  Biso   1.000  H
  C243     1.0000 0.06640  0.45920  0.75300  Biso   1.000  C
  H203     1.0000 0.05550  0.45140  0.71950  Biso   1.000  H
  C244     1.0000 0.66930  0.20170  0.32210  Biso   1.000  C
  H204     1.0000 0.69180  0.20230  0.34990  Biso   1.000  H
  C245     1.0000 0.61740  0.19920  0.32810  Biso   1.000  C
  H205     1.0000 0.59960  0.19770  0.35960  Biso   1.000  H
  C246     1.0000 0.53400  0.21050  0.21530  Biso   1.000  C
  H206     1.0000 0.55670  0.22260  0.19100  Biso   1.000  H
  C247     1.0000 0.51490  0.20320  0.30040  Biso   1.000  C
  H207     1.0000 0.52320  0.20070  0.33610  Biso   1.000  H
  C248     1.0000 0.76480  0.30400  0.31810  Biso   1.000  C
  H208     1.0000 0.77860  0.28310  0.34300  Biso   1.000  H
  C249     1.0000 0.14710  0.45150  0.86810  Biso   1.000  C
  C250     1.0000 0.15700  0.40560  0.88250  Biso   1.000  C
  H209     1.0000 0.14030  0.37990  0.86650  Biso   1.000  H
  C251     1.0000 0.19290  0.39590  0.92250  Biso   1.000  C
  H210     1.0000 0.20100  0.36420  0.93190  Biso   1.000  H
  C252     1.0000 0.76230  0.35320  0.32400  Biso   1.000  C
  H211     1.0000 0.77320  0.37210  0.35230  Biso   1.000  H
  C253     1.0000 0.24520  0.39700  0.03100  Biso   1.000  C
  H212     1.0000 0.21590  0.38530  0.04490  Biso   1.000  H
  C254     1.0000 0.88760  0.25970  0.16970  Biso   1.000  C
  H213     1.0000 0.90680  0.27400  0.14340  Biso   1.000  H
  C255     1.0000 0.39570  0.62330  0.64910  Biso   1.000  C
  H214     1.0000 0.38800  0.65540  0.64070  Biso   1.000  H
  C256     1.0000 0.17140  0.49100  0.89120  Biso   1.000  C
  H215     1.0000 0.16540  0.52270  0.87980  Biso   1.000  H
  C257     1.0000 0.96190  0.23220  0.28630  Biso   1.000  C
  H216     1.0000 0.93640  0.23180  0.31080  Biso   1.000  H
  C258     1.0000 0.72610  0.45400  0.30230  Biso   1.000  C
  H217     1.0000 0.72310  0.44550  0.33790  Biso   1.000  H
  C259     1.0000 0.20400  0.48190  0.93110  Biso   1.000  C
  H218     1.0000 0.21910  0.50780  0.94840  Biso   1.000  H
  C260     1.0000 0.42460  0.37660  0.86560  Biso   1.000  C
  H219     1.0000 0.42660  0.35570  0.83660  Biso   1.000  H
  C261     1.0000 0.41760  0.36280  0.91580  Biso   1.000  C
  H220     1.0000 0.41400  0.33090  0.92770  Biso   1.000  H
  C262     1.0000 0.73300  0.47990  0.19680  Biso   1.000  C
  H221     1.0000 0.73380  0.48890  0.16120  Biso   1.000  H
  C263     1.0000 0.83810  0.25730  0.17120  Biso   1.000  C
  H222     1.0000 0.81740  0.27030  0.14550  Biso   1.000  H
  C264     1.0000 0.44340  0.53740  0.78150  Biso   1.000  C
  H223     1.0000 0.45670  0.56850  0.78440  Biso   1.000  H
  C265     1.0000 0.29180  0.39100  0.05160  Biso   1.000  C
  H224     1.0000 0.29950  0.37280  0.08160  Biso   1.000  H
  C266     1.0000 0.70640  0.58160  0.17140  Biso   1.000  C
  H225     1.0000 0.69140  0.56300  0.14510  Biso   1.000  H
  C267     1.0000 0.42000  0.52340  0.73570  Biso   1.000  C
  C268     1.0000 0.95260  0.23310  0.23340  Biso   1.000  C
  C269     1.0000 0.63900  0.20380  0.24640  Biso   1.000  C
  H226     1.0000 0.63710  0.20720  0.20970  Biso   1.000  H
  C270     1.0000 0.30010  0.43510  0.98230  Biso   1.000  C
  H227     1.0000 0.31450  0.45410  0.95600  Biso   1.000  H
  C271     1.0000 0.98920  0.23210  0.19730  Biso   1.000  C
  H228     1.0000 0.98180  0.23120  0.16130  Biso   1.000  H
  C272     1.0000 0.74310  0.60400  0.24390  Biso   1.000  C
  H229     1.0000 0.75780  0.60260  0.27720  Biso   1.000  H
  C273     1.0000 0.72280  0.50220  0.28640  Biso   1.000  C
  H230     1.0000 0.71680  0.52640  0.31140  Biso   1.000  H
  C274     1.0000 0.40210  0.47520  0.73010  Biso   1.000  C
  H231     1.0000 0.38760  0.46520  0.69860  Biso   1.000  H
  C275     1.0000 0.73650  0.43100  0.21110  Biso   1.000  C
  H232     1.0000 0.74050  0.40720  0.18520  Biso   1.000  H
  C276     1.0000 0.42850  0.45830  0.81920  Biso   1.000  C
  C277     1.0000 0.42340  0.44100  0.91550  Biso   1.000  C
  H233     1.0000 0.42490  0.47340  0.92620  Biso   1.000  H
  C278     1.0000 0.40340  0.60520  0.69930  Biso   1.000  C
  H234     1.0000 0.40270  0.62280  0.73080  Biso   1.000  H
  C279     1.0000 0.73130  0.32930  0.24850  Biso   1.000  C
  H235     1.0000 0.71730  0.33070  0.21480  Biso   1.000  H
  C280     1.0000 0.72830  0.51410  0.23510  Biso   1.000  C
  C281     1.0000 0.86290  0.22120  0.23960  Biso   1.000  C
  H236     1.0000 0.86390  0.20360  0.27110  Biso   1.000  H
  C282     1.0000 0.73410  0.41810  0.26330  Biso   1.000  C
  C283     1.0000 0.54800  0.20020  0.26430  Biso   1.000  C
  C284     1.0000 0.71350  0.63050  0.17100  Biso   1.000  C
  H237     1.0000 0.70400  0.65150  0.14390  Biso   1.000  H
  C285     1.0000 0.44730  0.50430  0.82390  Biso   1.000  C
  H238     1.0000 0.46270  0.51370  0.85520  Biso   1.000  H
  C286     1.0000 0.40990  0.54690  0.64110  Biso   1.000  C
  H239     1.0000 0.41400  0.51590  0.62680  Biso   1.000  H
  C287     1.0000 0.21470  0.43480  0.94610  Biso   1.000  C
  C288     1.0000 0.40650  0.44330  0.77230  Biso   1.000  C
  H240     1.0000 0.39480  0.41160  0.76920  Biso   1.000  H
  W73      1.0000 0.19158  0.18004  0.12329  Biso   1.000  W
  W74      1.0000 0.03685  0.11341  0.96567  Biso   1.000  W
  W75      1.0000 0.20742  0.23779  0.89150  Biso   1.000  W
  W76      1.0000 0.14602  0.06979  0.91937  Biso   1.000  W
  W77      1.0000 0.25612  0.24410  0.01486  Biso   1.000  W
  W78      1.0000 0.08919  0.28482  0.93969  Biso   1.000  W
  W79      1.0000 0.13756  0.29073  0.06367  Biso   1.000  W
  W80      1.0000 0.03234  0.22758  0.04265  Biso   1.000  W
  W81      1.0000 0.26024  0.13691  0.94661  Biso   1.000  W
  W82      1.0000 0.08614  0.11718  0.10168  Biso   1.000  W
  W83      1.0000 0.19633  0.07355  0.05583  Biso   1.000  W
  W84      1.0000 0.09440  0.17014  0.86378  Biso   1.000  W
  Co13     1.0000 0.90150  0.08938  0.97069  Biso   1.000  Co
  Co14     1.0000 0.25113  0.28379  0.75760  Biso   1.000  Co
  P7       1.0000 0.14452  0.17911  0.99435  Biso   1.000  P
  O187     1.0000 0.15270  0.15150  0.04650  Biso   1.000  O
  O188     1.0000 0.98040  0.08610  0.96400  Biso   1.000  O
  O189     1.0000 0.22590  0.26740  0.83530  Biso   1.000  O
  O190     1.0000 0.19460  0.19350  0.97090  Biso   1.000  O
  O191     1.0000 0.12420  0.10660  0.86080  Biso   1.000  O
  O192     1.0000 0.15610  0.27740  0.91540  Biso   1.000  O
  O193     1.0000 0.24240  0.10390  0.01040  Biso   1.000  O
  O194     1.0000 0.05920  0.09800  0.03510  Biso   1.000  O
  O195     1.0000 0.13540  0.06760  0.09390  Biso   1.000  O
  O196     1.0000 0.11700  0.14630  0.95480  Biso   1.000  O
  O197     1.0000 0.05580  0.17850  0.08920  Biso   1.000  O
  O198     1.0000 0.06960  0.27550  0.07930  Biso   1.000  O
  O199     1.0000 0.11510  0.31990  0.99970  Biso   1.000  O
  O200     1.0000 0.25230  0.18350  0.89090  Biso   1.000  O
  O201     1.0000 0.16170  0.05660  0.99290  Biso   1.000  O
  O202     1.0000 0.15580  0.23810  0.10950  Biso   1.000  O
  O203     1.0000 0.23880  0.20490  0.07480  Biso   1.000  O
  O204     1.0000 0.24990  0.26620  0.94350  Biso   1.000  O
  O205     1.0000 0.02190  0.17560  0.99280  Biso   1.000  O
  O206     1.0000 0.21720  0.11610  0.11240  Biso   1.000  O
  O207     1.0000 0.03870  0.14040  0.89580  Biso   1.000  O
  O208     1.0000 0.15870  0.19640  0.86360  Biso   1.000  O
  O209     1.0000 0.28950  0.18760  0.98700  Biso   1.000  O
  O210     1.0000 0.20110  0.28280  0.03320  Biso   1.000  O
  O211     1.0000 0.03270  0.27090  0.98150  Biso   1.000  O
  O212     1.0000 0.07790  0.06190  0.93910  Biso   1.000  O
  O213     1.0000 0.07640  0.22990  0.89690  Biso   1.000  O
  O214     1.0000 0.11410  0.22510  0.00530  Biso   1.000  O
  O215     1.0000 0.21890  0.19390  0.18230  Biso   1.000  O
  O216     1.0000 0.13260  0.15030  0.14720  Biso   1.000  O
  O217     1.0000 0.20760  0.10020  0.91580  Biso   1.000  O
  N97      1.0000 0.54990  0.00390  0.21840  Biso   1.000  N
  N98      1.0000 0.75190  0.07550  0.01530  Biso   1.000  N
  N99      1.0000 0.32280  0.26700  0.78460  Biso   1.000  N
  N100     1.0000 0.61220  0.03910  0.17650  Biso   1.000  N
  N101     1.0000 0.40330  0.26250  0.78610  Biso   1.000  N
  N102     1.0000 0.91200  0.94280  0.30620  Biso   1.000  N
  N103     1.0000 0.82420  0.08460  0.97830  Biso   1.000  N
  N104     1.0000 0.22570  0.93510  0.78190  Biso   1.000  N
  N105     1.0000 0.24470  0.21110  0.72860  Biso   1.000  N
  N106     1.0000 0.23980  0.13180  0.72170  Biso   1.000  N
  N107     1.0000 0.18030  0.29720  0.72800  Biso   1.000  N
  N108     1.0000 0.92850  0.07390  0.13650  Biso   1.000  N
  N109     1.0000 0.09930  0.30050  0.72250  Biso   1.000  N
  N110     1.0000 0.90150  0.91420  0.38690  Biso   1.000  N
  N111     1.0000 0.23710  0.85570  0.78280  Biso   1.000  N
  N112     1.0000 0.91640  0.09470  0.05220  Biso   1.000  N
  C289     1.0000 0.58050  0.00370  0.18090  Biso   1.000  C
  H241     1.0000 0.58050  0.97840  0.15640  Biso   1.000  H
  C290     1.0000 0.60600  0.06900  0.21600  Biso   1.000  C
  H242     1.0000 0.62060  0.09890  0.22410  Biso   1.000  H
  C291     1.0000 0.56640  0.04080  0.24700  Biso   1.000  C
  H243     1.0000 0.55550  0.04860  0.28050  Biso   1.000  H
  C292     1.0000 0.16930  0.29830  0.67790  Biso   1.000  C
  H244     1.0000 0.19180  0.29770  0.65010  Biso   1.000  H
  C293     1.0000 0.11740  0.30080  0.67190  Biso   1.000  C
  H245     1.0000 0.09960  0.30230  0.64040  Biso   1.000  H
  C294     1.0000 0.03400  0.28950  0.78470  Biso   1.000  C
  H246     1.0000 0.05670  0.27740  0.80900  Biso   1.000  H
  C295     1.0000 0.01490  0.29680  0.69960  Biso   1.000  C
  H247     1.0000 0.02320  0.29930  0.66390  Biso   1.000  H
  C296     1.0000 0.26480  0.19600  0.68190  Biso   1.000  C
  H248     1.0000 0.27860  0.21690  0.65700  Biso   1.000  H
  C297     1.0000 0.64710  0.04850  0.13190  Biso   1.000  C
  C298     1.0000 0.65700  0.09440  0.11750  Biso   1.000  C
  H249     1.0000 0.64030  0.12010  0.13350  Biso   1.000  H
  C299     1.0000 0.69290  0.10410  0.07750  Biso   1.000  C
  H250     1.0000 0.70100  0.13580  0.06810  Biso   1.000  H
  C300     1.0000 0.26230  0.14680  0.67600  Biso   1.000  C
  H251     1.0000 0.27320  0.12790  0.64770  Biso   1.000  H
  C301     1.0000 0.74520  0.10300  0.96900  Biso   1.000  C
  H252     1.0000 0.71590  0.11470  0.95510  Biso   1.000  H
  C302     1.0000 0.38760  0.24030  0.83030  Biso   1.000  C
  H253     1.0000 0.40680  0.22600  0.85660  Biso   1.000  H
  C303     1.0000 0.89570  0.87670  0.35090  Biso   1.000  C
  H254     1.0000 0.88800  0.84460  0.35930  Biso   1.000  H
  C304     1.0000 0.67140  0.00900  0.10880  Biso   1.000  C
  H255     1.0000 0.66540  0.97730  0.12020  Biso   1.000  H
  C305     1.0000 0.46190  0.26780  0.71370  Biso   1.000  C
  H256     1.0000 0.43640  0.26820  0.68920  Biso   1.000  H
  C306     1.0000 0.22610  0.04600  0.69770  Biso   1.000  C
  H257     1.0000 0.22310  0.05450  0.66210  Biso   1.000  H
  C307     1.0000 0.70400  0.01810  0.06890  Biso   1.000  C
  H258     1.0000 0.71910  0.99220  0.05160  Biso   1.000  H
  C308     1.0000 0.92460  0.12340  0.13440  Biso   1.000  C
  H259     1.0000 0.92660  0.14430  0.16340  Biso   1.000  H
  C309     1.0000 0.91760  0.13720  0.08420  Biso   1.000  C
  H260     1.0000 0.91400  0.16910  0.07230  Biso   1.000  H
  C310     1.0000 0.23300  0.02010  0.80320  Biso   1.000  C
  H261     1.0000 0.23380  0.01110  0.83880  Biso   1.000  H
  C311     1.0000 0.33810  0.24270  0.82880  Biso   1.000  C
  H262     1.0000 0.31740  0.22970  0.85450  Biso   1.000  H
  C312     1.0000 0.94340  0.96260  0.21850  Biso   1.000  C
  H263     1.0000 0.95670  0.93150  0.21560  Biso   1.000  H
  C313     1.0000 0.79180  0.10900  0.94840  Biso   1.000  C
  H264     1.0000 0.79950  0.12720  0.91840  Biso   1.000  H
  C314     1.0000 0.20640  0.91840  0.82860  Biso   1.000  C
  H265     1.0000 0.19140  0.93700  0.85490  Biso   1.000  H
  C315     1.0000 0.92000  0.97660  0.26430  Biso   1.000  C
  C316     1.0000 0.45260  0.26690  0.76660  Biso   1.000  C
  C317     1.0000 0.13900  0.29620  0.75360  Biso   1.000  C
  H266     1.0000 0.13710  0.29280  0.79030  Biso   1.000  H
  C318     1.0000 0.80010  0.06490  0.01770  Biso   1.000  C
  H267     1.0000 0.81450  0.04590  0.04400  Biso   1.000  H
  C319     1.0000 0.48920  0.26790  0.80270  Biso   1.000  C
  H268     1.0000 0.48180  0.26880  0.83870  Biso   1.000  H
  C320     1.0000 0.24310  0.89600  0.75610  Biso   1.000  C
  H269     1.0000 0.25780  0.89740  0.72280  Biso   1.000  H
  C321     1.0000 0.22280  0.99780  0.71360  Biso   1.000  C
  H270     1.0000 0.21680  0.97360  0.68860  Biso   1.000  H
  C322     1.0000 0.90210  0.02480  0.26990  Biso   1.000  C
  H271     1.0000 0.88760  0.03480  0.30140  Biso   1.000  H
  C323     1.0000 0.23650  0.06900  0.78890  Biso   1.000  C
  H272     1.0000 0.24050  0.09280  0.81480  Biso   1.000  H
  C324     1.0000 0.92850  0.04170  0.18080  Biso   1.000  C
  C325     1.0000 0.92340  0.05900  0.08450  Biso   1.000  C
  H273     1.0000 0.92490  0.02660  0.07380  Biso   1.000  H
  C326     1.0000 0.90340  0.89480  0.30070  Biso   1.000  C
  H274     1.0000 0.90270  0.87720  0.26920  Biso   1.000  H
  C327     1.0000 0.23130  0.17070  0.75150  Biso   1.000  C
  H275     1.0000 0.21730  0.16930  0.78520  Biso   1.000  H
  C328     1.0000 0.22830  0.98590  0.76490  Biso   1.000  C
  C329     1.0000 0.36290  0.27880  0.76040  Biso   1.000  C
  H276     1.0000 0.36390  0.29640  0.72890  Biso   1.000  H
  C330     1.0000 0.23410  0.08190  0.73670  Biso   1.000  C
  C331     1.0000 0.04800  0.29980  0.73570  Biso   1.000  C
  C332     1.0000 0.21350  0.86950  0.82900  Biso   1.000  C
  H277     1.0000 0.20400  0.84850  0.85610  Biso   1.000  H
  C333     1.0000 0.94730  0.99570  0.17610  Biso   1.000  C
  H278     1.0000 0.96270  0.98630  0.14480  Biso   1.000  H
  C334     1.0000 0.90990  0.95310  0.35890  Biso   1.000  C
  H279     1.0000 0.91400  0.98410  0.37320  Biso   1.000  H
  C335     1.0000 0.71470  0.06520  0.05390  Biso   1.000  C
  C336     1.0000 0.90650  0.05670  0.22770  Biso   1.000  C
  H280     1.0000 0.89480  0.08840  0.23080  Biso   1.000  H
  W85      1.0000 0.30842  0.31996  0.62329  Biso   1.000  W
  W86      1.0000 0.46315  0.38659  0.46567  Biso   1.000  W
  W87      1.0000 0.29258  0.26221  0.39150  Biso   1.000  W
  W88      1.0000 0.35398  0.43021  0.41937  Biso   1.000  W
  W89      1.0000 0.24388  0.25590  0.51486  Biso   1.000  W
  W90      1.0000 0.41081  0.21518  0.43969  Biso   1.000  W
  W91      1.0000 0.36244  0.20927  0.56367  Biso   1.000  W
  W92      1.0000 0.46766  0.27242  0.54265  Biso   1.000  W
  W93      1.0000 0.23976  0.36309  0.44661  Biso   1.000  W
  W94      1.0000 0.41386  0.38282  0.60168  Biso   1.000  W
  W95      1.0000 0.30367  0.42645  0.55583  Biso   1.000  W
  W96      1.0000 0.40560  0.32986  0.36378  Biso   1.000  W
  Co15     1.0000 0.59850  0.41062  0.47069  Biso   1.000  Co
  Co16     1.0000 0.24887  0.21621  0.25760  Biso   1.000  Co
  P8       1.0000 0.35548  0.32089  0.49435  Biso   1.000  P
  O218     1.0000 0.34730  0.34850  0.54650  Biso   1.000  O
  O219     1.0000 0.51960  0.41390  0.46400  Biso   1.000  O
  O220     1.0000 0.27410  0.23260  0.33530  Biso   1.000  O
  O221     1.0000 0.30540  0.30650  0.47090  Biso   1.000  O
  O222     1.0000 0.37580  0.39340  0.36080  Biso   1.000  O
  O223     1.0000 0.34390  0.22260  0.41540  Biso   1.000  O
  O224     1.0000 0.25760  0.39610  0.51040  Biso   1.000  O
  O225     1.0000 0.44080  0.40200  0.53510  Biso   1.000  O
  O226     1.0000 0.36460  0.43240  0.59390  Biso   1.000  O
  O227     1.0000 0.38300  0.35370  0.45480  Biso   1.000  O
  O228     1.0000 0.44420  0.32150  0.58920  Biso   1.000  O
  O229     1.0000 0.43040  0.22450  0.57930  Biso   1.000  O
  O230     1.0000 0.38490  0.18010  0.49970  Biso   1.000  O
  O231     1.0000 0.24770  0.31650  0.39090  Biso   1.000  O
  O232     1.0000 0.33830  0.44340  0.49290  Biso   1.000  O
  O233     1.0000 0.34420  0.26190  0.60950  Biso   1.000  O
  O234     1.0000 0.26120  0.29510  0.57480  Biso   1.000  O
  O235     1.0000 0.25010  0.23380  0.44350  Biso   1.000  O
  O236     1.0000 0.47810  0.32440  0.49280  Biso   1.000  O
  O237     1.0000 0.28280  0.38390  0.61240  Biso   1.000  O
  O238     1.0000 0.46130  0.35960  0.39580  Biso   1.000  O
  O239     1.0000 0.34130  0.30360  0.36360  Biso   1.000  O
  O240     1.0000 0.21050  0.31240  0.48700  Biso   1.000  O
  O241     1.0000 0.29890  0.21720  0.53320  Biso   1.000  O
  O242     1.0000 0.46730  0.22910  0.48150  Biso   1.000  O
  O243     1.0000 0.42210  0.43810  0.43910  Biso   1.000  O
  O244     1.0000 0.42360  0.27010  0.39690  Biso   1.000  O
  O245     1.0000 0.38590  0.27490  0.50530  Biso   1.000  O
  O246     1.0000 0.28110  0.30610  0.68230  Biso   1.000  O
  O247     1.0000 0.36740  0.34970  0.64720  Biso   1.000  O
  O248     1.0000 0.29240  0.39980  0.41580  Biso   1.000  O
  N113     1.0000 0.95010  0.49610  0.71840  Biso   1.000  N
  N114     1.0000 0.74810  0.42450  0.51530  Biso   1.000  N
  N115     1.0000 0.17720  0.23300  0.28460  Biso   1.000  N
  N116     1.0000 0.88780  0.46090  0.67650  Biso   1.000  N
  N117     1.0000 0.09670  0.23750  0.28610  Biso   1.000  N
  N118     1.0000 0.58800  0.55720  0.80620  Biso   1.000  N
  N119     1.0000 0.67580  0.41540  0.47830  Biso   1.000  N
  N120     1.0000 0.27430  0.56490  0.28190  Biso   1.000  N
  N121     1.0000 0.25530  0.28890  0.22860  Biso   1.000  N
  N122     1.0000 0.26020  0.36820  0.22170  Biso   1.000  N
  N123     1.0000 0.31970  0.20280  0.22800  Biso   1.000  N
  N124     1.0000 0.57150  0.42610  0.63650  Biso   1.000  N
  N125     1.0000 0.40070  0.19950  0.22250  Biso   1.000  N
  N126     1.0000 0.59850  0.58580  0.88690  Biso   1.000  N
  N127     1.0000 0.26290  0.64430  0.28280  Biso   1.000  N
  N128     1.0000 0.58360  0.40530  0.55220  Biso   1.000  N
  C337     1.0000 0.91950  0.49630  0.68090  Biso   1.000  C
  H281     1.0000 0.91950  0.52160  0.65640  Biso   1.000  H
  C338     1.0000 0.89400  0.43100  0.71600  Biso   1.000  C
  H282     1.0000 0.87940  0.40110  0.72410  Biso   1.000  H
  C339     1.0000 0.93360  0.45920  0.74700  Biso   1.000  C
  H283     1.0000 0.94450  0.45140  0.78050  Biso   1.000  H
  C340     1.0000 0.33070  0.20170  0.17790  Biso   1.000  C
  H284     1.0000 0.30820  0.20230  0.15010  Biso   1.000  H
  C341     1.0000 0.38260  0.19920  0.17190  Biso   1.000  C
  H285     1.0000 0.40040  0.19770  0.14040  Biso   1.000  H
  C342     1.0000 0.46600  0.21050  0.28470  Biso   1.000  C
  H286     1.0000 0.44330  0.22260  0.30900  Biso   1.000  H
  C343     1.0000 0.48510  0.20320  0.19960  Biso   1.000  C
  H287     1.0000 0.47680  0.20070  0.16390  Biso   1.000  H
  C344     1.0000 0.23520  0.30400  0.18190  Biso   1.000  C
  H288     1.0000 0.22140  0.28310  0.15700  Biso   1.000  H
  C345     1.0000 0.85290  0.45150  0.63190  Biso   1.000  C
  C346     1.0000 0.84300  0.40560  0.61750  Biso   1.000  C
  H289     1.0000 0.85970  0.37990  0.63350  Biso   1.000  H
  C347     1.0000 0.80710  0.39590  0.57750  Biso   1.000  C
  H290     1.0000 0.79900  0.36420  0.56810  Biso   1.000  H
  C348     1.0000 0.23770  0.35320  0.17600  Biso   1.000  C
  H291     1.0000 0.22680  0.37210  0.14770  Biso   1.000  H
  C349     1.0000 0.75480  0.39700  0.46900  Biso   1.000  C
  H292     1.0000 0.78410  0.38530  0.45510  Biso   1.000  H
  C350     1.0000 0.11240  0.25970  0.33030  Biso   1.000  C
  H293     1.0000 0.09320  0.27400  0.35660  Biso   1.000  H
  C351     1.0000 0.60430  0.62330  0.85090  Biso   1.000  C
  H294     1.0000 0.61200  0.65540  0.85930  Biso   1.000  H
  C352     1.0000 0.82860  0.49100  0.60880  Biso   1.000  C
  H295     1.0000 0.83460  0.52270  0.62020  Biso   1.000  H
  C353     1.0000 0.03810  0.23220  0.21370  Biso   1.000  C
  H296     1.0000 0.06360  0.23180  0.18920  Biso   1.000  H
  C354     1.0000 0.27390  0.45400  0.19770  Biso   1.000  C
  H297     1.0000 0.27690  0.44550  0.16210  Biso   1.000  H
  C355     1.0000 0.79600  0.48190  0.56890  Biso   1.000  C
  H298     1.0000 0.78090  0.50780  0.55160  Biso   1.000  H
  C356     1.0000 0.57540  0.37660  0.63440  Biso   1.000  C
  H299     1.0000 0.57340  0.35570  0.66340  Biso   1.000  H
  C357     1.0000 0.58240  0.36280  0.58420  Biso   1.000  C
  H300     1.0000 0.58600  0.33090  0.57230  Biso   1.000  H
  C358     1.0000 0.26700  0.47990  0.30320  Biso   1.000  C
  H301     1.0000 0.26620  0.48890  0.33880  Biso   1.000  H
  C359     1.0000 0.16190  0.25730  0.32880  Biso   1.000  C
  H302     1.0000 0.18260  0.27030  0.35450  Biso   1.000  H
  C360     1.0000 0.55660  0.53740  0.71850  Biso   1.000  C
  H303     1.0000 0.54330  0.56850  0.71560  Biso   1.000  H
  C361     1.0000 0.70820  0.39100  0.44840  Biso   1.000  C
  H304     1.0000 0.70050  0.37280  0.41840  Biso   1.000  H
  C362     1.0000 0.29360  0.58160  0.32860  Biso   1.000  C
  H305     1.0000 0.30860  0.56300  0.35490  Biso   1.000  H
  C363     1.0000 0.58000  0.52340  0.76430  Biso   1.000  C
  C364     1.0000 0.04740  0.23310  0.26660  Biso   1.000  C
  C365     1.0000 0.36100  0.20380  0.25360  Biso   1.000  C
  H306     1.0000 0.36290  0.20720  0.29030  Biso   1.000  H
  C366     1.0000 0.69990  0.43510  0.51770  Biso   1.000  C
  H307     1.0000 0.68550  0.45410  0.54400  Biso   1.000  H
  C367     1.0000 0.01080  0.23210  0.30270  Biso   1.000  C
  H308     1.0000 0.01820  0.23120  0.33870  Biso   1.000  H
  C368     1.0000 0.25690  0.60400  0.25610  Biso   1.000  C
  H309     1.0000 0.24220  0.60260  0.22280  Biso   1.000  H
  C369     1.0000 0.27720  0.50220  0.21360  Biso   1.000  C
  H310     1.0000 0.28320  0.52640  0.18860  Biso   1.000  H
  C370     1.0000 0.59790  0.47520  0.76990  Biso   1.000  C
  H311     1.0000 0.61240  0.46520  0.80140  Biso   1.000  H
  C371     1.0000 0.26350  0.43100  0.28890  Biso   1.000  C
  H312     1.0000 0.25950  0.40720  0.31480  Biso   1.000  H
  C372     1.0000 0.57150  0.45830  0.68080  Biso   1.000  C
  C373     1.0000 0.57660  0.44100  0.58450  Biso   1.000  C
  H313     1.0000 0.57510  0.47340  0.57380  Biso   1.000  H
  C374     1.0000 0.59660  0.60520  0.80070  Biso   1.000  C
  H314     1.0000 0.59730  0.62280  0.76920  Biso   1.000  H
  C375     1.0000 0.26870  0.32930  0.25150  Biso   1.000  C
  H315     1.0000 0.28270  0.33070  0.28520  Biso   1.000  H
  C376     1.0000 0.27170  0.51410  0.26490  Biso   1.000  C
  C377     1.0000 0.13710  0.22120  0.26040  Biso   1.000  C
  H316     1.0000 0.13610  0.20360  0.22890  Biso   1.000  H
  C378     1.0000 0.26590  0.41810  0.23670  Biso   1.000  C
  C379     1.0000 0.45200  0.20020  0.23570  Biso   1.000  C
  C380     1.0000 0.28650  0.63050  0.32900  Biso   1.000  C
  H317     1.0000 0.29600  0.65150  0.35610  Biso   1.000  H
  C381     1.0000 0.55270  0.50430  0.67610  Biso   1.000  C
  H318     1.0000 0.53730  0.51370  0.64480  Biso   1.000  H
  C382     1.0000 0.59010  0.54690  0.85890  Biso   1.000  C
  H319     1.0000 0.58600  0.51590  0.87320  Biso   1.000  H
  C383     1.0000 0.78530  0.43480  0.55390  Biso   1.000  C
  C384     1.0000 0.59350  0.44330  0.72770  Biso   1.000  C
  H320     1.0000 0.60520  0.41160  0.73080  Biso   1.000  H
  Co17     1.0000 0.50000  0.04720  0.75000  Biso   1.000  Co
  Co18     1.0000 0.00000  0.45280  0.25000  Biso   1.000  Co
  Co19     1.0000 0.50000  0.95280  0.25000  Biso   1.000  Co
  Co20     1.0000 0.00000  0.54720  0.75000  Biso   1.000  Co
