data_image0
_cell_length_a       18.9175
_cell_length_b       18.9175
_cell_length_c       71.908
_cell_angle_alpha    90
_cell_angle_beta     90
_cell_angle_gamma    90

_symmetry_space_group_name_H-M    "P 1"
_symmetry_int_tables_number       1

loop_
  _symmetry_equiv_pos_as_xyz
  'x, y, z'

loop_
  _atom_site_label
  _atom_site_occupancy
  _atom_site_fract_x
  _atom_site_fract_y
  _atom_site_fract_z
  _atom_site_thermal_displace_type
  _atom_site_B_iso_or_equiv
  _atom_site_type_symbol
  Al1      1.0000 0.39683  0.64706  0.53690  Biso   1.000  Al
  Al2      1.0000 0.34168  0.67141  0.49945  Biso   1.000  Al
  Al3      1.0000 0.50432  0.52994  0.55566  Biso   1.000  Al
  O1       1.0000 0.46706  0.57874  0.53577  Biso   1.000  O
  H1       1.0000 0.48550  0.56790  0.52380  Biso   1.000  H
  O2       1.0000 0.40867  0.62303  0.48410  Biso   1.000  O
  O3       1.0000 0.44993  0.69850  0.55399  Biso   1.000  O
  C1       1.0000 0.69570  0.85290  0.70337  Biso   1.000  C
  O4       1.0000 0.53797  0.48138  0.57733  Biso   1.000  O
  C2       1.0000 0.56440  0.38960  0.59915  Biso   1.000  C
  C3       1.0000 0.42000  0.25850  0.69031  Biso   1.000  C
  O5       1.0000 0.49065  0.60678  0.57197  Biso   1.000  O
  C4       1.0000 0.55770  0.29140  0.65245  Biso   1.000  C
  C5       1.0000 0.20620  0.00310  0.67913  Biso   1.000  C
  C6       1.0000 0.47370  0.67390  0.56947  Biso   1.000  C
  C7       1.0000 0.33260  0.94040  0.66495  Biso   1.000  C
  C8       1.0000 0.46620  0.83750  0.63709  Biso   1.000  C
  C9       1.0000 0.60060  0.32580  0.60214  Biso   1.000  C
  H2       1.0000 0.62660  0.30410  0.59240  Biso   1.000  H
  C10      1.0000 0.40360  0.87320  0.64207  Biso   1.000  C
  H3       1.0000 0.36530  0.87460  0.63350  Biso   1.000  H
  C11      1.0000 0.56330  0.42080  0.57954  Biso   1.000  C
  C12      1.0000 0.70720  0.86310  0.68381  Biso   1.000  C
  H4       1.0000 0.75380  0.86430  0.67890  Biso   1.000  H
  C13      1.0000 0.29370  0.25180  0.69014  Biso   1.000  C
  H5       1.0000 0.25070  0.24960  0.68330  Biso   1.000  H
  C14      1.0000 0.54780  0.21970  0.68643  Biso   1.000  C
  H6       1.0000 0.54490  0.19510  0.69790  Biso   1.000  H
  C15      1.0000 0.49870  0.29680  0.66312  Biso   1.000  C
  H7       1.0000 0.46140  0.32670  0.65910  Biso   1.000  H
  C16      1.0000 0.39710  0.90580  0.65906  Biso   1.000  C
  C17      1.0000 0.27300  0.03710  0.68035  Biso   1.000  C
  H8       1.0000 0.27490  0.08270  0.68590  Biso   1.000  H
  C18      1.0000 0.52020  0.87400  0.66548  Biso   1.000  C
  C19      1.0000 0.47710  0.71830  0.58595  Biso   1.000  C
  C20      1.0000 0.41740  0.25860  0.70986  Biso   1.000  C
  H9       1.0000 0.46010  0.26240  0.71670  Biso   1.000  H
  C21      1.0000 0.20680  0.93860  0.67023  Biso   1.000  C
  H10      1.0000 0.16300  0.91490  0.66870  Biso   1.000  H
  C22      1.0000 0.29240  0.24860  0.70953  Biso   1.000  C
  C23      1.0000 0.58000  0.86840  0.67954  Biso   1.000  C
  C24      1.0000 0.61560  0.24940  0.65908  Biso   1.000  C
  H11      1.0000 0.65780  0.24450  0.65200  Biso   1.000  H
  C25      1.0000 0.52390  0.83840  0.64835  Biso   1.000  C
  H12      1.0000 0.56630  0.81520  0.64470  Biso   1.000  H
  C26      1.0000 0.62830  0.85530  0.71020  Biso   1.000  C
  H13      1.0000 0.62030  0.85240  0.72320  Biso   1.000  H
  C27      1.0000 0.49060  0.25880  0.68031  Biso   1.000  C
  C28      1.0000 0.33580  0.00780  0.67396  Biso   1.000  C
  H14      1.0000 0.37960  0.03170  0.67550  Biso   1.000  H
  C29      1.0000 0.35820  0.25850  0.68059  Biso   1.000  C
  H15      1.0000 0.35870  0.26300  0.66740  Biso   1.000  H
  C30      1.0000 0.50710  0.73520  0.61801  Biso   1.000  C
  H16      1.0000 0.53010  0.71940  0.62900  Biso   1.000  H
  C31      1.0000 0.51130  0.69410  0.60206  Biso   1.000  C
  H17      1.0000 0.53660  0.65070  0.60200  Biso   1.000  H
  C32      1.0000 0.47020  0.79850  0.61843  Biso   1.000  C
  C33      1.0000 0.57040  0.86210  0.69783  Biso   1.000  C
  H18      1.0000 0.52360  0.86220  0.70270  Biso   1.000  H
  C34      1.0000 0.64900  0.87130  0.67208  Biso   1.000  C
  H19      1.0000 0.65570  0.87870  0.65910  Biso   1.000  H
  C35      1.0000 0.52870  0.39220  0.63166  Biso   1.000  C
  H20      1.0000 0.50480  0.41510  0.64160  Biso   1.000  H
  C36      1.0000 0.56290  0.32770  0.63461  Biso   1.000  C
  C37      1.0000 0.59750  0.29460  0.61989  Biso   1.000  C
  H21      1.0000 0.61940  0.25010  0.62190  Biso   1.000  H
  C38      1.0000 0.44120  0.78380  0.58620  Biso   1.000  C
  H22      1.0000 0.41880  0.80070  0.57520  Biso   1.000  H
  C39      1.0000 0.14480  0.03340  0.68729  Biso   1.000  C
  C40      1.0000 0.35690  0.25360  0.71893  Biso   1.000  C
  H23      1.0000 0.35720  0.25330  0.73210  Biso   1.000  H
  O6       1.0000 0.14854  0.09511  0.69402  Biso   1.000  O
  O7       1.0000 0.08800  0.99726  0.68760  Biso   1.000  O
  C41      1.0000 0.26790  0.90540  0.66332  Biso   1.000  C
  H24      1.0000 0.26520  0.86010  0.65770  Biso   1.000  H
  O8       1.0000 0.58917  0.38122  0.56707  Biso   1.000  O
  C42      1.0000 0.43850  0.82300  0.60211  Biso   1.000  C
  H25      1.0000 0.41480  0.86730  0.60210  Biso   1.000  H
  C43      1.0000 0.45610  0.90800  0.67070  Biso   1.000  C
  H26      1.0000 0.45340  0.93250  0.68220  Biso   1.000  H
  C44      1.0000 0.65390  0.09990  0.69006  Biso   1.000  C
  H27      1.0000 0.60680  0.08280  0.69120  Biso   1.000  H
  C45      1.0000 0.73850  0.19570  0.68182  Biso   1.000  C
  H28      1.0000 0.74740  0.24290  0.67800  Biso   1.000  H
  C46      1.0000 0.67040  0.16880  0.68279  Biso   1.000  C
  O9       1.0000 0.75178  0.84253  0.73277  Biso   1.000  O
  O10      1.0000 0.52277  0.45239  0.54091  Biso   1.000  O
  H29      1.0000 0.48730  0.43970  0.53220  Biso   1.000  H
  C47      1.0000 0.71470  0.05900  0.69541  Biso   1.000  C
  H30      1.0000 0.70710  0.01320  0.70040  Biso   1.000  H
  C48      1.0000 0.79430  0.14940  0.68683  Biso   1.000  C
  H31      1.0000 0.84160  0.16550  0.68540  Biso   1.000  H
  C49      1.0000 0.53020  0.42430  0.61305  Biso   1.000  C
  H32      1.0000 0.50780  0.46840  0.61080  Biso   1.000  H
  C50      1.0000 0.60770  0.21610  0.67635  Biso   1.000  C
  C51      1.0000 0.78340  0.08260  0.69365  Biso   1.000  C
  C52      1.0000 0.84200  0.03760  0.69796  Biso   1.000  C
  O11      1.0000 0.83435  0.97379  0.70245  Biso   1.000  O
  O12      1.0000 0.90469  0.06832  0.69803  Biso   1.000  O
  O13      1.0000 0.22271  0.22997  0.73627  Biso   1.000  O
  C53      1.0000 0.22550  0.23490  0.71871  Biso   1.000  C
  O14      1.0000 0.17180  0.21664  0.70843  Biso   1.000  O
  C54      1.0000 0.75870  0.84320  0.71479  Biso   1.000  C
  O15      1.0000 0.81699  0.83680  0.70689  Biso   1.000  O
  O16      1.0000 0.33932  0.60407  0.51879  Biso   1.000  O
  O17      1.0000 0.42160  0.69861  0.51467  Biso   1.000  O
  O18      1.0000 0.26325  0.62375  0.48941  Biso   1.000  O
  C55      1.0000 0.47730  0.62160  0.49312  Biso   1.000  C
  H33      1.0000 0.51480  0.61940  0.48350  Biso   1.000  H
  H34      1.0000 0.48100  0.57860  0.50090  Biso   1.000  H
  C56      1.0000 0.48790  0.68460  0.50480  Biso   1.000  C
  H35      1.0000 0.52660  0.67610  0.51380  Biso   1.000  H
  H36      1.0000 0.50090  0.72560  0.49700  Biso   1.000  H
  C57      1.0000 0.22770  0.58000  0.50354  Biso   1.000  C
  H37      1.0000 0.20510  0.53870  0.49750  Biso   1.000  H
  H38      1.0000 0.19050  0.60800  0.50980  Biso   1.000  H
  C58      1.0000 0.28130  0.55520  0.51757  Biso   1.000  C
  H39      1.0000 0.25850  0.55080  0.52990  Biso   1.000  H
  H40      1.0000 0.29920  0.50810  0.51390  Biso   1.000  H
  Al4      1.0000 0.60192  0.39767  0.54131  Biso   1.000  Al
  Al5      1.0000 0.60317  0.35294  0.03690  Biso   1.000  Al
  Al6      1.0000 0.65832  0.32859  0.99945  Biso   1.000  Al
  Al7      1.0000 0.49568  0.47006  0.05566  Biso   1.000  Al
  O19      1.0000 0.53294  0.42126  0.03577  Biso   1.000  O
  H41      1.0000 0.51450  0.43210  0.02380  Biso   1.000  H
  O20      1.0000 0.59133  0.37697  0.98410  Biso   1.000  O
  O21      1.0000 0.55007  0.30150  0.05399  Biso   1.000  O
  C59      1.0000 0.30430  0.14710  0.20337  Biso   1.000  C
  O22      1.0000 0.46203  0.51862  0.07733  Biso   1.000  O
  C60      1.0000 0.43560  0.61040  0.09915  Biso   1.000  C
  C61      1.0000 0.58000  0.74150  0.19031  Biso   1.000  C
  O23      1.0000 0.50935  0.39322  0.07197  Biso   1.000  O
  C62      1.0000 0.44230  0.70860  0.15245  Biso   1.000  C
  C63      1.0000 0.79380  0.99690  0.17913  Biso   1.000  C
  C64      1.0000 0.52630  0.32610  0.06947  Biso   1.000  C
  C65      1.0000 0.66740  0.05960  0.16495  Biso   1.000  C
  C66      1.0000 0.53380  0.16250  0.13709  Biso   1.000  C
  C67      1.0000 0.39940  0.67420  0.10214  Biso   1.000  C
  H42      1.0000 0.37340  0.69590  0.09240  Biso   1.000  H
  C68      1.0000 0.59640  0.12680  0.14207  Biso   1.000  C
  H43      1.0000 0.63470  0.12540  0.13350  Biso   1.000  H
  C69      1.0000 0.43670  0.57920  0.07954  Biso   1.000  C
  C70      1.0000 0.29280  0.13690  0.18381  Biso   1.000  C
  H44      1.0000 0.24620  0.13570  0.17890  Biso   1.000  H
  C71      1.0000 0.70630  0.74820  0.19014  Biso   1.000  C
  H45      1.0000 0.74930  0.75040  0.18330  Biso   1.000  H
  C72      1.0000 0.45220  0.78030  0.18643  Biso   1.000  C
  H46      1.0000 0.45510  0.80490  0.19790  Biso   1.000  H
  C73      1.0000 0.50130  0.70320  0.16312  Biso   1.000  C
  H47      1.0000 0.53860  0.67330  0.15910  Biso   1.000  H
  C74      1.0000 0.60290  0.09420  0.15906  Biso   1.000  C
  C75      1.0000 0.72700  0.96290  0.18035  Biso   1.000  C
  H48      1.0000 0.72510  0.91730  0.18590  Biso   1.000  H
  C76      1.0000 0.47980  0.12600  0.16548  Biso   1.000  C
  C77      1.0000 0.52290  0.28170  0.08595  Biso   1.000  C
  C78      1.0000 0.58260  0.74140  0.20986  Biso   1.000  C
  H49      1.0000 0.53990  0.73760  0.21670  Biso   1.000  H
  C79      1.0000 0.79320  0.06140  0.17023  Biso   1.000  C
  H50      1.0000 0.83700  0.08510  0.16870  Biso   1.000  H
  C80      1.0000 0.70760  0.75140  0.20953  Biso   1.000  C
  C81      1.0000 0.42000  0.13160  0.17954  Biso   1.000  C
  C82      1.0000 0.38440  0.75060  0.15908  Biso   1.000  C
  H51      1.0000 0.34220  0.75550  0.15200  Biso   1.000  H
  C83      1.0000 0.47610  0.16160  0.14835  Biso   1.000  C
  H52      1.0000 0.43370  0.18480  0.14470  Biso   1.000  H
  C84      1.0000 0.37170  0.14470  0.21020  Biso   1.000  C
  H53      1.0000 0.37970  0.14760  0.22320  Biso   1.000  H
  C85      1.0000 0.50940  0.74120  0.18031  Biso   1.000  C
  C86      1.0000 0.66420  0.99220  0.17396  Biso   1.000  C
  H54      1.0000 0.62040  0.96830  0.17550  Biso   1.000  H
  C87      1.0000 0.64180  0.74150  0.18059  Biso   1.000  C
  H55      1.0000 0.64130  0.73700  0.16740  Biso   1.000  H
  C88      1.0000 0.49290  0.26480  0.11801  Biso   1.000  C
  H56      1.0000 0.46990  0.28060  0.12900  Biso   1.000  H
  C89      1.0000 0.48870  0.30590  0.10206  Biso   1.000  C
  H57      1.0000 0.46340  0.34930  0.10200  Biso   1.000  H
  C90      1.0000 0.52980  0.20150  0.11843  Biso   1.000  C
  C91      1.0000 0.42960  0.13790  0.19783  Biso   1.000  C
  H58      1.0000 0.47640  0.13780  0.20270  Biso   1.000  H
  C92      1.0000 0.35100  0.12870  0.17208  Biso   1.000  C
  H59      1.0000 0.34430  0.12130  0.15910  Biso   1.000  H
  C93      1.0000 0.47130  0.60780  0.13166  Biso   1.000  C
  H60      1.0000 0.49520  0.58490  0.14160  Biso   1.000  H
  C94      1.0000 0.43710  0.67230  0.13461  Biso   1.000  C
  C95      1.0000 0.40250  0.70540  0.11989  Biso   1.000  C
  H61      1.0000 0.38060  0.74990  0.12190  Biso   1.000  H
  C96      1.0000 0.55880  0.21620  0.08620  Biso   1.000  C
  H62      1.0000 0.58120  0.19930  0.07520  Biso   1.000  H
  C97      1.0000 0.85520  0.96660  0.18729  Biso   1.000  C
  C98      1.0000 0.64310  0.74640  0.21893  Biso   1.000  C
  H63      1.0000 0.64280  0.74670  0.23210  Biso   1.000  H
  O24      1.0000 0.85146  0.90489  0.19402  Biso   1.000  O
  O25      1.0000 0.91200  0.00274  0.18760  Biso   1.000  O
  C99      1.0000 0.73210  0.09460  0.16332  Biso   1.000  C
  H64      1.0000 0.73480  0.13990  0.15770  Biso   1.000  H
  O26      1.0000 0.41083  0.61878  0.06707  Biso   1.000  O
  C100     1.0000 0.56150  0.17700  0.10211  Biso   1.000  C
  H65      1.0000 0.58520  0.13270  0.10210  Biso   1.000  H
  C101     1.0000 0.54390  0.09200  0.17070  Biso   1.000  C
  H66      1.0000 0.54660  0.06750  0.18220  Biso   1.000  H
  C102     1.0000 0.34610  0.90010  0.19006  Biso   1.000  C
  H67      1.0000 0.39320  0.91720  0.19120  Biso   1.000  H
  C103     1.0000 0.26150  0.80430  0.18182  Biso   1.000  C
  H68      1.0000 0.25260  0.75710  0.17800  Biso   1.000  H
  C104     1.0000 0.32960  0.83120  0.18279  Biso   1.000  C
  O27      1.0000 0.24822  0.15747  0.23277  Biso   1.000  O
  O28      1.0000 0.47723  0.54761  0.04091  Biso   1.000  O
  H69      1.0000 0.51270  0.56030  0.03220  Biso   1.000  H
  C105     1.0000 0.28530  0.94100  0.19541  Biso   1.000  C
  H70      1.0000 0.29290  0.98680  0.20040  Biso   1.000  H
  C106     1.0000 0.20570  0.85060  0.18683  Biso   1.000  C
  H71      1.0000 0.15840  0.83450  0.18540  Biso   1.000  H
  C107     1.0000 0.46980  0.57570  0.11305  Biso   1.000  C
  H72      1.0000 0.49220  0.53160  0.11080  Biso   1.000  H
  C108     1.0000 0.39230  0.78390  0.17635  Biso   1.000  C
  C109     1.0000 0.21660  0.91740  0.19365  Biso   1.000  C
  C110     1.0000 0.15800  0.96240  0.19796  Biso   1.000  C
  O29      1.0000 0.16565  0.02621  0.20245  Biso   1.000  O
  O30      1.0000 0.09531  0.93168  0.19803  Biso   1.000  O
  O31      1.0000 0.77729  0.77003  0.23627  Biso   1.000  O
  C111     1.0000 0.77450  0.76510  0.21871  Biso   1.000  C
  O32      1.0000 0.82820  0.78336  0.20843  Biso   1.000  O
  C112     1.0000 0.24130  0.15680  0.21479  Biso   1.000  C
  O33      1.0000 0.18301  0.16320  0.20689  Biso   1.000  O
  O34      1.0000 0.66068  0.39593  0.01879  Biso   1.000  O
  O35      1.0000 0.57840  0.30139  0.01467  Biso   1.000  O
  O36      1.0000 0.73675  0.37625  0.98941  Biso   1.000  O
  C113     1.0000 0.52270  0.37840  0.99312  Biso   1.000  C
  H73      1.0000 0.48520  0.38060  0.98350  Biso   1.000  H
  H74      1.0000 0.51900  0.42140  0.00090  Biso   1.000  H
  C114     1.0000 0.51210  0.31540  0.00480  Biso   1.000  C
  H75      1.0000 0.47340  0.32390  0.01380  Biso   1.000  H
  H76      1.0000 0.49910  0.27440  0.99700  Biso   1.000  H
  C115     1.0000 0.77230  0.42000  0.00354  Biso   1.000  C
  H77      1.0000 0.79490  0.46130  0.99750  Biso   1.000  H
  H78      1.0000 0.80950  0.39200  0.00980  Biso   1.000  H
  C116     1.0000 0.71870  0.44480  0.01757  Biso   1.000  C
  H79      1.0000 0.74150  0.44920  0.02990  Biso   1.000  H
  H80      1.0000 0.70080  0.49190  0.01390  Biso   1.000  H
  Al8      1.0000 0.39808  0.60233  0.04131  Biso   1.000  Al
  Al9      1.0000 0.85294  0.89683  0.78690  Biso   1.000  Al
  Al10     1.0000 0.82859  0.84168  0.74945  Biso   1.000  Al
  Al11     1.0000 0.97006  0.00432  0.80566  Biso   1.000  Al
  O37      1.0000 0.92126  0.96706  0.78577  Biso   1.000  O
  H81      1.0000 0.93210  0.98550  0.77380  Biso   1.000  H
  O38      1.0000 0.87697  0.90867  0.73410  Biso   1.000  O
  O39      1.0000 0.80150  0.94993  0.80399  Biso   1.000  O
  C117     1.0000 0.64710  0.19570  0.95337  Biso   1.000  C
  O40      1.0000 0.01862  0.03797  0.82733  Biso   1.000  O
  C118     1.0000 0.11040  0.06440  0.84915  Biso   1.000  C
  C119     1.0000 0.24150  0.92000  0.94031  Biso   1.000  C
  O41      1.0000 0.89322  0.99065  0.82197  Biso   1.000  O
  C120     1.0000 0.20860  0.05770  0.90245  Biso   1.000  C
  C121     1.0000 0.49690  0.70620  0.92913  Biso   1.000  C
  C122     1.0000 0.82610  0.97370  0.81947  Biso   1.000  C
  C123     1.0000 0.55960  0.83260  0.91495  Biso   1.000  C
  C124     1.0000 0.66250  0.96620  0.88709  Biso   1.000  C
  C125     1.0000 0.17420  0.10060  0.85214  Biso   1.000  C
  H82      1.0000 0.19590  0.12660  0.84240  Biso   1.000  H
  C126     1.0000 0.62680  0.90360  0.89207  Biso   1.000  C
  H83      1.0000 0.62540  0.86530  0.88350  Biso   1.000  H
  C127     1.0000 0.07920  0.06330  0.82954  Biso   1.000  C
  C128     1.0000 0.63690  0.20720  0.93381  Biso   1.000  C
  H84      1.0000 0.63570  0.25380  0.92890  Biso   1.000  H
  C129     1.0000 0.24820  0.79370  0.94014  Biso   1.000  C
  H85      1.0000 0.25040  0.75070  0.93330  Biso   1.000  H
  C130     1.0000 0.28030  0.04780  0.93643  Biso   1.000  C
  H86      1.0000 0.30490  0.04490  0.94790  Biso   1.000  H
  C131     1.0000 0.20320  0.99870  0.91312  Biso   1.000  C
  H87      1.0000 0.17330  0.96140  0.90910  Biso   1.000  H
  C132     1.0000 0.59420  0.89710  0.90906  Biso   1.000  C
  C133     1.0000 0.46290  0.77300  0.93035  Biso   1.000  C
  H88      1.0000 0.41730  0.77490  0.93590  Biso   1.000  H
  C134     1.0000 0.62600  0.02020  0.91548  Biso   1.000  C
  C135     1.0000 0.78170  0.97710  0.83595  Biso   1.000  C
  C136     1.0000 0.24140  0.91740  0.95986  Biso   1.000  C
  H89      1.0000 0.23760  0.96010  0.96670  Biso   1.000  H
  C137     1.0000 0.56140  0.70680  0.92023  Biso   1.000  C
  H90      1.0000 0.58510  0.66300  0.91870  Biso   1.000  H
  C138     1.0000 0.25140  0.79240  0.95953  Biso   1.000  C
  C139     1.0000 0.63160  0.08000  0.92954  Biso   1.000  C
  C140     1.0000 0.25060  0.11560  0.90908  Biso   1.000  C
  H91      1.0000 0.25550  0.15780  0.90200  Biso   1.000  H
  C141     1.0000 0.66160  0.02390  0.89835  Biso   1.000  C
  H92      1.0000 0.68480  0.06630  0.89470  Biso   1.000  H
  C142     1.0000 0.64470  0.12830  0.96020  Biso   1.000  C
  H93      1.0000 0.64760  0.12030  0.97320  Biso   1.000  H
  C143     1.0000 0.24120  0.99060  0.93031  Biso   1.000  C
  C144     1.0000 0.49220  0.83580  0.92396  Biso   1.000  C
  H94      1.0000 0.46830  0.87960  0.92550  Biso   1.000  H
  C145     1.0000 0.24150  0.85820  0.93059  Biso   1.000  C
  H95      1.0000 0.23700  0.85870  0.91740  Biso   1.000  H
  C146     1.0000 0.76480  0.00710  0.86801  Biso   1.000  C
  H96      1.0000 0.78060  0.03010  0.87900  Biso   1.000  H
  C147     1.0000 0.80590  0.01130  0.85206  Biso   1.000  C
  H97      1.0000 0.84930  0.03660  0.85200  Biso   1.000  H
  C148     1.0000 0.70150  0.97020  0.86843  Biso   1.000  C
  C149     1.0000 0.63790  0.07040  0.94783  Biso   1.000  C
  H98      1.0000 0.63780  0.02360  0.95270  Biso   1.000  H
  C150     1.0000 0.62870  0.14900  0.92208  Biso   1.000  C
  H99      1.0000 0.62130  0.15570  0.90910  Biso   1.000  H
  C151     1.0000 0.10780  0.02870  0.88166  Biso   1.000  C
  H100     1.0000 0.08490  0.00480  0.89160  Biso   1.000  H
  C152     1.0000 0.17230  0.06290  0.88461  Biso   1.000  C
  C153     1.0000 0.20540  0.09750  0.86989  Biso   1.000  C
  H101     1.0000 0.24990  0.11940  0.87190  Biso   1.000  H
  C154     1.0000 0.71620  0.94120  0.83620  Biso   1.000  C
  H102     1.0000 0.69930  0.91880  0.82520  Biso   1.000  H
  C155     1.0000 0.46660  0.64480  0.93729  Biso   1.000  C
  C156     1.0000 0.24640  0.85690  0.96893  Biso   1.000  C
  H103     1.0000 0.24670  0.85720  0.98210  Biso   1.000  H
  O42      1.0000 0.40489  0.64854  0.94402  Biso   1.000  O
  O43      1.0000 0.50274  0.58800  0.93760  Biso   1.000  O
  C157     1.0000 0.59460  0.76790  0.91332  Biso   1.000  C
  H104     1.0000 0.63990  0.76520  0.90770  Biso   1.000  H
  O44      1.0000 0.11878  0.08917  0.81707  Biso   1.000  O
  C158     1.0000 0.67700  0.93850  0.85211  Biso   1.000  C
  H105     1.0000 0.63270  0.91480  0.85210  Biso   1.000  H
  C159     1.0000 0.59200  0.95610  0.92070  Biso   1.000  C
  H106     1.0000 0.56750  0.95340  0.93220  Biso   1.000  H
  C160     1.0000 0.40010  0.15390  0.94006  Biso   1.000  C
  H107     1.0000 0.41720  0.10680  0.94120  Biso   1.000  H
  C161     1.0000 0.30430  0.23850  0.93182  Biso   1.000  C
  H108     1.0000 0.25710  0.24740  0.92800  Biso   1.000  H
  C162     1.0000 0.33120  0.17040  0.93279  Biso   1.000  C
  O45      1.0000 0.65747  0.25178  0.98277  Biso   1.000  O
  O46      1.0000 0.04761  0.02277  0.79091  Biso   1.000  O
  H109     1.0000 0.06030  0.98730  0.78220  Biso   1.000  H
  C163     1.0000 0.44100  0.21470  0.94541  Biso   1.000  C
  H110     1.0000 0.48680  0.20710  0.95040  Biso   1.000  H
  C164     1.0000 0.35060  0.29430  0.93683  Biso   1.000  C
  H111     1.0000 0.33450  0.34160  0.93540  Biso   1.000  H
  C165     1.0000 0.07570  0.03020  0.86305  Biso   1.000  C
  H112     1.0000 0.03160  0.00780  0.86080  Biso   1.000  H
  C166     1.0000 0.28390  0.10770  0.92635  Biso   1.000  C
  C167     1.0000 0.41740  0.28340  0.94365  Biso   1.000  C
  C168     1.0000 0.46240  0.34200  0.94796  Biso   1.000  C
  O47      1.0000 0.52621  0.33435  0.95245  Biso   1.000  O
  O48      1.0000 0.43168  0.40469  0.94803  Biso   1.000  O
  O49      1.0000 0.27003  0.72271  0.98627  Biso   1.000  O
  C169     1.0000 0.26510  0.72550  0.96871  Biso   1.000  C
  O50      1.0000 0.28336  0.67180  0.95843  Biso   1.000  O
  C170     1.0000 0.65680  0.25870  0.96479  Biso   1.000  C
  O51      1.0000 0.66320  0.31699  0.95689  Biso   1.000  O
  O52      1.0000 0.89593  0.83932  0.76879  Biso   1.000  O
  O53      1.0000 0.80139  0.92160  0.76467  Biso   1.000  O
  O54      1.0000 0.87625  0.76325  0.73941  Biso   1.000  O
  C171     1.0000 0.87840  0.97730  0.74312  Biso   1.000  C
  H113     1.0000 0.88060  0.01480  0.73350  Biso   1.000  H
  H114     1.0000 0.92140  0.98100  0.75090  Biso   1.000  H
  C172     1.0000 0.81540  0.98790  0.75480  Biso   1.000  C
  H115     1.0000 0.82390  0.02660  0.76380  Biso   1.000  H
  H116     1.0000 0.77440  0.00090  0.74700  Biso   1.000  H
  C173     1.0000 0.92000  0.72770  0.75354  Biso   1.000  C
  H117     1.0000 0.96130  0.70510  0.74750  Biso   1.000  H
  H118     1.0000 0.89200  0.69050  0.75980  Biso   1.000  H
  C174     1.0000 0.94480  0.78130  0.76757  Biso   1.000  C
  H119     1.0000 0.94920  0.75850  0.77990  Biso   1.000  H
  H120     1.0000 0.99190  0.79920  0.76390  Biso   1.000  H
  Al12     1.0000 0.10233  0.10192  0.79131  Biso   1.000  Al
  Al13     1.0000 0.14706  0.10317  0.28690  Biso   1.000  Al
  Al14     1.0000 0.17141  0.15832  0.24945  Biso   1.000  Al
  Al15     1.0000 0.02994  0.99568  0.30566  Biso   1.000  Al
  O55      1.0000 0.07874  0.03294  0.28577  Biso   1.000  O
  H121     1.0000 0.06790  0.01450  0.27380  Biso   1.000  H
  O56      1.0000 0.12303  0.09133  0.23410  Biso   1.000  O
  O57      1.0000 0.19850  0.05007  0.30399  Biso   1.000  O
  C175     1.0000 0.35290  0.80430  0.45337  Biso   1.000  C
  O58      1.0000 0.98138  0.96203  0.32733  Biso   1.000  O
  C176     1.0000 0.88960  0.93560  0.34915  Biso   1.000  C
  C177     1.0000 0.75850  0.08000  0.44031  Biso   1.000  C
  O59      1.0000 0.10678  0.00935  0.32197  Biso   1.000  O
  C178     1.0000 0.79140  0.94230  0.40245  Biso   1.000  C
  C179     1.0000 0.50310  0.29380  0.42913  Biso   1.000  C
  C180     1.0000 0.17390  0.02630  0.31947  Biso   1.000  C
  C181     1.0000 0.44040  0.16740  0.41495  Biso   1.000  C
  C182     1.0000 0.33750  0.03380  0.38709  Biso   1.000  C
  C183     1.0000 0.82580  0.89940  0.35214  Biso   1.000  C
  H122     1.0000 0.80410  0.87340  0.34240  Biso   1.000  H
  C184     1.0000 0.37320  0.09640  0.39207  Biso   1.000  C
  H123     1.0000 0.37460  0.13470  0.38350  Biso   1.000  H
  C185     1.0000 0.92080  0.93670  0.32954  Biso   1.000  C
  C186     1.0000 0.36310  0.79280  0.43381  Biso   1.000  C
  H124     1.0000 0.36430  0.74620  0.42890  Biso   1.000  H
  C187     1.0000 0.75180  0.20630  0.44014  Biso   1.000  C
  H125     1.0000 0.74960  0.24930  0.43330  Biso   1.000  H
  C188     1.0000 0.71970  0.95220  0.43643  Biso   1.000  C
  H126     1.0000 0.69510  0.95510  0.44790  Biso   1.000  H
  C189     1.0000 0.79680  0.00130  0.41312  Biso   1.000  C
  H127     1.0000 0.82670  0.03860  0.40910  Biso   1.000  H
  C190     1.0000 0.40580  0.10290  0.40906  Biso   1.000  C
  C191     1.0000 0.53710  0.22700  0.43035  Biso   1.000  C
  H128     1.0000 0.58270  0.22510  0.43590  Biso   1.000  H
  C192     1.0000 0.37400  0.97980  0.41548  Biso   1.000  C
  C193     1.0000 0.21830  0.02290  0.33595  Biso   1.000  C
  C194     1.0000 0.75860  0.08260  0.45986  Biso   1.000  C
  H129     1.0000 0.76240  0.03990  0.46670  Biso   1.000  H
  C195     1.0000 0.43860  0.29320  0.42023  Biso   1.000  C
  H130     1.0000 0.41490  0.33700  0.41870  Biso   1.000  H
  C196     1.0000 0.74860  0.20760  0.45953  Biso   1.000  C
  C197     1.0000 0.36840  0.92000  0.42954  Biso   1.000  C
  C198     1.0000 0.74940  0.88440  0.40908  Biso   1.000  C
  H131     1.0000 0.74450  0.84220  0.40200  Biso   1.000  H
  C199     1.0000 0.33840  0.97610  0.39835  Biso   1.000  C
  H132     1.0000 0.31520  0.93370  0.39470  Biso   1.000  H
  C200     1.0000 0.35530  0.87170  0.46020  Biso   1.000  C
  H133     1.0000 0.35240  0.87970  0.47320  Biso   1.000  H
  C201     1.0000 0.75880  0.00940  0.43031  Biso   1.000  C
  C202     1.0000 0.50780  0.16420  0.42396  Biso   1.000  C
  H134     1.0000 0.53170  0.12040  0.42550  Biso   1.000  H
  C203     1.0000 0.75850  0.14180  0.43059  Biso   1.000  C
  H135     1.0000 0.76300  0.14130  0.41740  Biso   1.000  H
  C204     1.0000 0.23520  0.99290  0.36801  Biso   1.000  C
  H136     1.0000 0.21940  0.96990  0.37900  Biso   1.000  H
  C205     1.0000 0.19410  0.98870  0.35206  Biso   1.000  C
  H137     1.0000 0.15070  0.96340  0.35200  Biso   1.000  H
  C206     1.0000 0.29850  0.02980  0.36843  Biso   1.000  C
  C207     1.0000 0.36210  0.92960  0.44783  Biso   1.000  C
  H138     1.0000 0.36220  0.97640  0.45270  Biso   1.000  H
  C208     1.0000 0.37130  0.85100  0.42208  Biso   1.000  C
  H139     1.0000 0.37870  0.84430  0.40910  Biso   1.000  H
  C209     1.0000 0.89220  0.97130  0.38166  Biso   1.000  C
  H140     1.0000 0.91510  0.99520  0.39160  Biso   1.000  H
  C210     1.0000 0.82770  0.93710  0.38461  Biso   1.000  C
  C211     1.0000 0.79460  0.90250  0.36989  Biso   1.000  C
  H141     1.0000 0.75010  0.88060  0.37190  Biso   1.000  H
  C212     1.0000 0.28380  0.05880  0.33620  Biso   1.000  C
  H142     1.0000 0.30070  0.08120  0.32520  Biso   1.000  H
  C213     1.0000 0.53340  0.35520  0.43729  Biso   1.000  C
  C214     1.0000 0.75360  0.14310  0.46893  Biso   1.000  C
  H143     1.0000 0.75330  0.14280  0.48210  Biso   1.000  H
  O60      1.0000 0.59511  0.35146  0.44402  Biso   1.000  O
  O61      1.0000 0.49726  0.41200  0.43760  Biso   1.000  O
  C215     1.0000 0.40540  0.23210  0.41332  Biso   1.000  C
  H144     1.0000 0.36010  0.23480  0.40770  Biso   1.000  H
  O62      1.0000 0.88122  0.91083  0.31707  Biso   1.000  O
  C216     1.0000 0.32300  0.06150  0.35211  Biso   1.000  C
  H145     1.0000 0.36730  0.08520  0.35210  Biso   1.000  H
  C217     1.0000 0.40800  0.04390  0.42070  Biso   1.000  C
  H146     1.0000 0.43250  0.04660  0.43220  Biso   1.000  H
  C218     1.0000 0.59990  0.84610  0.44006  Biso   1.000  C
  H147     1.0000 0.58280  0.89320  0.44120  Biso   1.000  H
  C219     1.0000 0.69570  0.76150  0.43182  Biso   1.000  C
  H148     1.0000 0.74290  0.75260  0.42800  Biso   1.000  H
  C220     1.0000 0.66880  0.82960  0.43279  Biso   1.000  C
  O63      1.0000 0.34253  0.74822  0.48277  Biso   1.000  O
  O64      1.0000 0.95239  0.97723  0.29091  Biso   1.000  O
  H149     1.0000 0.93970  0.01270  0.28220  Biso   1.000  H
  C221     1.0000 0.55900  0.78530  0.44541  Biso   1.000  C
  H150     1.0000 0.51320  0.79290  0.45040  Biso   1.000  H
  C222     1.0000 0.64940  0.70570  0.43683  Biso   1.000  C
  H151     1.0000 0.66550  0.65840  0.43540  Biso   1.000  H
  C223     1.0000 0.92430  0.96980  0.36305  Biso   1.000  C
  H152     1.0000 0.96840  0.99220  0.36080  Biso   1.000  H
  C224     1.0000 0.71610  0.89230  0.42635  Biso   1.000  C
  C225     1.0000 0.58260  0.71660  0.44365  Biso   1.000  C
  C226     1.0000 0.53760  0.65800  0.44796  Biso   1.000  C
  O65      1.0000 0.47379  0.66565  0.45245  Biso   1.000  O
  O66      1.0000 0.56832  0.59531  0.44803  Biso   1.000  O
  O67      1.0000 0.72997  0.27729  0.48627  Biso   1.000  O
  C227     1.0000 0.73490  0.27450  0.46871  Biso   1.000  C
  O68      1.0000 0.71664  0.32820  0.45843  Biso   1.000  O
  C228     1.0000 0.34320  0.74130  0.46479  Biso   1.000  C
  O69      1.0000 0.33680  0.68301  0.45689  Biso   1.000  O
  O70      1.0000 0.10407  0.16068  0.26879  Biso   1.000  O
  O71      1.0000 0.19861  0.07840  0.26467  Biso   1.000  O
  O72      1.0000 0.12375  0.23675  0.23941  Biso   1.000  O
  C229     1.0000 0.12160  0.02270  0.24312  Biso   1.000  C
  H153     1.0000 0.11940  0.98520  0.23350  Biso   1.000  H
  H154     1.0000 0.07860  0.01900  0.25090  Biso   1.000  H
  C230     1.0000 0.18460  0.01210  0.25480  Biso   1.000  C
  H155     1.0000 0.17610  0.97340  0.26380  Biso   1.000  H
  H156     1.0000 0.22560  0.99910  0.24700  Biso   1.000  H
  C231     1.0000 0.08000  0.27230  0.25354  Biso   1.000  C
  H157     1.0000 0.03870  0.29490  0.24750  Biso   1.000  H
  H158     1.0000 0.10800  0.30950  0.25980  Biso   1.000  H
  C232     1.0000 0.05520  0.21870  0.26757  Biso   1.000  C
  H159     1.0000 0.05080  0.24150  0.27990  Biso   1.000  H
  H160     1.0000 0.00810  0.20080  0.26390  Biso   1.000  H
  Al16     1.0000 0.89767  0.89808  0.29131  Biso   1.000  Al
  Al17     1.0000 0.10317  0.14706  0.71310  Biso   1.000  Al
  Al18     1.0000 0.15832  0.17141  0.75055  Biso   1.000  Al
  Al19     1.0000 0.99568  0.02994  0.69434  Biso   1.000  Al
  O73      1.0000 0.03294  0.07874  0.71423  Biso   1.000  O
  H161     1.0000 0.01450  0.06790  0.72620  Biso   1.000  H
  O74      1.0000 0.09133  0.12303  0.76590  Biso   1.000  O
  O75      1.0000 0.05007  0.19850  0.69601  Biso   1.000  O
  C233     1.0000 0.80430  0.35290  0.54663  Biso   1.000  C
  O76      1.0000 0.96203  0.98138  0.67267  Biso   1.000  O
  C234     1.0000 0.93560  0.88960  0.65085  Biso   1.000  C
  C235     1.0000 0.08000  0.75850  0.55969  Biso   1.000  C
  O77      1.0000 0.00935  0.10678  0.67803  Biso   1.000  O
  C236     1.0000 0.94230  0.79140  0.59755  Biso   1.000  C
  C237     1.0000 0.29380  0.50310  0.57087  Biso   1.000  C
  C238     1.0000 0.02630  0.17390  0.68053  Biso   1.000  C
  C239     1.0000 0.16740  0.44040  0.58505  Biso   1.000  C
  C240     1.0000 0.03380  0.33750  0.61291  Biso   1.000  C
  C241     1.0000 0.89940  0.82580  0.64786  Biso   1.000  C
  H162     1.0000 0.87340  0.80410  0.65760  Biso   1.000  H
  C242     1.0000 0.09640  0.37320  0.60793  Biso   1.000  C
  H163     1.0000 0.13470  0.37460  0.61650  Biso   1.000  H
  C243     1.0000 0.93670  0.92080  0.67046  Biso   1.000  C
  C244     1.0000 0.79280  0.36310  0.56619  Biso   1.000  C
  H164     1.0000 0.74620  0.36430  0.57110  Biso   1.000  H
  C245     1.0000 0.20630  0.75180  0.55986  Biso   1.000  C
  H165     1.0000 0.24930  0.74960  0.56670  Biso   1.000  H
  C246     1.0000 0.95220  0.71970  0.56357  Biso   1.000  C
  H166     1.0000 0.95510  0.69510  0.55210  Biso   1.000  H
  C247     1.0000 0.00130  0.79680  0.58688  Biso   1.000  C
  H167     1.0000 0.03860  0.82670  0.59090  Biso   1.000  H
  C248     1.0000 0.10290  0.40580  0.59094  Biso   1.000  C
  C249     1.0000 0.22700  0.53710  0.56965  Biso   1.000  C
  H168     1.0000 0.22510  0.58270  0.56410  Biso   1.000  H
  C250     1.0000 0.97980  0.37400  0.58452  Biso   1.000  C
  C251     1.0000 0.02290  0.21830  0.66405  Biso   1.000  C
  C252     1.0000 0.08260  0.75860  0.54014  Biso   1.000  C
  H169     1.0000 0.03990  0.76240  0.53330  Biso   1.000  H
  C253     1.0000 0.29320  0.43860  0.57977  Biso   1.000  C
  H170     1.0000 0.33700  0.41490  0.58130  Biso   1.000  H
  C254     1.0000 0.20760  0.74860  0.54047  Biso   1.000  C
  C255     1.0000 0.92000  0.36840  0.57046  Biso   1.000  C
  C256     1.0000 0.88440  0.74940  0.59092  Biso   1.000  C
  H171     1.0000 0.84220  0.74450  0.59800  Biso   1.000  H
  C257     1.0000 0.97610  0.33840  0.60165  Biso   1.000  C
  H172     1.0000 0.93370  0.31520  0.60530  Biso   1.000  H
  C258     1.0000 0.87170  0.35530  0.53980  Biso   1.000  C
  H173     1.0000 0.87970  0.35240  0.52680  Biso   1.000  H
  C259     1.0000 0.00940  0.75880  0.56969  Biso   1.000  C
  C260     1.0000 0.16420  0.50780  0.57604  Biso   1.000  C
  H174     1.0000 0.12040  0.53170  0.57450  Biso   1.000  H
  C261     1.0000 0.14180  0.75850  0.56941  Biso   1.000  C
  H175     1.0000 0.14130  0.76300  0.58260  Biso   1.000  H
  C262     1.0000 0.99290  0.23520  0.63199  Biso   1.000  C
  H176     1.0000 0.96990  0.21940  0.62100  Biso   1.000  H
  C263     1.0000 0.98870  0.19410  0.64794  Biso   1.000  C
  H177     1.0000 0.96340  0.15070  0.64800  Biso   1.000  H
  C264     1.0000 0.02980  0.29850  0.63157  Biso   1.000  C
  C265     1.0000 0.92960  0.36210  0.55217  Biso   1.000  C
  H178     1.0000 0.97640  0.36220  0.54730  Biso   1.000  H
  C266     1.0000 0.85100  0.37130  0.57792  Biso   1.000  C
  H179     1.0000 0.84430  0.37870  0.59090  Biso   1.000  H
  C267     1.0000 0.97130  0.89220  0.61834  Biso   1.000  C
  H180     1.0000 0.99520  0.91510  0.60840  Biso   1.000  H
  C268     1.0000 0.93710  0.82770  0.61539  Biso   1.000  C
  C269     1.0000 0.90250  0.79460  0.63011  Biso   1.000  C
  H181     1.0000 0.88060  0.75010  0.62810  Biso   1.000  H
  C270     1.0000 0.05880  0.28380  0.66380  Biso   1.000  C
  H182     1.0000 0.08120  0.30070  0.67480  Biso   1.000  H
  C271     1.0000 0.35520  0.53340  0.56271  Biso   1.000  C
  C272     1.0000 0.14310  0.75360  0.53107  Biso   1.000  C
  H183     1.0000 0.14280  0.75330  0.51790  Biso   1.000  H
  O78      1.0000 0.35146  0.59511  0.55598  Biso   1.000  O
  O79      1.0000 0.41200  0.49726  0.56240  Biso   1.000  O
  C273     1.0000 0.23210  0.40540  0.58668  Biso   1.000  C
  H184     1.0000 0.23480  0.36010  0.59230  Biso   1.000  H
  O80      1.0000 0.91083  0.88122  0.68293  Biso   1.000  O
  C274     1.0000 0.06150  0.32300  0.64789  Biso   1.000  C
  H185     1.0000 0.08520  0.36730  0.64790  Biso   1.000  H
  C275     1.0000 0.04390  0.40800  0.57930  Biso   1.000  C
  H186     1.0000 0.04660  0.43250  0.56780  Biso   1.000  H
  C276     1.0000 0.84610  0.59990  0.55994  Biso   1.000  C
  H187     1.0000 0.89320  0.58280  0.55880  Biso   1.000  H
  C277     1.0000 0.76150  0.69570  0.56818  Biso   1.000  C
  H188     1.0000 0.75260  0.74290  0.57200  Biso   1.000  H
  C278     1.0000 0.82960  0.66880  0.56721  Biso   1.000  C
  O81      1.0000 0.74822  0.34253  0.51723  Biso   1.000  O
  O82      1.0000 0.97723  0.95239  0.70909  Biso   1.000  O
  H189     1.0000 0.01270  0.93970  0.71780  Biso   1.000  H
  C279     1.0000 0.78530  0.55900  0.55459  Biso   1.000  C
  H190     1.0000 0.79290  0.51320  0.54960  Biso   1.000  H
  C280     1.0000 0.70570  0.64940  0.56317  Biso   1.000  C
  H191     1.0000 0.65840  0.66550  0.56460  Biso   1.000  H
  C281     1.0000 0.96980  0.92430  0.63695  Biso   1.000  C
  H192     1.0000 0.99220  0.96840  0.63920  Biso   1.000  H
  C282     1.0000 0.89230  0.71610  0.57365  Biso   1.000  C
  C283     1.0000 0.71660  0.58260  0.55635  Biso   1.000  C
  C284     1.0000 0.65800  0.53760  0.55204  Biso   1.000  C
  O83      1.0000 0.66565  0.47379  0.54755  Biso   1.000  O
  O84      1.0000 0.59531  0.56832  0.55197  Biso   1.000  O
  O85      1.0000 0.27729  0.72997  0.51373  Biso   1.000  O
  C285     1.0000 0.27450  0.73490  0.53129  Biso   1.000  C
  O86      1.0000 0.32820  0.71664  0.54157  Biso   1.000  O
  C286     1.0000 0.74130  0.34320  0.53521  Biso   1.000  C
  O87      1.0000 0.68301  0.33680  0.54311  Biso   1.000  O
  O88      1.0000 0.16068  0.10407  0.73121  Biso   1.000  O
  O89      1.0000 0.07840  0.19861  0.73533  Biso   1.000  O
  O90      1.0000 0.23675  0.12375  0.76059  Biso   1.000  O
  C287     1.0000 0.02270  0.12160  0.75688  Biso   1.000  C
  H193     1.0000 0.98520  0.11940  0.76650  Biso   1.000  H
  H194     1.0000 0.01900  0.07860  0.74910  Biso   1.000  H
  C288     1.0000 0.01210  0.18460  0.74520  Biso   1.000  C
  H195     1.0000 0.97340  0.17610  0.73620  Biso   1.000  H
  H196     1.0000 0.99910  0.22560  0.75300  Biso   1.000  H
  C289     1.0000 0.27230  0.08000  0.74646  Biso   1.000  C
  H197     1.0000 0.29490  0.03870  0.75250  Biso   1.000  H
  H198     1.0000 0.30950  0.10800  0.74020  Biso   1.000  H
  C290     1.0000 0.21870  0.05520  0.73243  Biso   1.000  C
  H199     1.0000 0.24150  0.05080  0.72010  Biso   1.000  H
  H200     1.0000 0.20080  0.00810  0.73610  Biso   1.000  H
  Al20     1.0000 0.89808  0.89767  0.70869  Biso   1.000  Al
  Al21     1.0000 0.89683  0.85294  0.21310  Biso   1.000  Al
  Al22     1.0000 0.84168  0.82859  0.25055  Biso   1.000  Al
  Al23     1.0000 0.00432  0.97006  0.19434  Biso   1.000  Al
  O91      1.0000 0.96706  0.92126  0.21423  Biso   1.000  O
  H201     1.0000 0.98550  0.93210  0.22620  Biso   1.000  H
  O92      1.0000 0.90867  0.87697  0.26590  Biso   1.000  O
  O93      1.0000 0.94993  0.80150  0.19601  Biso   1.000  O
  C291     1.0000 0.19570  0.64710  0.04663  Biso   1.000  C
  O94      1.0000 0.03797  0.01862  0.17267  Biso   1.000  O
  C292     1.0000 0.06440  0.11040  0.15085  Biso   1.000  C
  C293     1.0000 0.92000  0.24150  0.05969  Biso   1.000  C
  O95      1.0000 0.99065  0.89322  0.17803  Biso   1.000  O
  C294     1.0000 0.05770  0.20860  0.09755  Biso   1.000  C
  C295     1.0000 0.70620  0.49690  0.07087  Biso   1.000  C
  C296     1.0000 0.97370  0.82610  0.18053  Biso   1.000  C
  C297     1.0000 0.83260  0.55960  0.08505  Biso   1.000  C
  C298     1.0000 0.96620  0.66250  0.11291  Biso   1.000  C
  C299     1.0000 0.10060  0.17420  0.14786  Biso   1.000  C
  H202     1.0000 0.12660  0.19590  0.15760  Biso   1.000  H
  C300     1.0000 0.90360  0.62680  0.10793  Biso   1.000  C
  H203     1.0000 0.86530  0.62540  0.11650  Biso   1.000  H
  C301     1.0000 0.06330  0.07920  0.17046  Biso   1.000  C
  C302     1.0000 0.20720  0.63690  0.06619  Biso   1.000  C
  H204     1.0000 0.25380  0.63570  0.07110  Biso   1.000  H
  C303     1.0000 0.79370  0.24820  0.05986  Biso   1.000  C
  H205     1.0000 0.75070  0.25040  0.06670  Biso   1.000  H
  C304     1.0000 0.04780  0.28030  0.06357  Biso   1.000  C
  H206     1.0000 0.04490  0.30490  0.05210  Biso   1.000  H
  C305     1.0000 0.99870  0.20320  0.08688  Biso   1.000  C
  H207     1.0000 0.96140  0.17330  0.09090  Biso   1.000  H
  C306     1.0000 0.89710  0.59420  0.09094  Biso   1.000  C
  C307     1.0000 0.77300  0.46290  0.06965  Biso   1.000  C
  H208     1.0000 0.77490  0.41730  0.06410  Biso   1.000  H
  C308     1.0000 0.02020  0.62600  0.08452  Biso   1.000  C
  C309     1.0000 0.97710  0.78170  0.16405  Biso   1.000  C
  C310     1.0000 0.91740  0.24140  0.04014  Biso   1.000  C
  H209     1.0000 0.96010  0.23760  0.03330  Biso   1.000  H
  C311     1.0000 0.70680  0.56140  0.07977  Biso   1.000  C
  H210     1.0000 0.66300  0.58510  0.08130  Biso   1.000  H
  C312     1.0000 0.79240  0.25140  0.04047  Biso   1.000  C
  C313     1.0000 0.08000  0.63160  0.07046  Biso   1.000  C
  C314     1.0000 0.11560  0.25060  0.09092  Biso   1.000  C
  H211     1.0000 0.15780  0.25550  0.09800  Biso   1.000  H
  C315     1.0000 0.02390  0.66160  0.10165  Biso   1.000  C
  H212     1.0000 0.06630  0.68480  0.10530  Biso   1.000  H
  C316     1.0000 0.12830  0.64470  0.03980  Biso   1.000  C
  H213     1.0000 0.12030  0.64760  0.02680  Biso   1.000  H
  C317     1.0000 0.99060  0.24120  0.06969  Biso   1.000  C
  C318     1.0000 0.83580  0.49220  0.07604  Biso   1.000  C
  H214     1.0000 0.87960  0.46830  0.07450  Biso   1.000  H
  C319     1.0000 0.85820  0.24150  0.06941  Biso   1.000  C
  H215     1.0000 0.85870  0.23700  0.08260  Biso   1.000  H
  C320     1.0000 0.00710  0.76480  0.13199  Biso   1.000  C
  H216     1.0000 0.03010  0.78060  0.12100  Biso   1.000  H
  C321     1.0000 0.01130  0.80590  0.14794  Biso   1.000  C
  H217     1.0000 0.03660  0.84930  0.14800  Biso   1.000  H
  C322     1.0000 0.97020  0.70150  0.13157  Biso   1.000  C
  C323     1.0000 0.07040  0.63790  0.05217  Biso   1.000  C
  H218     1.0000 0.02360  0.63780  0.04730  Biso   1.000  H
  C324     1.0000 0.14900  0.62870  0.07792  Biso   1.000  C
  H219     1.0000 0.15570  0.62130  0.09090  Biso   1.000  H
  C325     1.0000 0.02870  0.10780  0.11834  Biso   1.000  C
  H220     1.0000 0.00480  0.08490  0.10840  Biso   1.000  H
  C326     1.0000 0.06290  0.17230  0.11539  Biso   1.000  C
  C327     1.0000 0.09750  0.20540  0.13011  Biso   1.000  C
  H221     1.0000 0.11940  0.24990  0.12810  Biso   1.000  H
  C328     1.0000 0.94120  0.71620  0.16380  Biso   1.000  C
  H222     1.0000 0.91880  0.69930  0.17480  Biso   1.000  H
  C329     1.0000 0.64480  0.46660  0.06271  Biso   1.000  C
  C330     1.0000 0.85690  0.24640  0.03107  Biso   1.000  C
  H223     1.0000 0.85720  0.24670  0.01790  Biso   1.000  H
  O96      1.0000 0.64854  0.40489  0.05598  Biso   1.000  O
  O97      1.0000 0.58800  0.50274  0.06240  Biso   1.000  O
  C331     1.0000 0.76790  0.59460  0.08668  Biso   1.000  C
  H224     1.0000 0.76520  0.63990  0.09230  Biso   1.000  H
  O98      1.0000 0.08917  0.11878  0.18293  Biso   1.000  O
  C332     1.0000 0.93850  0.67700  0.14789  Biso   1.000  C
  H225     1.0000 0.91480  0.63270  0.14790  Biso   1.000  H
  C333     1.0000 0.95610  0.59200  0.07930  Biso   1.000  C
  H226     1.0000 0.95340  0.56750  0.06780  Biso   1.000  H
  C334     1.0000 0.15390  0.40010  0.05994  Biso   1.000  C
  H227     1.0000 0.10680  0.41720  0.05880  Biso   1.000  H
  C335     1.0000 0.23850  0.30430  0.06818  Biso   1.000  C
  H228     1.0000 0.24740  0.25710  0.07200  Biso   1.000  H
  C336     1.0000 0.17040  0.33120  0.06721  Biso   1.000  C
  O99      1.0000 0.25178  0.65747  0.01723  Biso   1.000  O
  O100     1.0000 0.02277  0.04761  0.20909  Biso   1.000  O
  H229     1.0000 0.98730  0.06030  0.21780  Biso   1.000  H
  C337     1.0000 0.21470  0.44100  0.05459  Biso   1.000  C
  H230     1.0000 0.20710  0.48680  0.04960  Biso   1.000  H
  C338     1.0000 0.29430  0.35060  0.06317  Biso   1.000  C
  H231     1.0000 0.34160  0.33450  0.06460  Biso   1.000  H
  C339     1.0000 0.03020  0.07570  0.13695  Biso   1.000  C
  H232     1.0000 0.00780  0.03160  0.13920  Biso   1.000  H
  C340     1.0000 0.10770  0.28390  0.07365  Biso   1.000  C
  C341     1.0000 0.28340  0.41740  0.05635  Biso   1.000  C
  C342     1.0000 0.34200  0.46240  0.05204  Biso   1.000  C
  O101     1.0000 0.33435  0.52621  0.04755  Biso   1.000  O
  O102     1.0000 0.40469  0.43168  0.05197  Biso   1.000  O
  O103     1.0000 0.72271  0.27003  0.01373  Biso   1.000  O
  C343     1.0000 0.72550  0.26510  0.03129  Biso   1.000  C
  O104     1.0000 0.67180  0.28336  0.04157  Biso   1.000  O
  C344     1.0000 0.25870  0.65680  0.03521  Biso   1.000  C
  O105     1.0000 0.31699  0.66320  0.04311  Biso   1.000  O
  O106     1.0000 0.83932  0.89593  0.23121  Biso   1.000  O
  O107     1.0000 0.92160  0.80139  0.23533  Biso   1.000  O
  O108     1.0000 0.76325  0.87625  0.26059  Biso   1.000  O
  C345     1.0000 0.97730  0.87840  0.25688  Biso   1.000  C
  H233     1.0000 0.01480  0.88060  0.26650  Biso   1.000  H
  H234     1.0000 0.98100  0.92140  0.24910  Biso   1.000  H
  C346     1.0000 0.98790  0.81540  0.24520  Biso   1.000  C
  H235     1.0000 0.02660  0.82390  0.23620  Biso   1.000  H
  H236     1.0000 0.00090  0.77440  0.25300  Biso   1.000  H
  C347     1.0000 0.72770  0.92000  0.24646  Biso   1.000  C
  H237     1.0000 0.70510  0.96130  0.25250  Biso   1.000  H
  H238     1.0000 0.69050  0.89200  0.24020  Biso   1.000  H
  C348     1.0000 0.78130  0.94480  0.23243  Biso   1.000  C
  H239     1.0000 0.75850  0.94920  0.22010  Biso   1.000  H
  H240     1.0000 0.79920  0.99190  0.23610  Biso   1.000  H
  Al24     1.0000 0.10192  0.10233  0.20869  Biso   1.000  Al
  Al25     1.0000 0.64706  0.39683  0.46310  Biso   1.000  Al
  Al26     1.0000 0.67141  0.34168  0.50055  Biso   1.000  Al
  Al27     1.0000 0.52994  0.50432  0.44434  Biso   1.000  Al
  O109     1.0000 0.57874  0.46706  0.46423  Biso   1.000  O
  H241     1.0000 0.56790  0.48550  0.47620  Biso   1.000  H
  O110     1.0000 0.62303  0.40867  0.51590  Biso   1.000  O
  O111     1.0000 0.69850  0.44993  0.44601  Biso   1.000  O
  C349     1.0000 0.85290  0.69570  0.29663  Biso   1.000  C
  O112     1.0000 0.48138  0.53797  0.42267  Biso   1.000  O
  C350     1.0000 0.38960  0.56440  0.40085  Biso   1.000  C
  C351     1.0000 0.25850  0.42000  0.30969  Biso   1.000  C
  O113     1.0000 0.60678  0.49065  0.42803  Biso   1.000  O
  C352     1.0000 0.29140  0.55770  0.34755  Biso   1.000  C
  C353     1.0000 0.00310  0.20620  0.32087  Biso   1.000  C
  C354     1.0000 0.67390  0.47370  0.43053  Biso   1.000  C
  C355     1.0000 0.94040  0.33260  0.33505  Biso   1.000  C
  C356     1.0000 0.83750  0.46620  0.36291  Biso   1.000  C
  C357     1.0000 0.32580  0.60060  0.39786  Biso   1.000  C
  H242     1.0000 0.30410  0.62660  0.40760  Biso   1.000  H
  C358     1.0000 0.87320  0.40360  0.35793  Biso   1.000  C
  H243     1.0000 0.87460  0.36530  0.36650  Biso   1.000  H
  C359     1.0000 0.42080  0.56330  0.42046  Biso   1.000  C
  C360     1.0000 0.86310  0.70720  0.31619  Biso   1.000  C
  H244     1.0000 0.86430  0.75380  0.32110  Biso   1.000  H
  C361     1.0000 0.25180  0.29370  0.30986  Biso   1.000  C
  H245     1.0000 0.24960  0.25070  0.31670  Biso   1.000  H
  C362     1.0000 0.21970  0.54780  0.31357  Biso   1.000  C
  H246     1.0000 0.19510  0.54490  0.30210  Biso   1.000  H
  C363     1.0000 0.29680  0.49870  0.33688  Biso   1.000  C
  H247     1.0000 0.32670  0.46140  0.34090  Biso   1.000  H
  C364     1.0000 0.90580  0.39710  0.34094  Biso   1.000  C
  C365     1.0000 0.03710  0.27300  0.31965  Biso   1.000  C
  H248     1.0000 0.08270  0.27490  0.31410  Biso   1.000  H
  C366     1.0000 0.87400  0.52020  0.33452  Biso   1.000  C
  C367     1.0000 0.71830  0.47710  0.41405  Biso   1.000  C
  C368     1.0000 0.25860  0.41740  0.29014  Biso   1.000  C
  H249     1.0000 0.26240  0.46010  0.28330  Biso   1.000  H
  C369     1.0000 0.93860  0.20680  0.32977  Biso   1.000  C
  H250     1.0000 0.91490  0.16300  0.33130  Biso   1.000  H
  C370     1.0000 0.24860  0.29240  0.29047  Biso   1.000  C
  C371     1.0000 0.86840  0.58000  0.32046  Biso   1.000  C
  C372     1.0000 0.24940  0.61560  0.34092  Biso   1.000  C
  H251     1.0000 0.24450  0.65780  0.34800  Biso   1.000  H
  C373     1.0000 0.83840  0.52390  0.35165  Biso   1.000  C
  H252     1.0000 0.81520  0.56630  0.35530  Biso   1.000  H
  C374     1.0000 0.85530  0.62830  0.28980  Biso   1.000  C
  H253     1.0000 0.85240  0.62030  0.27680  Biso   1.000  H
  C375     1.0000 0.25880  0.49060  0.31969  Biso   1.000  C
  C376     1.0000 0.00780  0.33580  0.32604  Biso   1.000  C
  H254     1.0000 0.03170  0.37960  0.32450  Biso   1.000  H
  C377     1.0000 0.25850  0.35820  0.31941  Biso   1.000  C
  H255     1.0000 0.26300  0.35870  0.33260  Biso   1.000  H
  C378     1.0000 0.73520  0.50710  0.38199  Biso   1.000  C
  H256     1.0000 0.71940  0.53010  0.37100  Biso   1.000  H
  C379     1.0000 0.69410  0.51130  0.39794  Biso   1.000  C
  H257     1.0000 0.65070  0.53660  0.39800  Biso   1.000  H
  C380     1.0000 0.79850  0.47020  0.38157  Biso   1.000  C
  C381     1.0000 0.86210  0.57040  0.30217  Biso   1.000  C
  H258     1.0000 0.86220  0.52360  0.29730  Biso   1.000  H
  C382     1.0000 0.87130  0.64900  0.32792  Biso   1.000  C
  H259     1.0000 0.87870  0.65570  0.34090  Biso   1.000  H
  C383     1.0000 0.39220  0.52870  0.36834  Biso   1.000  C
  H260     1.0000 0.41510  0.50480  0.35840  Biso   1.000  H
  C384     1.0000 0.32770  0.56290  0.36539  Biso   1.000  C
  C385     1.0000 0.29460  0.59750  0.38011  Biso   1.000  C
  H261     1.0000 0.25010  0.61940  0.37810  Biso   1.000  H
  C386     1.0000 0.78380  0.44120  0.41380  Biso   1.000  C
  H262     1.0000 0.80070  0.41880  0.42480  Biso   1.000  H
  C387     1.0000 0.03340  0.14480  0.31271  Biso   1.000  C
  C388     1.0000 0.25360  0.35690  0.28107  Biso   1.000  C
  H263     1.0000 0.25330  0.35720  0.26790  Biso   1.000  H
  O114     1.0000 0.09511  0.14854  0.30598  Biso   1.000  O
  O115     1.0000 0.99726  0.08800  0.31240  Biso   1.000  O
  C389     1.0000 0.90540  0.26790  0.33668  Biso   1.000  C
  H264     1.0000 0.86010  0.26520  0.34230  Biso   1.000  H
  O116     1.0000 0.38122  0.58917  0.43293  Biso   1.000  O
  C390     1.0000 0.82300  0.43850  0.39789  Biso   1.000  C
  H265     1.0000 0.86730  0.41480  0.39790  Biso   1.000  H
  C391     1.0000 0.90800  0.45610  0.32930  Biso   1.000  C
  H266     1.0000 0.93250  0.45340  0.31780  Biso   1.000  H
  C392     1.0000 0.09990  0.65390  0.30994  Biso   1.000  C
  H267     1.0000 0.08280  0.60680  0.30880  Biso   1.000  H
  C393     1.0000 0.19570  0.73850  0.31818  Biso   1.000  C
  H268     1.0000 0.24290  0.74740  0.32200  Biso   1.000  H
  C394     1.0000 0.16880  0.67040  0.31721  Biso   1.000  C
  O117     1.0000 0.84253  0.75178  0.26723  Biso   1.000  O
  O118     1.0000 0.45239  0.52277  0.45909  Biso   1.000  O
  H269     1.0000 0.43970  0.48730  0.46780  Biso   1.000  H
  C395     1.0000 0.05900  0.71470  0.30459  Biso   1.000  C
  H270     1.0000 0.01320  0.70710  0.29960  Biso   1.000  H
  C396     1.0000 0.14940  0.79430  0.31317  Biso   1.000  C
  H271     1.0000 0.16550  0.84160  0.31460  Biso   1.000  H
  C397     1.0000 0.42430  0.53020  0.38695  Biso   1.000  C
  H272     1.0000 0.46840  0.50780  0.38920  Biso   1.000  H
  C398     1.0000 0.21610  0.60770  0.32365  Biso   1.000  C
  C399     1.0000 0.08260  0.78340  0.30635  Biso   1.000  C
  C400     1.0000 0.03760  0.84200  0.30204  Biso   1.000  C
  O119     1.0000 0.97379  0.83435  0.29755  Biso   1.000  O
  O120     1.0000 0.06832  0.90469  0.30197  Biso   1.000  O
  O121     1.0000 0.22997  0.22271  0.26373  Biso   1.000  O
  C401     1.0000 0.23490  0.22550  0.28129  Biso   1.000  C
  O122     1.0000 0.21664  0.17180  0.29157  Biso   1.000  O
  C402     1.0000 0.84320  0.75870  0.28521  Biso   1.000  C
  O123     1.0000 0.83680  0.81699  0.29311  Biso   1.000  O
  O124     1.0000 0.60407  0.33932  0.48121  Biso   1.000  O
  O125     1.0000 0.69861  0.42160  0.48533  Biso   1.000  O
  O126     1.0000 0.62375  0.26325  0.51059  Biso   1.000  O
  C403     1.0000 0.62160  0.47730  0.50688  Biso   1.000  C
  H273     1.0000 0.61940  0.51480  0.51650  Biso   1.000  H
  H274     1.0000 0.57860  0.48100  0.49910  Biso   1.000  H
  C404     1.0000 0.68460  0.48790  0.49520  Biso   1.000  C
  H275     1.0000 0.67610  0.52660  0.48620  Biso   1.000  H
  H276     1.0000 0.72560  0.50090  0.50300  Biso   1.000  H
  C405     1.0000 0.58000  0.22770  0.49646  Biso   1.000  C
  H277     1.0000 0.53870  0.20510  0.50250  Biso   1.000  H
  H278     1.0000 0.60800  0.19050  0.49020  Biso   1.000  H
  C406     1.0000 0.55520  0.28130  0.48243  Biso   1.000  C
  H279     1.0000 0.55080  0.25850  0.47010  Biso   1.000  H
  H280     1.0000 0.50810  0.29920  0.48610  Biso   1.000  H
  Al28     1.0000 0.39767  0.60192  0.45869  Biso   1.000  Al
  Al29     1.0000 0.35294  0.60317  0.96310  Biso   1.000  Al
  Al30     1.0000 0.32859  0.65832  0.00055  Biso   1.000  Al
  Al31     1.0000 0.47006  0.49568  0.94434  Biso   1.000  Al
  O127     1.0000 0.42126  0.53294  0.96423  Biso   1.000  O
  H281     1.0000 0.43210  0.51450  0.97620  Biso   1.000  H
  O128     1.0000 0.37697  0.59133  0.01590  Biso   1.000  O
  O129     1.0000 0.30150  0.55007  0.94601  Biso   1.000  O
  C407     1.0000 0.14710  0.30430  0.79663  Biso   1.000  C
  O130     1.0000 0.51862  0.46203  0.92267  Biso   1.000  O
  C408     1.0000 0.61040  0.43560  0.90085  Biso   1.000  C
  C409     1.0000 0.74150  0.58000  0.80969  Biso   1.000  C
  O131     1.0000 0.39322  0.50935  0.92803  Biso   1.000  O
  C410     1.0000 0.70860  0.44230  0.84755  Biso   1.000  C
  C411     1.0000 0.99690  0.79380  0.82087  Biso   1.000  C
  C412     1.0000 0.32610  0.52630  0.93053  Biso   1.000  C
  C413     1.0000 0.05960  0.66740  0.83505  Biso   1.000  C
  C414     1.0000 0.16250  0.53380  0.86291  Biso   1.000  C
  C415     1.0000 0.67420  0.39940  0.89786  Biso   1.000  C
  H282     1.0000 0.69590  0.37340  0.90760  Biso   1.000  H
  C416     1.0000 0.12680  0.59640  0.85793  Biso   1.000  C
  H283     1.0000 0.12540  0.63470  0.86650  Biso   1.000  H
  C417     1.0000 0.57920  0.43670  0.92046  Biso   1.000  C
  C418     1.0000 0.13690  0.29280  0.81619  Biso   1.000  C
  H284     1.0000 0.13570  0.24620  0.82110  Biso   1.000  H
  C419     1.0000 0.74820  0.70630  0.80986  Biso   1.000  C
  H285     1.0000 0.75040  0.74930  0.81670  Biso   1.000  H
  C420     1.0000 0.78030  0.45220  0.81357  Biso   1.000  C
  H286     1.0000 0.80490  0.45510  0.80210  Biso   1.000  H
  C421     1.0000 0.70320  0.50130  0.83688  Biso   1.000  C
  H287     1.0000 0.67330  0.53860  0.84090  Biso   1.000  H
  C422     1.0000 0.09420  0.60290  0.84094  Biso   1.000  C
  C423     1.0000 0.96290  0.72700  0.81965  Biso   1.000  C
  H288     1.0000 0.91730  0.72510  0.81410  Biso   1.000  H
  C424     1.0000 0.12600  0.47980  0.83452  Biso   1.000  C
  C425     1.0000 0.28170  0.52290  0.91405  Biso   1.000  C
  C426     1.0000 0.74140  0.58260  0.79014  Biso   1.000  C
  H289     1.0000 0.73760  0.53990  0.78330  Biso   1.000  H
  C427     1.0000 0.06140  0.79320  0.82977  Biso   1.000  C
  H290     1.0000 0.08510  0.83700  0.83130  Biso   1.000  H
  C428     1.0000 0.75140  0.70760  0.79047  Biso   1.000  C
  C429     1.0000 0.13160  0.42000  0.82046  Biso   1.000  C
  C430     1.0000 0.75060  0.38440  0.84092  Biso   1.000  C
  H291     1.0000 0.75550  0.34220  0.84800  Biso   1.000  H
  C431     1.0000 0.16160  0.47610  0.85165  Biso   1.000  C
  H292     1.0000 0.18480  0.43370  0.85530  Biso   1.000  H
  C432     1.0000 0.14470  0.37170  0.78980  Biso   1.000  C
  H293     1.0000 0.14760  0.37970  0.77680  Biso   1.000  H
  C433     1.0000 0.74120  0.50940  0.81969  Biso   1.000  C
  C434     1.0000 0.99220  0.66420  0.82604  Biso   1.000  C
  H294     1.0000 0.96830  0.62040  0.82450  Biso   1.000  H
  C435     1.0000 0.74150  0.64180  0.81941  Biso   1.000  C
  H295     1.0000 0.73700  0.64130  0.83260  Biso   1.000  H
  C436     1.0000 0.26480  0.49290  0.88199  Biso   1.000  C
  H296     1.0000 0.28060  0.46990  0.87100  Biso   1.000  H
  C437     1.0000 0.30590  0.48870  0.89794  Biso   1.000  C
  H297     1.0000 0.34930  0.46340  0.89800  Biso   1.000  H
  C438     1.0000 0.20150  0.52980  0.88157  Biso   1.000  C
  C439     1.0000 0.13790  0.42960  0.80217  Biso   1.000  C
  H298     1.0000 0.13780  0.47640  0.79730  Biso   1.000  H
  C440     1.0000 0.12870  0.35100  0.82792  Biso   1.000  C
  H299     1.0000 0.12130  0.34430  0.84090  Biso   1.000  H
  C441     1.0000 0.60780  0.47130  0.86834  Biso   1.000  C
  H300     1.0000 0.58490  0.49520  0.85840  Biso   1.000  H
  C442     1.0000 0.67230  0.43710  0.86539  Biso   1.000  C
  C443     1.0000 0.70540  0.40250  0.88011  Biso   1.000  C
  H301     1.0000 0.74990  0.38060  0.87810  Biso   1.000  H
  C444     1.0000 0.21620  0.55880  0.91380  Biso   1.000  C
  H302     1.0000 0.19930  0.58120  0.92480  Biso   1.000  H
  C445     1.0000 0.96660  0.85520  0.81271  Biso   1.000  C
  C446     1.0000 0.74640  0.64310  0.78107  Biso   1.000  C
  H303     1.0000 0.74670  0.64280  0.76790  Biso   1.000  H
  O132     1.0000 0.90489  0.85146  0.80598  Biso   1.000  O
  O133     1.0000 0.00274  0.91200  0.81240  Biso   1.000  O
  C447     1.0000 0.09460  0.73210  0.83668  Biso   1.000  C
  H304     1.0000 0.13990  0.73480  0.84230  Biso   1.000  H
  O134     1.0000 0.61878  0.41083  0.93293  Biso   1.000  O
  C448     1.0000 0.17700  0.56150  0.89789  Biso   1.000  C
  H305     1.0000 0.13270  0.58520  0.89790  Biso   1.000  H
  C449     1.0000 0.09200  0.54390  0.82930  Biso   1.000  C
  H306     1.0000 0.06750  0.54660  0.81780  Biso   1.000  H
  C450     1.0000 0.90010  0.34610  0.80994  Biso   1.000  C
  H307     1.0000 0.91720  0.39320  0.80880  Biso   1.000  H
  C451     1.0000 0.80430  0.26150  0.81818  Biso   1.000  C
  H308     1.0000 0.75710  0.25260  0.82200  Biso   1.000  H
  C452     1.0000 0.83120  0.32960  0.81721  Biso   1.000  C
  O135     1.0000 0.15747  0.24822  0.76723  Biso   1.000  O
  O136     1.0000 0.54761  0.47723  0.95909  Biso   1.000  O
  H309     1.0000 0.56030  0.51270  0.96780  Biso   1.000  H
  C453     1.0000 0.94100  0.28530  0.80459  Biso   1.000  C
  H310     1.0000 0.98680  0.29290  0.79960  Biso   1.000  H
  C454     1.0000 0.85060  0.20570  0.81317  Biso   1.000  C
  H311     1.0000 0.83450  0.15840  0.81460  Biso   1.000  H
  C455     1.0000 0.57570  0.46980  0.88695  Biso   1.000  C
  H312     1.0000 0.53160  0.49220  0.88920  Biso   1.000  H
  C456     1.0000 0.78390  0.39230  0.82365  Biso   1.000  C
  C457     1.0000 0.91740  0.21660  0.80635  Biso   1.000  C
  C458     1.0000 0.96240  0.15800  0.80204  Biso   1.000  C
  O137     1.0000 0.02621  0.16565  0.79755  Biso   1.000  O
  O138     1.0000 0.93168  0.09531  0.80197  Biso   1.000  O
  O139     1.0000 0.77003  0.77729  0.76373  Biso   1.000  O
  C459     1.0000 0.76510  0.77450  0.78129  Biso   1.000  C
  O140     1.0000 0.78336  0.82820  0.79157  Biso   1.000  O
  C460     1.0000 0.15680  0.24130  0.78521  Biso   1.000  C
  O141     1.0000 0.16320  0.18301  0.79311  Biso   1.000  O
  O142     1.0000 0.39593  0.66068  0.98121  Biso   1.000  O
  O143     1.0000 0.30139  0.57840  0.98533  Biso   1.000  O
  O144     1.0000 0.37625  0.73675  0.01059  Biso   1.000  O
  C461     1.0000 0.37840  0.52270  0.00688  Biso   1.000  C
  H313     1.0000 0.38060  0.48520  0.01650  Biso   1.000  H
  H314     1.0000 0.42140  0.51900  0.99910  Biso   1.000  H
  C462     1.0000 0.31540  0.51210  0.99520  Biso   1.000  C
  H315     1.0000 0.32390  0.47340  0.98620  Biso   1.000  H
  H316     1.0000 0.27440  0.49910  0.00300  Biso   1.000  H
  C463     1.0000 0.42000  0.77230  0.99646  Biso   1.000  C
  H317     1.0000 0.46130  0.79490  0.00250  Biso   1.000  H
  H318     1.0000 0.39200  0.80950  0.99020  Biso   1.000  H
  C464     1.0000 0.44480  0.71870  0.98243  Biso   1.000  C
  H319     1.0000 0.44920  0.74150  0.97010  Biso   1.000  H
  H320     1.0000 0.49190  0.70080  0.98610  Biso   1.000  H
  Al32     1.0000 0.60233  0.39808  0.95869  Biso   1.000  Al
