data_image0
_cell_length_a       18.3308
_cell_length_b       22.5675
_cell_length_c       31.7435
_cell_angle_alpha    90
_cell_angle_beta     90
_cell_angle_gamma    90

_symmetry_space_group_name_H-M    "P 1"
_symmetry_int_tables_number       1

loop_
  _symmetry_equiv_pos_as_xyz
  'x, y, z'

loop_
  _atom_site_label
  _atom_site_occupancy
  _atom_site_fract_x
  _atom_site_fract_y
  _atom_site_fract_z
  _atom_site_thermal_displace_type
  _atom_site_B_iso_or_equiv
  _atom_site_type_symbol
  N1       1.0000 0.37271  0.94306  0.32653  Biso   1.000  N
  O1       1.0000 0.52045  0.09091  0.21425  Biso   1.000  O
  O2       1.0000 0.31438  0.18017  0.26254  Biso   1.000  O
  N2       1.0000 0.40740  0.12337  0.23591  Biso   1.000  N
  C1       1.0000 0.31710  0.02668  0.29403  Biso   1.000  C
  H1       1.0000 0.28070  0.05540  0.29470  Biso   1.000  H
  C2       1.0000 0.32140  0.98539  0.32550  Biso   1.000  C
  H2       1.0000 0.28730  0.98680  0.34710  Biso   1.000  H
  C3       1.0000 0.49940  0.19186  0.23831  Biso   1.000  C
  C4       1.0000 0.36640  0.02589  0.26130  Biso   1.000  C
  C5       1.0000 0.48160  0.12970  0.22738  Biso   1.000  C
  C6       1.0000 0.36490  0.07040  0.22606  Biso   1.000  C
  H3       1.0000 0.31470  0.08170  0.22050  Biso   1.000  H
  H4       1.0000 0.38420  0.05220  0.20070  Biso   1.000  H
  C7       1.0000 0.43640  0.21969  0.25243  Biso   1.000  C
  C8       1.0000 0.41990  0.94257  0.29503  Biso   1.000  C
  H5       1.0000 0.45580  0.91350  0.29490  Biso   1.000  H
  C9       1.0000 0.41880  0.98250  0.26245  Biso   1.000  C
  H6       1.0000 0.45360  0.98020  0.24120  Biso   1.000  H
  C10      1.0000 0.56570  0.22182  0.23532  Biso   1.000  C
  H7       1.0000 0.60820  0.20370  0.22580  Biso   1.000  H
  C11      1.0000 0.37740  0.17482  0.25144  Biso   1.000  C
  S1       1.0000 0.11668  0.84690  0.36694  Biso   1.000  S
  N3       1.0000 0.37271  0.44306  0.82653  Biso   1.000  N
  O3       1.0000 0.52045  0.59091  0.71425  Biso   1.000  O
  O4       1.0000 0.31438  0.68017  0.76254  Biso   1.000  O
  N4       1.0000 0.40740  0.62337  0.73591  Biso   1.000  N
  C12      1.0000 0.31710  0.52668  0.79403  Biso   1.000  C
  H8       1.0000 0.28070  0.55540  0.79470  Biso   1.000  H
  C13      1.0000 0.32140  0.48539  0.82550  Biso   1.000  C
  H9       1.0000 0.28730  0.48680  0.84710  Biso   1.000  H
  C14      1.0000 0.49940  0.69186  0.73831  Biso   1.000  C
  C15      1.0000 0.36640  0.52589  0.76130  Biso   1.000  C
  C16      1.0000 0.48160  0.62970  0.72738  Biso   1.000  C
  C17      1.0000 0.36490  0.57040  0.72606  Biso   1.000  C
  H10      1.0000 0.31470  0.58170  0.72050  Biso   1.000  H
  H11      1.0000 0.38420  0.55220  0.70070  Biso   1.000  H
  C18      1.0000 0.43640  0.71969  0.75243  Biso   1.000  C
  C19      1.0000 0.41990  0.44257  0.79503  Biso   1.000  C
  H12      1.0000 0.45580  0.41350  0.79490  Biso   1.000  H
  C20      1.0000 0.41880  0.48250  0.76245  Biso   1.000  C
  H13      1.0000 0.45360  0.48020  0.74120  Biso   1.000  H
  C21      1.0000 0.56570  0.72182  0.73532  Biso   1.000  C
  H14      1.0000 0.60820  0.70370  0.72580  Biso   1.000  H
  C22      1.0000 0.37740  0.67482  0.75144  Biso   1.000  C
  S2       1.0000 0.11668  0.34690  0.86694  Biso   1.000  S
  N5       1.0000 0.87271  0.94306  0.82653  Biso   1.000  N
  O5       1.0000 0.02045  0.09091  0.71425  Biso   1.000  O
  O6       1.0000 0.81438  0.18017  0.76254  Biso   1.000  O
  N6       1.0000 0.90740  0.12337  0.73591  Biso   1.000  N
  C23      1.0000 0.81710  0.02668  0.79403  Biso   1.000  C
  H15      1.0000 0.78070  0.05540  0.79470  Biso   1.000  H
  C24      1.0000 0.82140  0.98539  0.82550  Biso   1.000  C
  H16      1.0000 0.78730  0.98680  0.84710  Biso   1.000  H
  C25      1.0000 0.99940  0.19186  0.73831  Biso   1.000  C
  C26      1.0000 0.86640  0.02589  0.76130  Biso   1.000  C
  C27      1.0000 0.98160  0.12970  0.72738  Biso   1.000  C
  C28      1.0000 0.86490  0.07040  0.72606  Biso   1.000  C
  H17      1.0000 0.81470  0.08170  0.72050  Biso   1.000  H
  H18      1.0000 0.88420  0.05220  0.70070  Biso   1.000  H
  C29      1.0000 0.93640  0.21969  0.75243  Biso   1.000  C
  C30      1.0000 0.91990  0.94257  0.79503  Biso   1.000  C
  H19      1.0000 0.95580  0.91350  0.79490  Biso   1.000  H
  C31      1.0000 0.91880  0.98250  0.76245  Biso   1.000  C
  H20      1.0000 0.95360  0.98020  0.74120  Biso   1.000  H
  C32      1.0000 0.06570  0.22182  0.73532  Biso   1.000  C
  H21      1.0000 0.10820  0.20370  0.72580  Biso   1.000  H
  C33      1.0000 0.87740  0.17482  0.75144  Biso   1.000  C
  S3       1.0000 0.61668  0.84690  0.86694  Biso   1.000  S
  N7       1.0000 0.87271  0.44306  0.32653  Biso   1.000  N
  O7       1.0000 0.02045  0.59091  0.21425  Biso   1.000  O
  O8       1.0000 0.81438  0.68017  0.26254  Biso   1.000  O
  N8       1.0000 0.90740  0.62337  0.23591  Biso   1.000  N
  C34      1.0000 0.81710  0.52668  0.29403  Biso   1.000  C
  H22      1.0000 0.78070  0.55540  0.29470  Biso   1.000  H
  C35      1.0000 0.82140  0.48539  0.32550  Biso   1.000  C
  H23      1.0000 0.78730  0.48680  0.34710  Biso   1.000  H
  C36      1.0000 0.99940  0.69186  0.23831  Biso   1.000  C
  C37      1.0000 0.86640  0.52589  0.26130  Biso   1.000  C
  C38      1.0000 0.98160  0.62970  0.22738  Biso   1.000  C
  C39      1.0000 0.86490  0.57040  0.22606  Biso   1.000  C
  H24      1.0000 0.81470  0.58170  0.22050  Biso   1.000  H
  H25      1.0000 0.88420  0.55220  0.20070  Biso   1.000  H
  C40      1.0000 0.93640  0.71969  0.25243  Biso   1.000  C
  C41      1.0000 0.91990  0.44257  0.29503  Biso   1.000  C
  H26      1.0000 0.95580  0.41350  0.29490  Biso   1.000  H
  C42      1.0000 0.91880  0.48250  0.26245  Biso   1.000  C
  H27      1.0000 0.95360  0.48020  0.24120  Biso   1.000  H
  C43      1.0000 0.06570  0.72182  0.23532  Biso   1.000  C
  H28      1.0000 0.10820  0.70370  0.22580  Biso   1.000  H
  C44      1.0000 0.87740  0.67482  0.25144  Biso   1.000  C
  S4       1.0000 0.61668  0.34690  0.36694  Biso   1.000  S
  N9       1.0000 0.37729  0.80694  0.32653  Biso   1.000  N
  O9       1.0000 0.22955  0.65909  0.21425  Biso   1.000  O
  O10      1.0000 0.43562  0.56983  0.26254  Biso   1.000  O
  N10      1.0000 0.34260  0.62663  0.23591  Biso   1.000  N
  C45      1.0000 0.43290  0.72332  0.29403  Biso   1.000  C
  H29      1.0000 0.46930  0.69460  0.29470  Biso   1.000  H
  C46      1.0000 0.42860  0.76461  0.32550  Biso   1.000  C
  H30      1.0000 0.46270  0.76320  0.34710  Biso   1.000  H
  C47      1.0000 0.25060  0.55814  0.23831  Biso   1.000  C
  C48      1.0000 0.38360  0.72411  0.26130  Biso   1.000  C
  C49      1.0000 0.26840  0.62030  0.22738  Biso   1.000  C
  C50      1.0000 0.38510  0.67960  0.22606  Biso   1.000  C
  H31      1.0000 0.43530  0.66830  0.22050  Biso   1.000  H
  H32      1.0000 0.36580  0.69780  0.20070  Biso   1.000  H
  C51      1.0000 0.31360  0.53031  0.25243  Biso   1.000  C
  C52      1.0000 0.33010  0.80743  0.29503  Biso   1.000  C
  H33      1.0000 0.29420  0.83650  0.29490  Biso   1.000  H
  C53      1.0000 0.33120  0.76750  0.26245  Biso   1.000  C
  H34      1.0000 0.29640  0.76980  0.24120  Biso   1.000  H
  C54      1.0000 0.18430  0.52818  0.23532  Biso   1.000  C
  H35      1.0000 0.14180  0.54630  0.22580  Biso   1.000  H
  C55      1.0000 0.37260  0.57518  0.25144  Biso   1.000  C
  S5       1.0000 0.63332  0.90310  0.36694  Biso   1.000  S
  N11      1.0000 0.37729  0.30694  0.82653  Biso   1.000  N
  O11      1.0000 0.22955  0.15909  0.71425  Biso   1.000  O
  O12      1.0000 0.43562  0.06983  0.76254  Biso   1.000  O
  N12      1.0000 0.34260  0.12663  0.73591  Biso   1.000  N
  C56      1.0000 0.43290  0.22332  0.79403  Biso   1.000  C
  H36      1.0000 0.46930  0.19460  0.79470  Biso   1.000  H
  C57      1.0000 0.42860  0.26461  0.82550  Biso   1.000  C
  H37      1.0000 0.46270  0.26320  0.84710  Biso   1.000  H
  C58      1.0000 0.25060  0.05814  0.73831  Biso   1.000  C
  C59      1.0000 0.38360  0.22411  0.76130  Biso   1.000  C
  C60      1.0000 0.26840  0.12030  0.72738  Biso   1.000  C
  C61      1.0000 0.38510  0.17960  0.72606  Biso   1.000  C
  H38      1.0000 0.43530  0.16830  0.72050  Biso   1.000  H
  H39      1.0000 0.36580  0.19780  0.70070  Biso   1.000  H
  C62      1.0000 0.31360  0.03031  0.75243  Biso   1.000  C
  C63      1.0000 0.33010  0.30743  0.79503  Biso   1.000  C
  H40      1.0000 0.29420  0.33650  0.79490  Biso   1.000  H
  C64      1.0000 0.33120  0.26750  0.76245  Biso   1.000  C
  H41      1.0000 0.29640  0.26980  0.74120  Biso   1.000  H
  C65      1.0000 0.18430  0.02818  0.73532  Biso   1.000  C
  H42      1.0000 0.14180  0.04630  0.72580  Biso   1.000  H
  C66      1.0000 0.37260  0.07518  0.75144  Biso   1.000  C
  S6       1.0000 0.63332  0.40310  0.86694  Biso   1.000  S
  N13      1.0000 0.87729  0.80694  0.82653  Biso   1.000  N
  O13      1.0000 0.72955  0.65909  0.71425  Biso   1.000  O
  O14      1.0000 0.93562  0.56983  0.76254  Biso   1.000  O
  N14      1.0000 0.84260  0.62663  0.73591  Biso   1.000  N
  C67      1.0000 0.93290  0.72332  0.79403  Biso   1.000  C
  H43      1.0000 0.96930  0.69460  0.79470  Biso   1.000  H
  C68      1.0000 0.92860  0.76461  0.82550  Biso   1.000  C
  H44      1.0000 0.96270  0.76320  0.84710  Biso   1.000  H
  C69      1.0000 0.75060  0.55814  0.73831  Biso   1.000  C
  C70      1.0000 0.88360  0.72411  0.76130  Biso   1.000  C
  C71      1.0000 0.76840  0.62030  0.72738  Biso   1.000  C
  C72      1.0000 0.88510  0.67960  0.72606  Biso   1.000  C
  H45      1.0000 0.93530  0.66830  0.72050  Biso   1.000  H
  H46      1.0000 0.86580  0.69780  0.70070  Biso   1.000  H
  C73      1.0000 0.81360  0.53031  0.75243  Biso   1.000  C
  C74      1.0000 0.83010  0.80743  0.79503  Biso   1.000  C
  H47      1.0000 0.79420  0.83650  0.79490  Biso   1.000  H
  C75      1.0000 0.83120  0.76750  0.76245  Biso   1.000  C
  H48      1.0000 0.79640  0.76980  0.74120  Biso   1.000  H
  C76      1.0000 0.68430  0.52818  0.73532  Biso   1.000  C
  H49      1.0000 0.64180  0.54630  0.72580  Biso   1.000  H
  C77      1.0000 0.87260  0.57518  0.75144  Biso   1.000  C
  S7       1.0000 0.13332  0.90310  0.86694  Biso   1.000  S
  N15      1.0000 0.87729  0.30694  0.32653  Biso   1.000  N
  O15      1.0000 0.72955  0.15909  0.21425  Biso   1.000  O
  O16      1.0000 0.93562  0.06983  0.26254  Biso   1.000  O
  N16      1.0000 0.84260  0.12663  0.23591  Biso   1.000  N
  C78      1.0000 0.93290  0.22332  0.29403  Biso   1.000  C
  H50      1.0000 0.96930  0.19460  0.29470  Biso   1.000  H
  C79      1.0000 0.92860  0.26461  0.32550  Biso   1.000  C
  H51      1.0000 0.96270  0.26320  0.34710  Biso   1.000  H
  C80      1.0000 0.75060  0.05814  0.23831  Biso   1.000  C
  C81      1.0000 0.88360  0.22411  0.26130  Biso   1.000  C
  C82      1.0000 0.76840  0.12030  0.22738  Biso   1.000  C
  C83      1.0000 0.88510  0.17960  0.22606  Biso   1.000  C
  H52      1.0000 0.93530  0.16830  0.22050  Biso   1.000  H
  H53      1.0000 0.86580  0.19780  0.20070  Biso   1.000  H
  C84      1.0000 0.81360  0.03031  0.25243  Biso   1.000  C
  C85      1.0000 0.83010  0.30743  0.29503  Biso   1.000  C
  H54      1.0000 0.79420  0.33650  0.29490  Biso   1.000  H
  C86      1.0000 0.83120  0.26750  0.26245  Biso   1.000  C
  H55      1.0000 0.79640  0.26980  0.24120  Biso   1.000  H
  C87      1.0000 0.68430  0.02818  0.23532  Biso   1.000  C
  H56      1.0000 0.64180  0.04630  0.22580  Biso   1.000  H
  C88      1.0000 0.87260  0.07518  0.25144  Biso   1.000  C
  S8       1.0000 0.13332  0.40310  0.36694  Biso   1.000  S
  N17      1.0000 0.37729  0.94306  0.42347  Biso   1.000  N
  O17      1.0000 0.22955  0.09091  0.53575  Biso   1.000  O
  O18      1.0000 0.43562  0.18017  0.48746  Biso   1.000  O
  N18      1.0000 0.34260  0.12337  0.51409  Biso   1.000  N
  C89      1.0000 0.43290  0.02668  0.45597  Biso   1.000  C
  H57      1.0000 0.46930  0.05540  0.45530  Biso   1.000  H
  C90      1.0000 0.42860  0.98539  0.42450  Biso   1.000  C
  H58      1.0000 0.46270  0.98680  0.40290  Biso   1.000  H
  C91      1.0000 0.25060  0.19186  0.51169  Biso   1.000  C
  C92      1.0000 0.38360  0.02589  0.48870  Biso   1.000  C
  C93      1.0000 0.26840  0.12970  0.52262  Biso   1.000  C
  C94      1.0000 0.38510  0.07040  0.52394  Biso   1.000  C
  H59      1.0000 0.43530  0.08170  0.52950  Biso   1.000  H
  H60      1.0000 0.36580  0.05220  0.54930  Biso   1.000  H
  C95      1.0000 0.31360  0.21969  0.49757  Biso   1.000  C
  C96      1.0000 0.33010  0.94257  0.45497  Biso   1.000  C
  H61      1.0000 0.29420  0.91350  0.45510  Biso   1.000  H
  C97      1.0000 0.33120  0.98250  0.48755  Biso   1.000  C
  H62      1.0000 0.29640  0.98020  0.50880  Biso   1.000  H
  C98      1.0000 0.18430  0.22182  0.51468  Biso   1.000  C
  H63      1.0000 0.14180  0.20370  0.52420  Biso   1.000  H
  C99      1.0000 0.37260  0.17482  0.49856  Biso   1.000  C
  S9       1.0000 0.63332  0.84690  0.38306  Biso   1.000  S
  N19      1.0000 0.37729  0.44306  0.92347  Biso   1.000  N
  O19      1.0000 0.22955  0.59091  0.03575  Biso   1.000  O
  O20      1.0000 0.43562  0.68017  0.98746  Biso   1.000  O
  N20      1.0000 0.34260  0.62337  0.01409  Biso   1.000  N
  C100     1.0000 0.43290  0.52668  0.95597  Biso   1.000  C
  H64      1.0000 0.46930  0.55540  0.95530  Biso   1.000  H
  C101     1.0000 0.42860  0.48539  0.92450  Biso   1.000  C
  H65      1.0000 0.46270  0.48680  0.90290  Biso   1.000  H
  C102     1.0000 0.25060  0.69186  0.01169  Biso   1.000  C
  C103     1.0000 0.38360  0.52589  0.98870  Biso   1.000  C
  C104     1.0000 0.26840  0.62970  0.02262  Biso   1.000  C
  C105     1.0000 0.38510  0.57040  0.02394  Biso   1.000  C
  H66      1.0000 0.43530  0.58170  0.02950  Biso   1.000  H
  H67      1.0000 0.36580  0.55220  0.04930  Biso   1.000  H
  C106     1.0000 0.31360  0.71969  0.99757  Biso   1.000  C
  C107     1.0000 0.33010  0.44257  0.95497  Biso   1.000  C
  H68      1.0000 0.29420  0.41350  0.95510  Biso   1.000  H
  C108     1.0000 0.33120  0.48250  0.98755  Biso   1.000  C
  H69      1.0000 0.29640  0.48020  0.00880  Biso   1.000  H
  C109     1.0000 0.18430  0.72182  0.01468  Biso   1.000  C
  H70      1.0000 0.14180  0.70370  0.02420  Biso   1.000  H
  C110     1.0000 0.37260  0.67482  0.99856  Biso   1.000  C
  S10      1.0000 0.63332  0.34690  0.88306  Biso   1.000  S
  N21      1.0000 0.87729  0.94306  0.92347  Biso   1.000  N
  O21      1.0000 0.72955  0.09091  0.03575  Biso   1.000  O
  O22      1.0000 0.93562  0.18017  0.98746  Biso   1.000  O
  N22      1.0000 0.84260  0.12337  0.01409  Biso   1.000  N
  C111     1.0000 0.93290  0.02668  0.95597  Biso   1.000  C
  H71      1.0000 0.96930  0.05540  0.95530  Biso   1.000  H
  C112     1.0000 0.92860  0.98539  0.92450  Biso   1.000  C
  H72      1.0000 0.96270  0.98680  0.90290  Biso   1.000  H
  C113     1.0000 0.75060  0.19186  0.01169  Biso   1.000  C
  C114     1.0000 0.88360  0.02589  0.98870  Biso   1.000  C
  C115     1.0000 0.76840  0.12970  0.02262  Biso   1.000  C
  C116     1.0000 0.88510  0.07040  0.02394  Biso   1.000  C
  H73      1.0000 0.93530  0.08170  0.02950  Biso   1.000  H
  H74      1.0000 0.86580  0.05220  0.04930  Biso   1.000  H
  C117     1.0000 0.81360  0.21969  0.99757  Biso   1.000  C
  C118     1.0000 0.83010  0.94257  0.95497  Biso   1.000  C
  H75      1.0000 0.79420  0.91350  0.95510  Biso   1.000  H
  C119     1.0000 0.83120  0.98250  0.98755  Biso   1.000  C
  H76      1.0000 0.79640  0.98020  0.00880  Biso   1.000  H
  C120     1.0000 0.68430  0.22182  0.01468  Biso   1.000  C
  H77      1.0000 0.64180  0.20370  0.02420  Biso   1.000  H
  C121     1.0000 0.87260  0.17482  0.99856  Biso   1.000  C
  S11      1.0000 0.13332  0.84690  0.88306  Biso   1.000  S
  N23      1.0000 0.87729  0.44306  0.42347  Biso   1.000  N
  O23      1.0000 0.72955  0.59091  0.53575  Biso   1.000  O
  O24      1.0000 0.93562  0.68017  0.48746  Biso   1.000  O
  N24      1.0000 0.84260  0.62337  0.51409  Biso   1.000  N
  C122     1.0000 0.93290  0.52668  0.45597  Biso   1.000  C
  H78      1.0000 0.96930  0.55540  0.45530  Biso   1.000  H
  C123     1.0000 0.92860  0.48539  0.42450  Biso   1.000  C
  H79      1.0000 0.96270  0.48680  0.40290  Biso   1.000  H
  C124     1.0000 0.75060  0.69186  0.51169  Biso   1.000  C
  C125     1.0000 0.88360  0.52589  0.48870  Biso   1.000  C
  C126     1.0000 0.76840  0.62970  0.52262  Biso   1.000  C
  C127     1.0000 0.88510  0.57040  0.52394  Biso   1.000  C
  H80      1.0000 0.93530  0.58170  0.52950  Biso   1.000  H
  H81      1.0000 0.86580  0.55220  0.54930  Biso   1.000  H
  C128     1.0000 0.81360  0.71969  0.49757  Biso   1.000  C
  C129     1.0000 0.83010  0.44257  0.45497  Biso   1.000  C
  H82      1.0000 0.79420  0.41350  0.45510  Biso   1.000  H
  C130     1.0000 0.83120  0.48250  0.48755  Biso   1.000  C
  H83      1.0000 0.79640  0.48020  0.50880  Biso   1.000  H
  C131     1.0000 0.68430  0.72182  0.51468  Biso   1.000  C
  H84      1.0000 0.64180  0.70370  0.52420  Biso   1.000  H
  C132     1.0000 0.87260  0.67482  0.49856  Biso   1.000  C
  S12      1.0000 0.13332  0.34690  0.38306  Biso   1.000  S
  N25      1.0000 0.37271  0.80694  0.42347  Biso   1.000  N
  O25      1.0000 0.52045  0.65909  0.53575  Biso   1.000  O
  O26      1.0000 0.31438  0.56983  0.48746  Biso   1.000  O
  N26      1.0000 0.40740  0.62663  0.51409  Biso   1.000  N
  C133     1.0000 0.31710  0.72332  0.45597  Biso   1.000  C
  H85      1.0000 0.28070  0.69460  0.45530  Biso   1.000  H
  C134     1.0000 0.32140  0.76461  0.42450  Biso   1.000  C
  H86      1.0000 0.28730  0.76320  0.40290  Biso   1.000  H
  C135     1.0000 0.49940  0.55814  0.51169  Biso   1.000  C
  C136     1.0000 0.36640  0.72411  0.48870  Biso   1.000  C
  C137     1.0000 0.48160  0.62030  0.52262  Biso   1.000  C
  C138     1.0000 0.36490  0.67960  0.52394  Biso   1.000  C
  H87      1.0000 0.31470  0.66830  0.52950  Biso   1.000  H
  H88      1.0000 0.38420  0.69780  0.54930  Biso   1.000  H
  C139     1.0000 0.43640  0.53031  0.49757  Biso   1.000  C
  C140     1.0000 0.41990  0.80743  0.45497  Biso   1.000  C
  H89      1.0000 0.45580  0.83650  0.45510  Biso   1.000  H
  C141     1.0000 0.41880  0.76750  0.48755  Biso   1.000  C
  H90      1.0000 0.45360  0.76980  0.50880  Biso   1.000  H
  C142     1.0000 0.56570  0.52818  0.51468  Biso   1.000  C
  H91      1.0000 0.60820  0.54630  0.52420  Biso   1.000  H
  C143     1.0000 0.37740  0.57518  0.49856  Biso   1.000  C
  S13      1.0000 0.11668  0.90310  0.38306  Biso   1.000  S
  N27      1.0000 0.37271  0.30694  0.92347  Biso   1.000  N
  O27      1.0000 0.52045  0.15909  0.03575  Biso   1.000  O
  O28      1.0000 0.31438  0.06983  0.98746  Biso   1.000  O
  N28      1.0000 0.40740  0.12663  0.01409  Biso   1.000  N
  C144     1.0000 0.31710  0.22332  0.95597  Biso   1.000  C
  H92      1.0000 0.28070  0.19460  0.95530  Biso   1.000  H
  C145     1.0000 0.32140  0.26461  0.92450  Biso   1.000  C
  H93      1.0000 0.28730  0.26320  0.90290  Biso   1.000  H
  C146     1.0000 0.49940  0.05814  0.01169  Biso   1.000  C
  C147     1.0000 0.36640  0.22411  0.98870  Biso   1.000  C
  C148     1.0000 0.48160  0.12030  0.02262  Biso   1.000  C
  C149     1.0000 0.36490  0.17960  0.02394  Biso   1.000  C
  H94      1.0000 0.31470  0.16830  0.02950  Biso   1.000  H
  H95      1.0000 0.38420  0.19780  0.04930  Biso   1.000  H
  C150     1.0000 0.43640  0.03031  0.99757  Biso   1.000  C
  C151     1.0000 0.41990  0.30743  0.95497  Biso   1.000  C
  H96      1.0000 0.45580  0.33650  0.95510  Biso   1.000  H
  C152     1.0000 0.41880  0.26750  0.98755  Biso   1.000  C
  H97      1.0000 0.45360  0.26980  0.00880  Biso   1.000  H
  C153     1.0000 0.56570  0.02818  0.01468  Biso   1.000  C
  H98      1.0000 0.60820  0.04630  0.02420  Biso   1.000  H
  C154     1.0000 0.37740  0.07518  0.99856  Biso   1.000  C
  S14      1.0000 0.11668  0.40310  0.88306  Biso   1.000  S
  N29      1.0000 0.87271  0.80694  0.92347  Biso   1.000  N
  O29      1.0000 0.02045  0.65909  0.03575  Biso   1.000  O
  O30      1.0000 0.81438  0.56983  0.98746  Biso   1.000  O
  N30      1.0000 0.90740  0.62663  0.01409  Biso   1.000  N
  C155     1.0000 0.81710  0.72332  0.95597  Biso   1.000  C
  H99      1.0000 0.78070  0.69460  0.95530  Biso   1.000  H
  C156     1.0000 0.82140  0.76461  0.92450  Biso   1.000  C
  H100     1.0000 0.78730  0.76320  0.90290  Biso   1.000  H
  C157     1.0000 0.99940  0.55814  0.01169  Biso   1.000  C
  C158     1.0000 0.86640  0.72411  0.98870  Biso   1.000  C
  C159     1.0000 0.98160  0.62030  0.02262  Biso   1.000  C
  C160     1.0000 0.86490  0.67960  0.02394  Biso   1.000  C
  H101     1.0000 0.81470  0.66830  0.02950  Biso   1.000  H
  H102     1.0000 0.88420  0.69780  0.04930  Biso   1.000  H
  C161     1.0000 0.93640  0.53031  0.99757  Biso   1.000  C
  C162     1.0000 0.91990  0.80743  0.95497  Biso   1.000  C
  H103     1.0000 0.95580  0.83650  0.95510  Biso   1.000  H
  C163     1.0000 0.91880  0.76750  0.98755  Biso   1.000  C
  H104     1.0000 0.95360  0.76980  0.00880  Biso   1.000  H
  C164     1.0000 0.06570  0.52818  0.01468  Biso   1.000  C
  H105     1.0000 0.10820  0.54630  0.02420  Biso   1.000  H
  C165     1.0000 0.87740  0.57518  0.99856  Biso   1.000  C
  S15      1.0000 0.61668  0.90310  0.88306  Biso   1.000  S
  N31      1.0000 0.87271  0.30694  0.42347  Biso   1.000  N
  O31      1.0000 0.02045  0.15909  0.53575  Biso   1.000  O
  O32      1.0000 0.81438  0.06983  0.48746  Biso   1.000  O
  N32      1.0000 0.90740  0.12663  0.51409  Biso   1.000  N
  C166     1.0000 0.81710  0.22332  0.45597  Biso   1.000  C
  H106     1.0000 0.78070  0.19460  0.45530  Biso   1.000  H
  C167     1.0000 0.82140  0.26461  0.42450  Biso   1.000  C
  H107     1.0000 0.78730  0.26320  0.40290  Biso   1.000  H
  C168     1.0000 0.99940  0.05814  0.51169  Biso   1.000  C
  C169     1.0000 0.86640  0.22411  0.48870  Biso   1.000  C
  C170     1.0000 0.98160  0.12030  0.52262  Biso   1.000  C
  C171     1.0000 0.86490  0.17960  0.52394  Biso   1.000  C
  H108     1.0000 0.81470  0.16830  0.52950  Biso   1.000  H
  H109     1.0000 0.88420  0.19780  0.54930  Biso   1.000  H
  C172     1.0000 0.93640  0.03031  0.49757  Biso   1.000  C
  C173     1.0000 0.91990  0.30743  0.45497  Biso   1.000  C
  H110     1.0000 0.95580  0.33650  0.45510  Biso   1.000  H
  C174     1.0000 0.91880  0.26750  0.48755  Biso   1.000  C
  H111     1.0000 0.95360  0.26980  0.50880  Biso   1.000  H
  C175     1.0000 0.06570  0.02818  0.51468  Biso   1.000  C
  H112     1.0000 0.10820  0.04630  0.52420  Biso   1.000  H
  C176     1.0000 0.87740  0.07518  0.49856  Biso   1.000  C
  S16      1.0000 0.61668  0.40310  0.38306  Biso   1.000  S
  N33      1.0000 0.62729  0.05694  0.67347  Biso   1.000  N
  O33      1.0000 0.47955  0.90909  0.78575  Biso   1.000  O
  O34      1.0000 0.68562  0.81983  0.73746  Biso   1.000  O
  N34      1.0000 0.59260  0.87663  0.76409  Biso   1.000  N
  C177     1.0000 0.68290  0.97332  0.70597  Biso   1.000  C
  H113     1.0000 0.71930  0.94460  0.70530  Biso   1.000  H
  C178     1.0000 0.67860  0.01461  0.67450  Biso   1.000  C
  H114     1.0000 0.71270  0.01320  0.65290  Biso   1.000  H
  C179     1.0000 0.50060  0.80814  0.76169  Biso   1.000  C
  C180     1.0000 0.63360  0.97411  0.73870  Biso   1.000  C
  C181     1.0000 0.51840  0.87030  0.77262  Biso   1.000  C
  C182     1.0000 0.63510  0.92960  0.77394  Biso   1.000  C
  H115     1.0000 0.68530  0.91830  0.77950  Biso   1.000  H
  H116     1.0000 0.61580  0.94780  0.79930  Biso   1.000  H
  C183     1.0000 0.56360  0.78031  0.74757  Biso   1.000  C
  C184     1.0000 0.58010  0.05743  0.70497  Biso   1.000  C
  H117     1.0000 0.54420  0.08650  0.70510  Biso   1.000  H
  C185     1.0000 0.58120  0.01750  0.73755  Biso   1.000  C
  H118     1.0000 0.54640  0.01980  0.75880  Biso   1.000  H
  C186     1.0000 0.43430  0.77818  0.76468  Biso   1.000  C
  H119     1.0000 0.39180  0.79630  0.77420  Biso   1.000  H
  C187     1.0000 0.62260  0.82518  0.74856  Biso   1.000  C
  S17      1.0000 0.88332  0.15310  0.63306  Biso   1.000  S
  N35      1.0000 0.62729  0.55694  0.17347  Biso   1.000  N
  O35      1.0000 0.47955  0.40909  0.28575  Biso   1.000  O
  O36      1.0000 0.68562  0.31983  0.23746  Biso   1.000  O
  N36      1.0000 0.59260  0.37663  0.26409  Biso   1.000  N
  C188     1.0000 0.68290  0.47332  0.20597  Biso   1.000  C
  H120     1.0000 0.71930  0.44460  0.20530  Biso   1.000  H
  C189     1.0000 0.67860  0.51461  0.17450  Biso   1.000  C
  H121     1.0000 0.71270  0.51320  0.15290  Biso   1.000  H
  C190     1.0000 0.50060  0.30814  0.26169  Biso   1.000  C
  C191     1.0000 0.63360  0.47411  0.23870  Biso   1.000  C
  C192     1.0000 0.51840  0.37030  0.27262  Biso   1.000  C
  C193     1.0000 0.63510  0.42960  0.27394  Biso   1.000  C
  H122     1.0000 0.68530  0.41830  0.27950  Biso   1.000  H
  H123     1.0000 0.61580  0.44780  0.29930  Biso   1.000  H
  C194     1.0000 0.56360  0.28031  0.24757  Biso   1.000  C
  C195     1.0000 0.58010  0.55743  0.20497  Biso   1.000  C
  H124     1.0000 0.54420  0.58650  0.20510  Biso   1.000  H
  C196     1.0000 0.58120  0.51750  0.23755  Biso   1.000  C
  H125     1.0000 0.54640  0.51980  0.25880  Biso   1.000  H
  C197     1.0000 0.43430  0.27818  0.26468  Biso   1.000  C
  H126     1.0000 0.39180  0.29630  0.27420  Biso   1.000  H
  C198     1.0000 0.62260  0.32518  0.24856  Biso   1.000  C
  S18      1.0000 0.88332  0.65310  0.13306  Biso   1.000  S
  N37      1.0000 0.12729  0.05694  0.17347  Biso   1.000  N
  O37      1.0000 0.97955  0.90909  0.28575  Biso   1.000  O
  O38      1.0000 0.18562  0.81983  0.23746  Biso   1.000  O
  N38      1.0000 0.09260  0.87663  0.26409  Biso   1.000  N
  C199     1.0000 0.18290  0.97332  0.20597  Biso   1.000  C
  H127     1.0000 0.21930  0.94460  0.20530  Biso   1.000  H
  C200     1.0000 0.17860  0.01461  0.17450  Biso   1.000  C
  H128     1.0000 0.21270  0.01320  0.15290  Biso   1.000  H
  C201     1.0000 0.00060  0.80814  0.26169  Biso   1.000  C
  C202     1.0000 0.13360  0.97411  0.23870  Biso   1.000  C
  C203     1.0000 0.01840  0.87030  0.27262  Biso   1.000  C
  C204     1.0000 0.13510  0.92960  0.27394  Biso   1.000  C
  H129     1.0000 0.18530  0.91830  0.27950  Biso   1.000  H
  H130     1.0000 0.11580  0.94780  0.29930  Biso   1.000  H
  C205     1.0000 0.06360  0.78031  0.24757  Biso   1.000  C
  C206     1.0000 0.08010  0.05743  0.20497  Biso   1.000  C
  H131     1.0000 0.04420  0.08650  0.20510  Biso   1.000  H
  C207     1.0000 0.08120  0.01750  0.23755  Biso   1.000  C
  H132     1.0000 0.04640  0.01980  0.25880  Biso   1.000  H
  C208     1.0000 0.93430  0.77818  0.26468  Biso   1.000  C
  H133     1.0000 0.89180  0.79630  0.27420  Biso   1.000  H
  C209     1.0000 0.12260  0.82518  0.24856  Biso   1.000  C
  S19      1.0000 0.38332  0.15310  0.13306  Biso   1.000  S
  N39      1.0000 0.12729  0.55694  0.67347  Biso   1.000  N
  O39      1.0000 0.97955  0.40909  0.78575  Biso   1.000  O
  O40      1.0000 0.18562  0.31983  0.73746  Biso   1.000  O
  N40      1.0000 0.09260  0.37663  0.76409  Biso   1.000  N
  C210     1.0000 0.18290  0.47332  0.70597  Biso   1.000  C
  H134     1.0000 0.21930  0.44460  0.70530  Biso   1.000  H
  C211     1.0000 0.17860  0.51461  0.67450  Biso   1.000  C
  H135     1.0000 0.21270  0.51320  0.65290  Biso   1.000  H
  C212     1.0000 0.00060  0.30814  0.76169  Biso   1.000  C
  C213     1.0000 0.13360  0.47411  0.73870  Biso   1.000  C
  C214     1.0000 0.01840  0.37030  0.77262  Biso   1.000  C
  C215     1.0000 0.13510  0.42960  0.77394  Biso   1.000  C
  H136     1.0000 0.18530  0.41830  0.77950  Biso   1.000  H
  H137     1.0000 0.11580  0.44780  0.79930  Biso   1.000  H
  C216     1.0000 0.06360  0.28031  0.74757  Biso   1.000  C
  C217     1.0000 0.08010  0.55743  0.70497  Biso   1.000  C
  H138     1.0000 0.04420  0.58650  0.70510  Biso   1.000  H
  C218     1.0000 0.08120  0.51750  0.73755  Biso   1.000  C
  H139     1.0000 0.04640  0.51980  0.75880  Biso   1.000  H
  C219     1.0000 0.93430  0.27818  0.76468  Biso   1.000  C
  H140     1.0000 0.89180  0.29630  0.77420  Biso   1.000  H
  C220     1.0000 0.12260  0.32518  0.74856  Biso   1.000  C
  S20      1.0000 0.38332  0.65310  0.63306  Biso   1.000  S
  N41      1.0000 0.62271  0.19306  0.67347  Biso   1.000  N
  O41      1.0000 0.77045  0.34091  0.78575  Biso   1.000  O
  O42      1.0000 0.56438  0.43017  0.73746  Biso   1.000  O
  N42      1.0000 0.65740  0.37337  0.76409  Biso   1.000  N
  C221     1.0000 0.56710  0.27668  0.70597  Biso   1.000  C
  H141     1.0000 0.53070  0.30540  0.70530  Biso   1.000  H
  C222     1.0000 0.57140  0.23539  0.67450  Biso   1.000  C
  H142     1.0000 0.53730  0.23680  0.65290  Biso   1.000  H
  C223     1.0000 0.74940  0.44186  0.76169  Biso   1.000  C
  C224     1.0000 0.61640  0.27589  0.73870  Biso   1.000  C
  C225     1.0000 0.73160  0.37970  0.77262  Biso   1.000  C
  C226     1.0000 0.61490  0.32040  0.77394  Biso   1.000  C
  H143     1.0000 0.56470  0.33170  0.77950  Biso   1.000  H
  H144     1.0000 0.63420  0.30220  0.79930  Biso   1.000  H
  C227     1.0000 0.68640  0.46969  0.74757  Biso   1.000  C
  C228     1.0000 0.66990  0.19257  0.70497  Biso   1.000  C
  H145     1.0000 0.70580  0.16350  0.70510  Biso   1.000  H
  C229     1.0000 0.66880  0.23250  0.73755  Biso   1.000  C
  H146     1.0000 0.70360  0.23020  0.75880  Biso   1.000  H
  C230     1.0000 0.81570  0.47182  0.76468  Biso   1.000  C
  H147     1.0000 0.85820  0.45370  0.77420  Biso   1.000  H
  C231     1.0000 0.62740  0.42482  0.74856  Biso   1.000  C
  S21      1.0000 0.36668  0.09690  0.63306  Biso   1.000  S
  N43      1.0000 0.62271  0.69306  0.17347  Biso   1.000  N
  O43      1.0000 0.77045  0.84091  0.28575  Biso   1.000  O
  O44      1.0000 0.56438  0.93017  0.23746  Biso   1.000  O
  N44      1.0000 0.65740  0.87337  0.26409  Biso   1.000  N
  C232     1.0000 0.56710  0.77668  0.20597  Biso   1.000  C
  H148     1.0000 0.53070  0.80540  0.20530  Biso   1.000  H
  C233     1.0000 0.57140  0.73539  0.17450  Biso   1.000  C
  H149     1.0000 0.53730  0.73680  0.15290  Biso   1.000  H
  C234     1.0000 0.74940  0.94186  0.26169  Biso   1.000  C
  C235     1.0000 0.61640  0.77589  0.23870  Biso   1.000  C
  C236     1.0000 0.73160  0.87970  0.27262  Biso   1.000  C
  C237     1.0000 0.61490  0.82040  0.27394  Biso   1.000  C
  H150     1.0000 0.56470  0.83170  0.27950  Biso   1.000  H
  H151     1.0000 0.63420  0.80220  0.29930  Biso   1.000  H
  C238     1.0000 0.68640  0.96969  0.24757  Biso   1.000  C
  C239     1.0000 0.66990  0.69257  0.20497  Biso   1.000  C
  H152     1.0000 0.70580  0.66350  0.20510  Biso   1.000  H
  C240     1.0000 0.66880  0.73250  0.23755  Biso   1.000  C
  H153     1.0000 0.70360  0.73020  0.25880  Biso   1.000  H
  C241     1.0000 0.81570  0.97182  0.26468  Biso   1.000  C
  H154     1.0000 0.85820  0.95370  0.27420  Biso   1.000  H
  C242     1.0000 0.62740  0.92482  0.24856  Biso   1.000  C
  S22      1.0000 0.36668  0.59690  0.13306  Biso   1.000  S
  N45      1.0000 0.12271  0.19306  0.17347  Biso   1.000  N
  O45      1.0000 0.27045  0.34091  0.28575  Biso   1.000  O
  O46      1.0000 0.06438  0.43017  0.23746  Biso   1.000  O
  N46      1.0000 0.15740  0.37337  0.26409  Biso   1.000  N
  C243     1.0000 0.06710  0.27668  0.20597  Biso   1.000  C
  H155     1.0000 0.03070  0.30540  0.20530  Biso   1.000  H
  C244     1.0000 0.07140  0.23539  0.17450  Biso   1.000  C
  H156     1.0000 0.03730  0.23680  0.15290  Biso   1.000  H
  C245     1.0000 0.24940  0.44186  0.26169  Biso   1.000  C
  C246     1.0000 0.11640  0.27589  0.23870  Biso   1.000  C
  C247     1.0000 0.23160  0.37970  0.27262  Biso   1.000  C
  C248     1.0000 0.11490  0.32040  0.27394  Biso   1.000  C
  H157     1.0000 0.06470  0.33170  0.27950  Biso   1.000  H
  H158     1.0000 0.13420  0.30220  0.29930  Biso   1.000  H
  C249     1.0000 0.18640  0.46969  0.24757  Biso   1.000  C
  C250     1.0000 0.16990  0.19257  0.20497  Biso   1.000  C
  H159     1.0000 0.20580  0.16350  0.20510  Biso   1.000  H
  C251     1.0000 0.16880  0.23250  0.23755  Biso   1.000  C
  H160     1.0000 0.20360  0.23020  0.25880  Biso   1.000  H
  C252     1.0000 0.31570  0.47182  0.26468  Biso   1.000  C
  H161     1.0000 0.35820  0.45370  0.27420  Biso   1.000  H
  C253     1.0000 0.12740  0.42482  0.24856  Biso   1.000  C
  S23      1.0000 0.86668  0.09690  0.13306  Biso   1.000  S
  N47      1.0000 0.12271  0.69306  0.67347  Biso   1.000  N
  O47      1.0000 0.27045  0.84091  0.78575  Biso   1.000  O
  O48      1.0000 0.06438  0.93017  0.73746  Biso   1.000  O
  N48      1.0000 0.15740  0.87337  0.76409  Biso   1.000  N
  C254     1.0000 0.06710  0.77668  0.70597  Biso   1.000  C
  H162     1.0000 0.03070  0.80540  0.70530  Biso   1.000  H
  C255     1.0000 0.07140  0.73539  0.67450  Biso   1.000  C
  H163     1.0000 0.03730  0.73680  0.65290  Biso   1.000  H
  C256     1.0000 0.24940  0.94186  0.76169  Biso   1.000  C
  C257     1.0000 0.11640  0.77589  0.73870  Biso   1.000  C
  C258     1.0000 0.23160  0.87970  0.77262  Biso   1.000  C
  C259     1.0000 0.11490  0.82040  0.77394  Biso   1.000  C
  H164     1.0000 0.06470  0.83170  0.77950  Biso   1.000  H
  H165     1.0000 0.13420  0.80220  0.79930  Biso   1.000  H
  C260     1.0000 0.18640  0.96969  0.74757  Biso   1.000  C
  C261     1.0000 0.16990  0.69257  0.70497  Biso   1.000  C
  H166     1.0000 0.20580  0.66350  0.70510  Biso   1.000  H
  C262     1.0000 0.16880  0.73250  0.73755  Biso   1.000  C
  H167     1.0000 0.20360  0.73020  0.75880  Biso   1.000  H
  C263     1.0000 0.31570  0.97182  0.76468  Biso   1.000  C
  H168     1.0000 0.35820  0.95370  0.77420  Biso   1.000  H
  C264     1.0000 0.12740  0.92482  0.74856  Biso   1.000  C
  S24      1.0000 0.86668  0.59690  0.63306  Biso   1.000  S
  N49      1.0000 0.62271  0.05694  0.57653  Biso   1.000  N
  O49      1.0000 0.77045  0.90909  0.46425  Biso   1.000  O
  O50      1.0000 0.56438  0.81983  0.51254  Biso   1.000  O
  N50      1.0000 0.65740  0.87663  0.48591  Biso   1.000  N
  C265     1.0000 0.56710  0.97332  0.54403  Biso   1.000  C
  H169     1.0000 0.53070  0.94460  0.54470  Biso   1.000  H
  C266     1.0000 0.57140  0.01461  0.57550  Biso   1.000  C
  H170     1.0000 0.53730  0.01320  0.59710  Biso   1.000  H
  C267     1.0000 0.74940  0.80814  0.48831  Biso   1.000  C
  C268     1.0000 0.61640  0.97411  0.51130  Biso   1.000  C
  C269     1.0000 0.73160  0.87030  0.47738  Biso   1.000  C
  C270     1.0000 0.61490  0.92960  0.47606  Biso   1.000  C
  H171     1.0000 0.56470  0.91830  0.47050  Biso   1.000  H
  H172     1.0000 0.63420  0.94780  0.45070  Biso   1.000  H
  C271     1.0000 0.68640  0.78031  0.50243  Biso   1.000  C
  C272     1.0000 0.66990  0.05743  0.54503  Biso   1.000  C
  H173     1.0000 0.70580  0.08650  0.54490  Biso   1.000  H
  C273     1.0000 0.66880  0.01750  0.51245  Biso   1.000  C
  H174     1.0000 0.70360  0.01980  0.49120  Biso   1.000  H
  C274     1.0000 0.81570  0.77818  0.48532  Biso   1.000  C
  H175     1.0000 0.85820  0.79630  0.47580  Biso   1.000  H
  C275     1.0000 0.62740  0.82518  0.50144  Biso   1.000  C
  S25      1.0000 0.36668  0.15310  0.61694  Biso   1.000  S
  N51      1.0000 0.62271  0.55694  0.07653  Biso   1.000  N
  O51      1.0000 0.77045  0.40909  0.96425  Biso   1.000  O
  O52      1.0000 0.56438  0.31983  0.01254  Biso   1.000  O
  N52      1.0000 0.65740  0.37663  0.98591  Biso   1.000  N
  C276     1.0000 0.56710  0.47332  0.04403  Biso   1.000  C
  H176     1.0000 0.53070  0.44460  0.04470  Biso   1.000  H
  C277     1.0000 0.57140  0.51461  0.07550  Biso   1.000  C
  H177     1.0000 0.53730  0.51320  0.09710  Biso   1.000  H
  C278     1.0000 0.74940  0.30814  0.98831  Biso   1.000  C
  C279     1.0000 0.61640  0.47411  0.01130  Biso   1.000  C
  C280     1.0000 0.73160  0.37030  0.97738  Biso   1.000  C
  C281     1.0000 0.61490  0.42960  0.97606  Biso   1.000  C
  H178     1.0000 0.56470  0.41830  0.97050  Biso   1.000  H
  H179     1.0000 0.63420  0.44780  0.95070  Biso   1.000  H
  C282     1.0000 0.68640  0.28031  0.00243  Biso   1.000  C
  C283     1.0000 0.66990  0.55743  0.04503  Biso   1.000  C
  H180     1.0000 0.70580  0.58650  0.04490  Biso   1.000  H
  C284     1.0000 0.66880  0.51750  0.01245  Biso   1.000  C
  H181     1.0000 0.70360  0.51980  0.99120  Biso   1.000  H
  C285     1.0000 0.81570  0.27818  0.98532  Biso   1.000  C
  H182     1.0000 0.85820  0.29630  0.97580  Biso   1.000  H
  C286     1.0000 0.62740  0.32518  0.00144  Biso   1.000  C
  S26      1.0000 0.36668  0.65310  0.11694  Biso   1.000  S
  N53      1.0000 0.12271  0.05694  0.07653  Biso   1.000  N
  O53      1.0000 0.27045  0.90909  0.96425  Biso   1.000  O
  O54      1.0000 0.06438  0.81983  0.01254  Biso   1.000  O
  N54      1.0000 0.15740  0.87663  0.98591  Biso   1.000  N
  C287     1.0000 0.06710  0.97332  0.04403  Biso   1.000  C
  H183     1.0000 0.03070  0.94460  0.04470  Biso   1.000  H
  C288     1.0000 0.07140  0.01461  0.07550  Biso   1.000  C
  H184     1.0000 0.03730  0.01320  0.09710  Biso   1.000  H
  C289     1.0000 0.24940  0.80814  0.98831  Biso   1.000  C
  C290     1.0000 0.11640  0.97411  0.01130  Biso   1.000  C
  C291     1.0000 0.23160  0.87030  0.97738  Biso   1.000  C
  C292     1.0000 0.11490  0.92960  0.97606  Biso   1.000  C
  H185     1.0000 0.06470  0.91830  0.97050  Biso   1.000  H
  H186     1.0000 0.13420  0.94780  0.95070  Biso   1.000  H
  C293     1.0000 0.18640  0.78031  0.00243  Biso   1.000  C
  C294     1.0000 0.16990  0.05743  0.04503  Biso   1.000  C
  H187     1.0000 0.20580  0.08650  0.04490  Biso   1.000  H
  C295     1.0000 0.16880  0.01750  0.01245  Biso   1.000  C
  H188     1.0000 0.20360  0.01980  0.99120  Biso   1.000  H
  C296     1.0000 0.31570  0.77818  0.98532  Biso   1.000  C
  H189     1.0000 0.35820  0.79630  0.97580  Biso   1.000  H
  C297     1.0000 0.12740  0.82518  0.00144  Biso   1.000  C
  S27      1.0000 0.86668  0.15310  0.11694  Biso   1.000  S
  N55      1.0000 0.12271  0.55694  0.57653  Biso   1.000  N
  O55      1.0000 0.27045  0.40909  0.46425  Biso   1.000  O
  O56      1.0000 0.06438  0.31983  0.51254  Biso   1.000  O
  N56      1.0000 0.15740  0.37663  0.48591  Biso   1.000  N
  C298     1.0000 0.06710  0.47332  0.54403  Biso   1.000  C
  H190     1.0000 0.03070  0.44460  0.54470  Biso   1.000  H
  C299     1.0000 0.07140  0.51461  0.57550  Biso   1.000  C
  H191     1.0000 0.03730  0.51320  0.59710  Biso   1.000  H
  C300     1.0000 0.24940  0.30814  0.48831  Biso   1.000  C
  C301     1.0000 0.11640  0.47411  0.51130  Biso   1.000  C
  C302     1.0000 0.23160  0.37030  0.47738  Biso   1.000  C
  C303     1.0000 0.11490  0.42960  0.47606  Biso   1.000  C
  H192     1.0000 0.06470  0.41830  0.47050  Biso   1.000  H
  H193     1.0000 0.13420  0.44780  0.45070  Biso   1.000  H
  C304     1.0000 0.18640  0.28031  0.50243  Biso   1.000  C
  C305     1.0000 0.16990  0.55743  0.54503  Biso   1.000  C
  H194     1.0000 0.20580  0.58650  0.54490  Biso   1.000  H
  C306     1.0000 0.16880  0.51750  0.51245  Biso   1.000  C
  H195     1.0000 0.20360  0.51980  0.49120  Biso   1.000  H
  C307     1.0000 0.31570  0.27818  0.48532  Biso   1.000  C
  H196     1.0000 0.35820  0.29630  0.47580  Biso   1.000  H
  C308     1.0000 0.12740  0.32518  0.50144  Biso   1.000  C
  S28      1.0000 0.86668  0.65310  0.61694  Biso   1.000  S
  N57      1.0000 0.62729  0.19306  0.57653  Biso   1.000  N
  O57      1.0000 0.47955  0.34091  0.46425  Biso   1.000  O
  O58      1.0000 0.68562  0.43017  0.51254  Biso   1.000  O
  N58      1.0000 0.59260  0.37337  0.48591  Biso   1.000  N
  C309     1.0000 0.68290  0.27668  0.54403  Biso   1.000  C
  H197     1.0000 0.71930  0.30540  0.54470  Biso   1.000  H
  C310     1.0000 0.67860  0.23539  0.57550  Biso   1.000  C
  H198     1.0000 0.71270  0.23680  0.59710  Biso   1.000  H
  C311     1.0000 0.50060  0.44186  0.48831  Biso   1.000  C
  C312     1.0000 0.63360  0.27589  0.51130  Biso   1.000  C
  C313     1.0000 0.51840  0.37970  0.47738  Biso   1.000  C
  C314     1.0000 0.63510  0.32040  0.47606  Biso   1.000  C
  H199     1.0000 0.68530  0.33170  0.47050  Biso   1.000  H
  H200     1.0000 0.61580  0.30220  0.45070  Biso   1.000  H
  C315     1.0000 0.56360  0.46969  0.50243  Biso   1.000  C
  C316     1.0000 0.58010  0.19257  0.54503  Biso   1.000  C
  H201     1.0000 0.54420  0.16350  0.54490  Biso   1.000  H
  C317     1.0000 0.58120  0.23250  0.51245  Biso   1.000  C
  H202     1.0000 0.54640  0.23020  0.49120  Biso   1.000  H
  C318     1.0000 0.43430  0.47182  0.48532  Biso   1.000  C
  H203     1.0000 0.39180  0.45370  0.47580  Biso   1.000  H
  C319     1.0000 0.62260  0.42482  0.50144  Biso   1.000  C
  S29      1.0000 0.88332  0.09690  0.61694  Biso   1.000  S
  N59      1.0000 0.62729  0.69306  0.07653  Biso   1.000  N
  O59      1.0000 0.47955  0.84091  0.96425  Biso   1.000  O
  O60      1.0000 0.68562  0.93017  0.01254  Biso   1.000  O
  N60      1.0000 0.59260  0.87337  0.98591  Biso   1.000  N
  C320     1.0000 0.68290  0.77668  0.04403  Biso   1.000  C
  H204     1.0000 0.71930  0.80540  0.04470  Biso   1.000  H
  C321     1.0000 0.67860  0.73539  0.07550  Biso   1.000  C
  H205     1.0000 0.71270  0.73680  0.09710  Biso   1.000  H
  C322     1.0000 0.50060  0.94186  0.98831  Biso   1.000  C
  C323     1.0000 0.63360  0.77589  0.01130  Biso   1.000  C
  C324     1.0000 0.51840  0.87970  0.97738  Biso   1.000  C
  C325     1.0000 0.63510  0.82040  0.97606  Biso   1.000  C
  H206     1.0000 0.68530  0.83170  0.97050  Biso   1.000  H
  H207     1.0000 0.61580  0.80220  0.95070  Biso   1.000  H
  C326     1.0000 0.56360  0.96969  0.00243  Biso   1.000  C
  C327     1.0000 0.58010  0.69257  0.04503  Biso   1.000  C
  H208     1.0000 0.54420  0.66350  0.04490  Biso   1.000  H
  C328     1.0000 0.58120  0.73250  0.01245  Biso   1.000  C
  H209     1.0000 0.54640  0.73020  0.99120  Biso   1.000  H
  C329     1.0000 0.43430  0.97182  0.98532  Biso   1.000  C
  H210     1.0000 0.39180  0.95370  0.97580  Biso   1.000  H
  C330     1.0000 0.62260  0.92482  0.00144  Biso   1.000  C
  S30      1.0000 0.88332  0.59690  0.11694  Biso   1.000  S
  N61      1.0000 0.12729  0.19306  0.07653  Biso   1.000  N
  O61      1.0000 0.97955  0.34091  0.96425  Biso   1.000  O
  O62      1.0000 0.18562  0.43017  0.01254  Biso   1.000  O
  N62      1.0000 0.09260  0.37337  0.98591  Biso   1.000  N
  C331     1.0000 0.18290  0.27668  0.04403  Biso   1.000  C
  H211     1.0000 0.21930  0.30540  0.04470  Biso   1.000  H
  C332     1.0000 0.17860  0.23539  0.07550  Biso   1.000  C
  H212     1.0000 0.21270  0.23680  0.09710  Biso   1.000  H
  C333     1.0000 0.00060  0.44186  0.98831  Biso   1.000  C
  C334     1.0000 0.13360  0.27589  0.01130  Biso   1.000  C
  C335     1.0000 0.01840  0.37970  0.97738  Biso   1.000  C
  C336     1.0000 0.13510  0.32040  0.97606  Biso   1.000  C
  H213     1.0000 0.18530  0.33170  0.97050  Biso   1.000  H
  H214     1.0000 0.11580  0.30220  0.95070  Biso   1.000  H
  C337     1.0000 0.06360  0.46969  0.00243  Biso   1.000  C
  C338     1.0000 0.08010  0.19257  0.04503  Biso   1.000  C
  H215     1.0000 0.04420  0.16350  0.04490  Biso   1.000  H
  C339     1.0000 0.08120  0.23250  0.01245  Biso   1.000  C
  H216     1.0000 0.04640  0.23020  0.99120  Biso   1.000  H
  C340     1.0000 0.93430  0.47182  0.98532  Biso   1.000  C
  H217     1.0000 0.89180  0.45370  0.97580  Biso   1.000  H
  C341     1.0000 0.12260  0.42482  0.00144  Biso   1.000  C
  S31      1.0000 0.38332  0.09690  0.11694  Biso   1.000  S
  N63      1.0000 0.12729  0.69306  0.57653  Biso   1.000  N
  O63      1.0000 0.97955  0.84091  0.46425  Biso   1.000  O
  O64      1.0000 0.18562  0.93017  0.51254  Biso   1.000  O
  N64      1.0000 0.09260  0.87337  0.48591  Biso   1.000  N
  C342     1.0000 0.18290  0.77668  0.54403  Biso   1.000  C
  H218     1.0000 0.21930  0.80540  0.54470  Biso   1.000  H
  C343     1.0000 0.17860  0.73539  0.57550  Biso   1.000  C
  H219     1.0000 0.21270  0.73680  0.59710  Biso   1.000  H
  C344     1.0000 0.00060  0.94186  0.48831  Biso   1.000  C
  C345     1.0000 0.13360  0.77589  0.51130  Biso   1.000  C
  C346     1.0000 0.01840  0.87970  0.47738  Biso   1.000  C
  C347     1.0000 0.13510  0.82040  0.47606  Biso   1.000  C
  H220     1.0000 0.18530  0.83170  0.47050  Biso   1.000  H
  H221     1.0000 0.11580  0.80220  0.45070  Biso   1.000  H
  C348     1.0000 0.06360  0.96969  0.50243  Biso   1.000  C
  C349     1.0000 0.08010  0.69257  0.54503  Biso   1.000  C
  H222     1.0000 0.04420  0.66350  0.54490  Biso   1.000  H
  C350     1.0000 0.08120  0.73250  0.51245  Biso   1.000  C
  H223     1.0000 0.04640  0.73020  0.49120  Biso   1.000  H
  C351     1.0000 0.93430  0.97182  0.48532  Biso   1.000  C
  H224     1.0000 0.89180  0.95370  0.47580  Biso   1.000  H
  C352     1.0000 0.12260  0.92482  0.50144  Biso   1.000  C
  S32      1.0000 0.38332  0.59690  0.61694  Biso   1.000  S
  Co1      1.0000 0.37500  0.87500  0.37500  Biso   1.000  Co
  Co2      1.0000 0.37500  0.37500  0.87500  Biso   1.000  Co
  Co3      1.0000 0.87500  0.87500  0.87500  Biso   1.000  Co
  Co4      1.0000 0.87500  0.37500  0.37500  Biso   1.000  Co
  Co5      1.0000 0.62500  0.12500  0.62500  Biso   1.000  Co
  Co6      1.0000 0.62500  0.62500  0.12500  Biso   1.000  Co
  Co7      1.0000 0.12500  0.12500  0.12500  Biso   1.000  Co
  Co8      1.0000 0.12500  0.62500  0.62500  Biso   1.000  Co
  N65      1.0000 0.26130  0.87500  0.37500  Biso   1.000  N
  C353     1.0000 0.20060  0.87500  0.37500  Biso   1.000  C
  N66      1.0000 0.26130  0.37500  0.87500  Biso   1.000  N
  C354     1.0000 0.20060  0.37500  0.87500  Biso   1.000  C
  N67      1.0000 0.76130  0.87500  0.87500  Biso   1.000  N
  C355     1.0000 0.70060  0.87500  0.87500  Biso   1.000  C
  N68      1.0000 0.76130  0.37500  0.37500  Biso   1.000  N
  C356     1.0000 0.70060  0.37500  0.37500  Biso   1.000  C
  N69      1.0000 0.48870  0.87500  0.37500  Biso   1.000  N
  C357     1.0000 0.54940  0.87500  0.37500  Biso   1.000  C
  N70      1.0000 0.48870  0.37500  0.87500  Biso   1.000  N
  C358     1.0000 0.54940  0.37500  0.87500  Biso   1.000  C
  N71      1.0000 0.98870  0.87500  0.87500  Biso   1.000  N
  C359     1.0000 0.04940  0.87500  0.87500  Biso   1.000  C
  N72      1.0000 0.98870  0.37500  0.37500  Biso   1.000  N
  C360     1.0000 0.04940  0.37500  0.37500  Biso   1.000  C
  N73      1.0000 0.73870  0.12500  0.62500  Biso   1.000  N
  C361     1.0000 0.79940  0.12500  0.62500  Biso   1.000  C
  N74      1.0000 0.73870  0.62500  0.12500  Biso   1.000  N
  C362     1.0000 0.79940  0.62500  0.12500  Biso   1.000  C
  N75      1.0000 0.23870  0.12500  0.12500  Biso   1.000  N
  C363     1.0000 0.29940  0.12500  0.12500  Biso   1.000  C
  N76      1.0000 0.23870  0.62500  0.62500  Biso   1.000  N
  C364     1.0000 0.29940  0.62500  0.62500  Biso   1.000  C
  N77      1.0000 0.51130  0.12500  0.62500  Biso   1.000  N
  C365     1.0000 0.45060  0.12500  0.62500  Biso   1.000  C
  N78      1.0000 0.51130  0.62500  0.12500  Biso   1.000  N
  C366     1.0000 0.45060  0.62500  0.12500  Biso   1.000  C
  N79      1.0000 0.01130  0.12500  0.12500  Biso   1.000  N
  C367     1.0000 0.95060  0.12500  0.12500  Biso   1.000  C
  N80      1.0000 0.01130  0.62500  0.62500  Biso   1.000  N
  C368     1.0000 0.95060  0.62500  0.62500  Biso   1.000  C
