data_image0
_cell_length_a       13.8325
_cell_length_b       40.435
_cell_length_c       60.962
_cell_angle_alpha    90
_cell_angle_beta     90
_cell_angle_gamma    90

_symmetry_space_group_name_H-M    "P 1"
_symmetry_int_tables_number       1

loop_
  _symmetry_equiv_pos_as_xyz
  'x, y, z'

loop_
  _atom_site_label
  _atom_site_occupancy
  _atom_site_fract_x
  _atom_site_fract_y
  _atom_site_fract_z
  _atom_site_thermal_displace_type
  _atom_site_B_iso_or_equiv
  _atom_site_type_symbol
  O1       1.0000 0.04400  0.53620  0.52760  Biso   1.000  O
  O2       1.0000 0.06650  0.54600  0.48430  Biso   1.000  O
  C1       1.0000 0.78860  0.70142  0.37632  Biso   1.000  C
  C2       1.0000 0.77620  0.71990  0.39533  Biso   1.000  C
  H1       1.0000 0.81070  0.71460  0.40790  Biso   1.000  H
  C3       1.0000 0.71200  0.74640  0.39551  Biso   1.000  C
  H2       1.0000 0.70370  0.75880  0.40820  Biso   1.000  H
  C4       1.0000 0.66040  0.75430  0.37670  Biso   1.000  C
  C5       1.0000 0.67280  0.73580  0.35767  Biso   1.000  C
  H3       1.0000 0.63830  0.74120  0.34510  Biso   1.000  H
  C6       1.0000 0.73700  0.70940  0.35749  Biso   1.000  C
  H4       1.0000 0.74530  0.69700  0.34480  Biso   1.000  H
  Cu1      1.0000 0.08789  0.50930  0.50401  Biso   1.000  Cu
  C7       1.0000 0.78170  0.56990  0.57602  Biso   1.000  C
  C8       1.0000 0.69470  0.55794  0.58418  Biso   1.000  C
  H5       1.0000 0.66880  0.53840  0.57870  Biso   1.000  H
  C9       1.0000 0.64640  0.57510  0.60061  Biso   1.000  C
  H6       1.0000 0.58820  0.56710  0.60610  Biso   1.000  H
  C10      1.0000 0.68520  0.60430  0.60888  Biso   1.000  C
  C11      1.0000 0.77220  0.61627  0.60071  Biso   1.000  C
  H7       1.0000 0.79820  0.63580  0.60620  Biso   1.000  H
  C12      1.0000 0.82050  0.59910  0.58428  Biso   1.000  C
  H8       1.0000 0.87880  0.60710  0.57880  Biso   1.000  H
  C13      1.0000 0.88370  0.65261  0.39461  Biso   1.000  C
  C14      1.0000 0.97110  0.63650  0.39816  Biso   1.000  C
  H9       1.0000 0.02400  0.64100  0.38930  Biso   1.000  H
  C15      1.0000 0.97930  0.61350  0.41502  Biso   1.000  C
  H10      1.0000 0.03770  0.60270  0.41740  Biso   1.000  H
  C16      1.0000 0.90020  0.60670  0.42834  Biso   1.000  C
  C17      1.0000 0.81280  0.62280  0.42479  Biso   1.000  C
  H11      1.0000 0.75990  0.61830  0.43370  Biso   1.000  H
  C18      1.0000 0.80460  0.64580  0.40793  Biso   1.000  C
  H12      1.0000 0.74620  0.65660  0.40560  Biso   1.000  H
  C19      1.0000 0.91230  0.55390  0.55160  Biso   1.000  C
  H13      1.0000 0.95420  0.56690  0.55980  Biso   1.000  H
  C20      1.0000 0.91040  0.58220  0.44640  Biso   1.000  C
  H14      1.0000 0.85350  0.57190  0.45080  Biso   1.000  H
  C21      1.0000 0.82280  0.55290  0.55710  Biso   1.000  C
  H15      1.0000 0.78110  0.54040  0.54840  Biso   1.000  H
  C22      1.0000 0.60200  0.78410  0.37740  Biso   1.000  C
  C23      1.0000 0.98970  0.57300  0.45710  Biso   1.000  C
  H16      1.0000 0.04700  0.58360  0.45340  Biso   1.000  H
  C24      1.0000 0.95490  0.53370  0.53120  Biso   1.000  C
  C25      1.0000 0.99500  0.54690  0.47480  Biso   1.000  C
  O3       1.0000 0.88320  0.51910  0.52094  Biso   1.000  O
  O4       1.0000 0.91250  0.53000  0.47612  Biso   1.000  O
  C26      1.0000 0.49400  0.82940  0.37200  Biso   1.000  C
  O5       1.0000 0.49160  0.84330  0.39130  Biso   1.000  O
  O6       1.0000 0.45600  0.83790  0.35720  Biso   1.000  O
  C27      1.0000 0.28600  0.87610  0.48070  Biso   1.000  C
  O7       1.0000 0.32690  0.87550  0.43050  Biso   1.000  O
  C28      1.0000 0.55100  0.79930  0.36650  Biso   1.000  C
  C29      1.0000 0.68200  0.44270  0.38960  Biso   1.000  C
  O8       1.0000 0.04400  0.03620  0.02760  Biso   1.000  O
  O9       1.0000 0.06650  0.04600  0.98430  Biso   1.000  O
  C30      1.0000 0.78860  0.20142  0.87632  Biso   1.000  C
  C31      1.0000 0.77620  0.21990  0.89533  Biso   1.000  C
  H17      1.0000 0.81070  0.21460  0.90790  Biso   1.000  H
  C32      1.0000 0.71200  0.24640  0.89551  Biso   1.000  C
  H18      1.0000 0.70370  0.25880  0.90820  Biso   1.000  H
  C33      1.0000 0.66040  0.25430  0.87670  Biso   1.000  C
  C34      1.0000 0.67280  0.23580  0.85767  Biso   1.000  C
  H19      1.0000 0.63830  0.24120  0.84510  Biso   1.000  H
  C35      1.0000 0.73700  0.20940  0.85749  Biso   1.000  C
  H20      1.0000 0.74530  0.19700  0.84480  Biso   1.000  H
  Cu2      1.0000 0.08789  0.00930  0.00401  Biso   1.000  Cu
  C36      1.0000 0.78170  0.06990  0.07602  Biso   1.000  C
  C37      1.0000 0.69470  0.05794  0.08418  Biso   1.000  C
  H21      1.0000 0.66880  0.03840  0.07870  Biso   1.000  H
  C38      1.0000 0.64640  0.07510  0.10061  Biso   1.000  C
  H22      1.0000 0.58820  0.06710  0.10610  Biso   1.000  H
  C39      1.0000 0.68520  0.10430  0.10888  Biso   1.000  C
  C40      1.0000 0.77220  0.11627  0.10071  Biso   1.000  C
  H23      1.0000 0.79820  0.13580  0.10620  Biso   1.000  H
  C41      1.0000 0.82050  0.09910  0.08428  Biso   1.000  C
  H24      1.0000 0.87880  0.10710  0.07880  Biso   1.000  H
  C42      1.0000 0.88370  0.15261  0.89461  Biso   1.000  C
  C43      1.0000 0.97110  0.13650  0.89816  Biso   1.000  C
  H25      1.0000 0.02400  0.14100  0.88930  Biso   1.000  H
  C44      1.0000 0.97930  0.11350  0.91502  Biso   1.000  C
  H26      1.0000 0.03770  0.10270  0.91740  Biso   1.000  H
  C45      1.0000 0.90020  0.10670  0.92834  Biso   1.000  C
  C46      1.0000 0.81280  0.12280  0.92479  Biso   1.000  C
  H27      1.0000 0.75990  0.11830  0.93370  Biso   1.000  H
  C47      1.0000 0.80460  0.14580  0.90793  Biso   1.000  C
  H28      1.0000 0.74620  0.15660  0.90560  Biso   1.000  H
  C48      1.0000 0.91230  0.05390  0.05160  Biso   1.000  C
  H29      1.0000 0.95420  0.06690  0.05980  Biso   1.000  H
  C49      1.0000 0.91040  0.08220  0.94640  Biso   1.000  C
  H30      1.0000 0.85350  0.07190  0.95080  Biso   1.000  H
  C50      1.0000 0.82280  0.05290  0.05710  Biso   1.000  C
  H31      1.0000 0.78110  0.04040  0.04840  Biso   1.000  H
  C51      1.0000 0.60200  0.28410  0.87740  Biso   1.000  C
  C52      1.0000 0.98970  0.07300  0.95710  Biso   1.000  C
  H32      1.0000 0.04700  0.08360  0.95340  Biso   1.000  H
  C53      1.0000 0.95490  0.03370  0.03120  Biso   1.000  C
  C54      1.0000 0.99500  0.04690  0.97480  Biso   1.000  C
  O10      1.0000 0.88320  0.01910  0.02094  Biso   1.000  O
  O11      1.0000 0.91250  0.03000  0.97612  Biso   1.000  O
  C55      1.0000 0.49400  0.32940  0.87200  Biso   1.000  C
  O12      1.0000 0.49160  0.34330  0.89130  Biso   1.000  O
  O13      1.0000 0.45600  0.33790  0.85720  Biso   1.000  O
  C56      1.0000 0.28600  0.37610  0.98070  Biso   1.000  C
  O14      1.0000 0.32690  0.37550  0.93050  Biso   1.000  O
  C57      1.0000 0.55100  0.29930  0.86650  Biso   1.000  C
  C58      1.0000 0.68200  0.94270  0.88960  Biso   1.000  C
  O15      1.0000 0.54400  0.53620  0.02760  Biso   1.000  O
  O16      1.0000 0.56650  0.54600  0.98430  Biso   1.000  O
  C59      1.0000 0.28860  0.70142  0.87632  Biso   1.000  C
  C60      1.0000 0.27620  0.71990  0.89533  Biso   1.000  C
  H33      1.0000 0.31070  0.71460  0.90790  Biso   1.000  H
  C61      1.0000 0.21200  0.74640  0.89551  Biso   1.000  C
  H34      1.0000 0.20370  0.75880  0.90820  Biso   1.000  H
  C62      1.0000 0.16040  0.75430  0.87670  Biso   1.000  C
  C63      1.0000 0.17280  0.73580  0.85767  Biso   1.000  C
  H35      1.0000 0.13830  0.74120  0.84510  Biso   1.000  H
  C64      1.0000 0.23700  0.70940  0.85749  Biso   1.000  C
  H36      1.0000 0.24530  0.69700  0.84480  Biso   1.000  H
  Cu3      1.0000 0.58789  0.50930  0.00401  Biso   1.000  Cu
  C65      1.0000 0.28170  0.56990  0.07602  Biso   1.000  C
  C66      1.0000 0.19470  0.55794  0.08418  Biso   1.000  C
  H37      1.0000 0.16880  0.53840  0.07870  Biso   1.000  H
  C67      1.0000 0.14640  0.57510  0.10061  Biso   1.000  C
  H38      1.0000 0.08820  0.56710  0.10610  Biso   1.000  H
  C68      1.0000 0.18520  0.60430  0.10888  Biso   1.000  C
  C69      1.0000 0.27220  0.61627  0.10071  Biso   1.000  C
  H39      1.0000 0.29820  0.63580  0.10620  Biso   1.000  H
  C70      1.0000 0.32050  0.59910  0.08428  Biso   1.000  C
  H40      1.0000 0.37880  0.60710  0.07880  Biso   1.000  H
  C71      1.0000 0.38370  0.65261  0.89461  Biso   1.000  C
  C72      1.0000 0.47110  0.63650  0.89816  Biso   1.000  C
  H41      1.0000 0.52400  0.64100  0.88930  Biso   1.000  H
  C73      1.0000 0.47930  0.61350  0.91502  Biso   1.000  C
  H42      1.0000 0.53770  0.60270  0.91740  Biso   1.000  H
  C74      1.0000 0.40020  0.60670  0.92834  Biso   1.000  C
  C75      1.0000 0.31280  0.62280  0.92479  Biso   1.000  C
  H43      1.0000 0.25990  0.61830  0.93370  Biso   1.000  H
  C76      1.0000 0.30460  0.64580  0.90793  Biso   1.000  C
  H44      1.0000 0.24620  0.65660  0.90560  Biso   1.000  H
  C77      1.0000 0.41230  0.55390  0.05160  Biso   1.000  C
  H45      1.0000 0.45420  0.56690  0.05980  Biso   1.000  H
  C78      1.0000 0.41040  0.58220  0.94640  Biso   1.000  C
  H46      1.0000 0.35350  0.57190  0.95080  Biso   1.000  H
  C79      1.0000 0.32280  0.55290  0.05710  Biso   1.000  C
  H47      1.0000 0.28110  0.54040  0.04840  Biso   1.000  H
  C80      1.0000 0.10200  0.78410  0.87740  Biso   1.000  C
  C81      1.0000 0.48970  0.57300  0.95710  Biso   1.000  C
  H48      1.0000 0.54700  0.58360  0.95340  Biso   1.000  H
  C82      1.0000 0.45490  0.53370  0.03120  Biso   1.000  C
  C83      1.0000 0.49500  0.54690  0.97480  Biso   1.000  C
  O17      1.0000 0.38320  0.51910  0.02094  Biso   1.000  O
  O18      1.0000 0.41250  0.53000  0.97612  Biso   1.000  O
  C84      1.0000 0.99400  0.82940  0.87200  Biso   1.000  C
  O19      1.0000 0.99160  0.84330  0.89130  Biso   1.000  O
  O20      1.0000 0.95600  0.83790  0.85720  Biso   1.000  O
  C85      1.0000 0.78600  0.87610  0.98070  Biso   1.000  C
  O21      1.0000 0.82690  0.87550  0.93050  Biso   1.000  O
  C86      1.0000 0.05100  0.79930  0.86650  Biso   1.000  C
  C87      1.0000 0.18200  0.44270  0.88960  Biso   1.000  C
  O22      1.0000 0.54400  0.03620  0.52760  Biso   1.000  O
  O23      1.0000 0.56650  0.04600  0.48430  Biso   1.000  O
  C88      1.0000 0.28860  0.20142  0.37632  Biso   1.000  C
  C89      1.0000 0.27620  0.21990  0.39533  Biso   1.000  C
  H49      1.0000 0.31070  0.21460  0.40790  Biso   1.000  H
  C90      1.0000 0.21200  0.24640  0.39551  Biso   1.000  C
  H50      1.0000 0.20370  0.25880  0.40820  Biso   1.000  H
  C91      1.0000 0.16040  0.25430  0.37670  Biso   1.000  C
  C92      1.0000 0.17280  0.23580  0.35767  Biso   1.000  C
  H51      1.0000 0.13830  0.24120  0.34510  Biso   1.000  H
  C93      1.0000 0.23700  0.20940  0.35749  Biso   1.000  C
  H52      1.0000 0.24530  0.19700  0.34480  Biso   1.000  H
  Cu4      1.0000 0.58789  0.00930  0.50401  Biso   1.000  Cu
  C94      1.0000 0.28170  0.06990  0.57602  Biso   1.000  C
  C95      1.0000 0.19470  0.05794  0.58418  Biso   1.000  C
  H53      1.0000 0.16880  0.03840  0.57870  Biso   1.000  H
  C96      1.0000 0.14640  0.07510  0.60061  Biso   1.000  C
  H54      1.0000 0.08820  0.06710  0.60610  Biso   1.000  H
  C97      1.0000 0.18520  0.10430  0.60888  Biso   1.000  C
  C98      1.0000 0.27220  0.11627  0.60071  Biso   1.000  C
  H55      1.0000 0.29820  0.13580  0.60620  Biso   1.000  H
  C99      1.0000 0.32050  0.09910  0.58428  Biso   1.000  C
  H56      1.0000 0.37880  0.10710  0.57880  Biso   1.000  H
  C100     1.0000 0.38370  0.15261  0.39461  Biso   1.000  C
  C101     1.0000 0.47110  0.13650  0.39816  Biso   1.000  C
  H57      1.0000 0.52400  0.14100  0.38930  Biso   1.000  H
  C102     1.0000 0.47930  0.11350  0.41502  Biso   1.000  C
  H58      1.0000 0.53770  0.10270  0.41740  Biso   1.000  H
  C103     1.0000 0.40020  0.10670  0.42834  Biso   1.000  C
  C104     1.0000 0.31280  0.12280  0.42479  Biso   1.000  C
  H59      1.0000 0.25990  0.11830  0.43370  Biso   1.000  H
  C105     1.0000 0.30460  0.14580  0.40793  Biso   1.000  C
  H60      1.0000 0.24620  0.15660  0.40560  Biso   1.000  H
  C106     1.0000 0.41230  0.05390  0.55160  Biso   1.000  C
  H61      1.0000 0.45420  0.06690  0.55980  Biso   1.000  H
  C107     1.0000 0.41040  0.08220  0.44640  Biso   1.000  C
  H62      1.0000 0.35350  0.07190  0.45080  Biso   1.000  H
  C108     1.0000 0.32280  0.05290  0.55710  Biso   1.000  C
  H63      1.0000 0.28110  0.04040  0.54840  Biso   1.000  H
  C109     1.0000 0.10200  0.28410  0.37740  Biso   1.000  C
  C110     1.0000 0.48970  0.07300  0.45710  Biso   1.000  C
  H64      1.0000 0.54700  0.08360  0.45340  Biso   1.000  H
  C111     1.0000 0.45490  0.03370  0.53120  Biso   1.000  C
  C112     1.0000 0.49500  0.04690  0.47480  Biso   1.000  C
  O24      1.0000 0.38320  0.01910  0.52094  Biso   1.000  O
  O25      1.0000 0.41250  0.03000  0.47612  Biso   1.000  O
  C113     1.0000 0.99400  0.32940  0.37200  Biso   1.000  C
  O26      1.0000 0.99160  0.34330  0.39130  Biso   1.000  O
  O27      1.0000 0.95600  0.33790  0.35720  Biso   1.000  O
  C114     1.0000 0.78600  0.37610  0.48070  Biso   1.000  C
  O28      1.0000 0.82690  0.37550  0.43050  Biso   1.000  O
  C115     1.0000 0.05100  0.29930  0.36650  Biso   1.000  C
  C116     1.0000 0.18200  0.94270  0.38960  Biso   1.000  C
  O29      1.0000 0.70600  0.21380  0.52760  Biso   1.000  O
  O30      1.0000 0.68350  0.20400  0.48430  Biso   1.000  O
  C117     1.0000 0.96140  0.04858  0.37632  Biso   1.000  C
  C118     1.0000 0.97380  0.03010  0.39533  Biso   1.000  C
  H65      1.0000 0.93930  0.03540  0.40790  Biso   1.000  H
  C119     1.0000 0.03800  0.00360  0.39551  Biso   1.000  C
  H66      1.0000 0.04630  0.99120  0.40820  Biso   1.000  H
  C120     1.0000 0.08960  0.99570  0.37670  Biso   1.000  C
  C121     1.0000 0.07720  0.01420  0.35767  Biso   1.000  C
  H67      1.0000 0.11170  0.00880  0.34510  Biso   1.000  H
  C122     1.0000 0.01300  0.04060  0.35749  Biso   1.000  C
  H68      1.0000 0.00470  0.05300  0.34480  Biso   1.000  H
  Cu5      1.0000 0.66211  0.24070  0.50401  Biso   1.000  Cu
  C123     1.0000 0.96830  0.18010  0.57602  Biso   1.000  C
  C124     1.0000 0.05530  0.19206  0.58418  Biso   1.000  C
  H69      1.0000 0.08120  0.21160  0.57870  Biso   1.000  H
  C125     1.0000 0.10360  0.17490  0.60061  Biso   1.000  C
  H70      1.0000 0.16180  0.18290  0.60610  Biso   1.000  H
  C126     1.0000 0.06480  0.14570  0.60888  Biso   1.000  C
  C127     1.0000 0.97780  0.13373  0.60071  Biso   1.000  C
  H71      1.0000 0.95180  0.11420  0.60620  Biso   1.000  H
  C128     1.0000 0.92950  0.15090  0.58428  Biso   1.000  C
  H72      1.0000 0.87120  0.14290  0.57880  Biso   1.000  H
  C129     1.0000 0.86630  0.09739  0.39461  Biso   1.000  C
  C130     1.0000 0.77890  0.11350  0.39816  Biso   1.000  C
  H73      1.0000 0.72600  0.10900  0.38930  Biso   1.000  H
  C131     1.0000 0.77070  0.13650  0.41502  Biso   1.000  C
  H74      1.0000 0.71230  0.14730  0.41740  Biso   1.000  H
  C132     1.0000 0.84980  0.14330  0.42834  Biso   1.000  C
  C133     1.0000 0.93720  0.12720  0.42479  Biso   1.000  C
  H75      1.0000 0.99010  0.13170  0.43370  Biso   1.000  H
  C134     1.0000 0.94540  0.10420  0.40793  Biso   1.000  C
  H76      1.0000 0.00380  0.09340  0.40560  Biso   1.000  H
  C135     1.0000 0.83770  0.19610  0.55160  Biso   1.000  C
  H77      1.0000 0.79580  0.18310  0.55980  Biso   1.000  H
  C136     1.0000 0.83960  0.16780  0.44640  Biso   1.000  C
  H78      1.0000 0.89650  0.17810  0.45080  Biso   1.000  H
  C137     1.0000 0.92720  0.19710  0.55710  Biso   1.000  C
  H79      1.0000 0.96890  0.20960  0.54840  Biso   1.000  H
  C138     1.0000 0.14800  0.96590  0.37740  Biso   1.000  C
  C139     1.0000 0.76030  0.17700  0.45710  Biso   1.000  C
  H80      1.0000 0.70300  0.16640  0.45340  Biso   1.000  H
  C140     1.0000 0.79510  0.21630  0.53120  Biso   1.000  C
  C141     1.0000 0.75500  0.20310  0.47480  Biso   1.000  C
  O31      1.0000 0.86680  0.23090  0.52094  Biso   1.000  O
  O32      1.0000 0.83750  0.22000  0.47612  Biso   1.000  O
  C142     1.0000 0.25600  0.92060  0.37200  Biso   1.000  C
  O33      1.0000 0.25840  0.90670  0.39130  Biso   1.000  O
  O34      1.0000 0.29400  0.91210  0.35720  Biso   1.000  O
  C143     1.0000 0.46400  0.87390  0.48070  Biso   1.000  C
  O35      1.0000 0.42310  0.87450  0.43050  Biso   1.000  O
  C144     1.0000 0.19900  0.95070  0.36650  Biso   1.000  C
  C145     1.0000 0.06800  0.30730  0.38960  Biso   1.000  C
  O36      1.0000 0.70600  0.71380  0.02760  Biso   1.000  O
  O37      1.0000 0.68350  0.70400  0.98430  Biso   1.000  O
  C146     1.0000 0.96140  0.54858  0.87632  Biso   1.000  C
  C147     1.0000 0.97380  0.53010  0.89533  Biso   1.000  C
  H81      1.0000 0.93930  0.53540  0.90790  Biso   1.000  H
  C148     1.0000 0.03800  0.50360  0.89551  Biso   1.000  C
  H82      1.0000 0.04630  0.49120  0.90820  Biso   1.000  H
  C149     1.0000 0.08960  0.49570  0.87670  Biso   1.000  C
  C150     1.0000 0.07720  0.51420  0.85767  Biso   1.000  C
  H83      1.0000 0.11170  0.50880  0.84510  Biso   1.000  H
  C151     1.0000 0.01300  0.54060  0.85749  Biso   1.000  C
  H84      1.0000 0.00470  0.55300  0.84480  Biso   1.000  H
  Cu6      1.0000 0.66211  0.74070  0.00401  Biso   1.000  Cu
  C152     1.0000 0.96830  0.68010  0.07602  Biso   1.000  C
  C153     1.0000 0.05530  0.69206  0.08418  Biso   1.000  C
  H85      1.0000 0.08120  0.71160  0.07870  Biso   1.000  H
  C154     1.0000 0.10360  0.67490  0.10061  Biso   1.000  C
  H86      1.0000 0.16180  0.68290  0.10610  Biso   1.000  H
  C155     1.0000 0.06480  0.64570  0.10888  Biso   1.000  C
  C156     1.0000 0.97780  0.63373  0.10071  Biso   1.000  C
  H87      1.0000 0.95180  0.61420  0.10620  Biso   1.000  H
  C157     1.0000 0.92950  0.65090  0.08428  Biso   1.000  C
  H88      1.0000 0.87120  0.64290  0.07880  Biso   1.000  H
  C158     1.0000 0.86630  0.59739  0.89461  Biso   1.000  C
  C159     1.0000 0.77890  0.61350  0.89816  Biso   1.000  C
  H89      1.0000 0.72600  0.60900  0.88930  Biso   1.000  H
  C160     1.0000 0.77070  0.63650  0.91502  Biso   1.000  C
  H90      1.0000 0.71230  0.64730  0.91740  Biso   1.000  H
  C161     1.0000 0.84980  0.64330  0.92834  Biso   1.000  C
  C162     1.0000 0.93720  0.62720  0.92479  Biso   1.000  C
  H91      1.0000 0.99010  0.63170  0.93370  Biso   1.000  H
  C163     1.0000 0.94540  0.60420  0.90793  Biso   1.000  C
  H92      1.0000 0.00380  0.59340  0.90560  Biso   1.000  H
  C164     1.0000 0.83770  0.69610  0.05160  Biso   1.000  C
  H93      1.0000 0.79580  0.68310  0.05980  Biso   1.000  H
  C165     1.0000 0.83960  0.66780  0.94640  Biso   1.000  C
  H94      1.0000 0.89650  0.67810  0.95080  Biso   1.000  H
  C166     1.0000 0.92720  0.69710  0.05710  Biso   1.000  C
  H95      1.0000 0.96890  0.70960  0.04840  Biso   1.000  H
  C167     1.0000 0.14800  0.46590  0.87740  Biso   1.000  C
  C168     1.0000 0.76030  0.67700  0.95710  Biso   1.000  C
  H96      1.0000 0.70300  0.66640  0.95340  Biso   1.000  H
  C169     1.0000 0.79510  0.71630  0.03120  Biso   1.000  C
  C170     1.0000 0.75500  0.70310  0.97480  Biso   1.000  C
  O38      1.0000 0.86680  0.73090  0.02094  Biso   1.000  O
  O39      1.0000 0.83750  0.72000  0.97612  Biso   1.000  O
  C171     1.0000 0.25600  0.42060  0.87200  Biso   1.000  C
  O40      1.0000 0.25840  0.40670  0.89130  Biso   1.000  O
  O41      1.0000 0.29400  0.41210  0.85720  Biso   1.000  O
  C172     1.0000 0.46400  0.37390  0.98070  Biso   1.000  C
  O42      1.0000 0.42310  0.37450  0.93050  Biso   1.000  O
  C173     1.0000 0.19900  0.45070  0.86650  Biso   1.000  C
  C174     1.0000 0.06800  0.80730  0.88960  Biso   1.000  C
  O43      1.0000 0.20600  0.21380  0.02760  Biso   1.000  O
  O44      1.0000 0.18350  0.20400  0.98430  Biso   1.000  O
  C175     1.0000 0.46140  0.04858  0.87632  Biso   1.000  C
  C176     1.0000 0.47380  0.03010  0.89533  Biso   1.000  C
  H97      1.0000 0.43930  0.03540  0.90790  Biso   1.000  H
  C177     1.0000 0.53800  0.00360  0.89551  Biso   1.000  C
  H98      1.0000 0.54630  0.99120  0.90820  Biso   1.000  H
  C178     1.0000 0.58960  0.99570  0.87670  Biso   1.000  C
  C179     1.0000 0.57720  0.01420  0.85767  Biso   1.000  C
  H99      1.0000 0.61170  0.00880  0.84510  Biso   1.000  H
  C180     1.0000 0.51300  0.04060  0.85749  Biso   1.000  C
  H100     1.0000 0.50470  0.05300  0.84480  Biso   1.000  H
  Cu7      1.0000 0.16211  0.24070  0.00401  Biso   1.000  Cu
  C181     1.0000 0.46830  0.18010  0.07602  Biso   1.000  C
  C182     1.0000 0.55530  0.19206  0.08418  Biso   1.000  C
  H101     1.0000 0.58120  0.21160  0.07870  Biso   1.000  H
  C183     1.0000 0.60360  0.17490  0.10061  Biso   1.000  C
  H102     1.0000 0.66180  0.18290  0.10610  Biso   1.000  H
  C184     1.0000 0.56480  0.14570  0.10888  Biso   1.000  C
  C185     1.0000 0.47780  0.13373  0.10071  Biso   1.000  C
  H103     1.0000 0.45180  0.11420  0.10620  Biso   1.000  H
  C186     1.0000 0.42950  0.15090  0.08428  Biso   1.000  C
  H104     1.0000 0.37120  0.14290  0.07880  Biso   1.000  H
  C187     1.0000 0.36630  0.09739  0.89461  Biso   1.000  C
  C188     1.0000 0.27890  0.11350  0.89816  Biso   1.000  C
  H105     1.0000 0.22600  0.10900  0.88930  Biso   1.000  H
  C189     1.0000 0.27070  0.13650  0.91502  Biso   1.000  C
  H106     1.0000 0.21230  0.14730  0.91740  Biso   1.000  H
  C190     1.0000 0.34980  0.14330  0.92834  Biso   1.000  C
  C191     1.0000 0.43720  0.12720  0.92479  Biso   1.000  C
  H107     1.0000 0.49010  0.13170  0.93370  Biso   1.000  H
  C192     1.0000 0.44540  0.10420  0.90793  Biso   1.000  C
  H108     1.0000 0.50380  0.09340  0.90560  Biso   1.000  H
  C193     1.0000 0.33770  0.19610  0.05160  Biso   1.000  C
  H109     1.0000 0.29580  0.18310  0.05980  Biso   1.000  H
  C194     1.0000 0.33960  0.16780  0.94640  Biso   1.000  C
  H110     1.0000 0.39650  0.17810  0.95080  Biso   1.000  H
  C195     1.0000 0.42720  0.19710  0.05710  Biso   1.000  C
  H111     1.0000 0.46890  0.20960  0.04840  Biso   1.000  H
  C196     1.0000 0.64800  0.96590  0.87740  Biso   1.000  C
  C197     1.0000 0.26030  0.17700  0.95710  Biso   1.000  C
  H112     1.0000 0.20300  0.16640  0.95340  Biso   1.000  H
  C198     1.0000 0.29510  0.21630  0.03120  Biso   1.000  C
  C199     1.0000 0.25500  0.20310  0.97480  Biso   1.000  C
  O45      1.0000 0.36680  0.23090  0.02094  Biso   1.000  O
  O46      1.0000 0.33750  0.22000  0.97612  Biso   1.000  O
  C200     1.0000 0.75600  0.92060  0.87200  Biso   1.000  C
  O47      1.0000 0.75840  0.90670  0.89130  Biso   1.000  O
  O48      1.0000 0.79400  0.91210  0.85720  Biso   1.000  O
  C201     1.0000 0.96400  0.87390  0.98070  Biso   1.000  C
  O49      1.0000 0.92310  0.87450  0.93050  Biso   1.000  O
  C202     1.0000 0.69900  0.95070  0.86650  Biso   1.000  C
  C203     1.0000 0.56800  0.30730  0.88960  Biso   1.000  C
  O50      1.0000 0.20600  0.71380  0.52760  Biso   1.000  O
  O51      1.0000 0.18350  0.70400  0.48430  Biso   1.000  O
  C204     1.0000 0.46140  0.54858  0.37632  Biso   1.000  C
  C205     1.0000 0.47380  0.53010  0.39533  Biso   1.000  C
  H113     1.0000 0.43930  0.53540  0.40790  Biso   1.000  H
  C206     1.0000 0.53800  0.50360  0.39551  Biso   1.000  C
  H114     1.0000 0.54630  0.49120  0.40820  Biso   1.000  H
  C207     1.0000 0.58960  0.49570  0.37670  Biso   1.000  C
  C208     1.0000 0.57720  0.51420  0.35767  Biso   1.000  C
  H115     1.0000 0.61170  0.50880  0.34510  Biso   1.000  H
  C209     1.0000 0.51300  0.54060  0.35749  Biso   1.000  C
  H116     1.0000 0.50470  0.55300  0.34480  Biso   1.000  H
  Cu8      1.0000 0.16211  0.74070  0.50401  Biso   1.000  Cu
  C210     1.0000 0.46830  0.68010  0.57602  Biso   1.000  C
  C211     1.0000 0.55530  0.69206  0.58418  Biso   1.000  C
  H117     1.0000 0.58120  0.71160  0.57870  Biso   1.000  H
  C212     1.0000 0.60360  0.67490  0.60061  Biso   1.000  C
  H118     1.0000 0.66180  0.68290  0.60610  Biso   1.000  H
  C213     1.0000 0.56480  0.64570  0.60888  Biso   1.000  C
  C214     1.0000 0.47780  0.63373  0.60071  Biso   1.000  C
  H119     1.0000 0.45180  0.61420  0.60620  Biso   1.000  H
  C215     1.0000 0.42950  0.65090  0.58428  Biso   1.000  C
  H120     1.0000 0.37120  0.64290  0.57880  Biso   1.000  H
  C216     1.0000 0.36630  0.59739  0.39461  Biso   1.000  C
  C217     1.0000 0.27890  0.61350  0.39816  Biso   1.000  C
  H121     1.0000 0.22600  0.60900  0.38930  Biso   1.000  H
  C218     1.0000 0.27070  0.63650  0.41502  Biso   1.000  C
  H122     1.0000 0.21230  0.64730  0.41740  Biso   1.000  H
  C219     1.0000 0.34980  0.64330  0.42834  Biso   1.000  C
  C220     1.0000 0.43720  0.62720  0.42479  Biso   1.000  C
  H123     1.0000 0.49010  0.63170  0.43370  Biso   1.000  H
  C221     1.0000 0.44540  0.60420  0.40793  Biso   1.000  C
  H124     1.0000 0.50380  0.59340  0.40560  Biso   1.000  H
  C222     1.0000 0.33770  0.69610  0.55160  Biso   1.000  C
  H125     1.0000 0.29580  0.68310  0.55980  Biso   1.000  H
  C223     1.0000 0.33960  0.66780  0.44640  Biso   1.000  C
  H126     1.0000 0.39650  0.67810  0.45080  Biso   1.000  H
  C224     1.0000 0.42720  0.69710  0.55710  Biso   1.000  C
  H127     1.0000 0.46890  0.70960  0.54840  Biso   1.000  H
  C225     1.0000 0.64800  0.46590  0.37740  Biso   1.000  C
  C226     1.0000 0.26030  0.67700  0.45710  Biso   1.000  C
  H128     1.0000 0.20300  0.66640  0.45340  Biso   1.000  H
  C227     1.0000 0.29510  0.71630  0.53120  Biso   1.000  C
  C228     1.0000 0.25500  0.70310  0.47480  Biso   1.000  C
  O52      1.0000 0.36680  0.73090  0.52094  Biso   1.000  O
  O53      1.0000 0.33750  0.72000  0.47612  Biso   1.000  O
  C229     1.0000 0.75600  0.42060  0.37200  Biso   1.000  C
  O54      1.0000 0.75840  0.40670  0.39130  Biso   1.000  O
  O55      1.0000 0.79400  0.41210  0.35720  Biso   1.000  O
  C230     1.0000 0.96400  0.37390  0.48070  Biso   1.000  C
  O56      1.0000 0.92310  0.37450  0.43050  Biso   1.000  O
  C231     1.0000 0.69900  0.45070  0.36650  Biso   1.000  C
  C232     1.0000 0.56800  0.80730  0.38960  Biso   1.000  C
  O57      1.0000 0.70600  0.53620  0.22240  Biso   1.000  O
  O58      1.0000 0.68350  0.54600  0.26570  Biso   1.000  O
  C233     1.0000 0.96140  0.70142  0.37368  Biso   1.000  C
  C234     1.0000 0.97380  0.71990  0.35467  Biso   1.000  C
  H129     1.0000 0.93930  0.71460  0.34210  Biso   1.000  H
  C235     1.0000 0.03800  0.74640  0.35449  Biso   1.000  C
  H130     1.0000 0.04630  0.75880  0.34180  Biso   1.000  H
  C236     1.0000 0.08960  0.75430  0.37330  Biso   1.000  C
  C237     1.0000 0.07720  0.73580  0.39233  Biso   1.000  C
  H131     1.0000 0.11170  0.74120  0.40490  Biso   1.000  H
  C238     1.0000 0.01300  0.70940  0.39251  Biso   1.000  C
  H132     1.0000 0.00470  0.69700  0.40520  Biso   1.000  H
  Cu9      1.0000 0.66211  0.50930  0.24599  Biso   1.000  Cu
  C239     1.0000 0.96830  0.56990  0.17398  Biso   1.000  C
  C240     1.0000 0.05530  0.55794  0.16582  Biso   1.000  C
  H133     1.0000 0.08120  0.53840  0.17130  Biso   1.000  H
  C241     1.0000 0.10360  0.57510  0.14939  Biso   1.000  C
  H134     1.0000 0.16180  0.56710  0.14390  Biso   1.000  H
  C242     1.0000 0.06480  0.60430  0.14112  Biso   1.000  C
  C243     1.0000 0.97780  0.61627  0.14929  Biso   1.000  C
  H135     1.0000 0.95180  0.63580  0.14380  Biso   1.000  H
  C244     1.0000 0.92950  0.59910  0.16572  Biso   1.000  C
  H136     1.0000 0.87120  0.60710  0.17120  Biso   1.000  H
  C245     1.0000 0.86630  0.65261  0.35539  Biso   1.000  C
  C246     1.0000 0.77890  0.63650  0.35184  Biso   1.000  C
  H137     1.0000 0.72600  0.64100  0.36070  Biso   1.000  H
  C247     1.0000 0.77070  0.61350  0.33498  Biso   1.000  C
  H138     1.0000 0.71230  0.60270  0.33260  Biso   1.000  H
  C248     1.0000 0.84980  0.60670  0.32166  Biso   1.000  C
  C249     1.0000 0.93720  0.62280  0.32521  Biso   1.000  C
  H139     1.0000 0.99010  0.61830  0.31630  Biso   1.000  H
  C250     1.0000 0.94540  0.64580  0.34207  Biso   1.000  C
  H140     1.0000 0.00380  0.65660  0.34440  Biso   1.000  H
  C251     1.0000 0.83770  0.55390  0.19840  Biso   1.000  C
  H141     1.0000 0.79580  0.56690  0.19020  Biso   1.000  H
  C252     1.0000 0.83960  0.58220  0.30360  Biso   1.000  C
  H142     1.0000 0.89650  0.57190  0.29920  Biso   1.000  H
  C253     1.0000 0.92720  0.55290  0.19290  Biso   1.000  C
  H143     1.0000 0.96890  0.54040  0.20160  Biso   1.000  H
  C254     1.0000 0.14800  0.78410  0.37260  Biso   1.000  C
  C255     1.0000 0.76030  0.57300  0.29290  Biso   1.000  C
  H144     1.0000 0.70300  0.58360  0.29660  Biso   1.000  H
  C256     1.0000 0.79510  0.53370  0.21880  Biso   1.000  C
  C257     1.0000 0.75500  0.54690  0.27520  Biso   1.000  C
  O59      1.0000 0.86680  0.51910  0.22906  Biso   1.000  O
  O60      1.0000 0.83750  0.53000  0.27388  Biso   1.000  O
  C258     1.0000 0.25600  0.82940  0.37800  Biso   1.000  C
  O61      1.0000 0.25840  0.84330  0.35870  Biso   1.000  O
  O62      1.0000 0.29400  0.83790  0.39280  Biso   1.000  O
  C259     1.0000 0.46400  0.87610  0.26930  Biso   1.000  C
  O63      1.0000 0.42310  0.87550  0.31950  Biso   1.000  O
  C260     1.0000 0.19900  0.79930  0.38350  Biso   1.000  C
  C261     1.0000 0.06800  0.44270  0.36040  Biso   1.000  C
  O64      1.0000 0.70600  0.03620  0.72240  Biso   1.000  O
  O65      1.0000 0.68350  0.04600  0.76570  Biso   1.000  O
  C262     1.0000 0.96140  0.20142  0.87368  Biso   1.000  C
  C263     1.0000 0.97380  0.21990  0.85467  Biso   1.000  C
  H145     1.0000 0.93930  0.21460  0.84210  Biso   1.000  H
  C264     1.0000 0.03800  0.24640  0.85449  Biso   1.000  C
  H146     1.0000 0.04630  0.25880  0.84180  Biso   1.000  H
  C265     1.0000 0.08960  0.25430  0.87330  Biso   1.000  C
  C266     1.0000 0.07720  0.23580  0.89233  Biso   1.000  C
  H147     1.0000 0.11170  0.24120  0.90490  Biso   1.000  H
  C267     1.0000 0.01300  0.20940  0.89251  Biso   1.000  C
  H148     1.0000 0.00470  0.19700  0.90520  Biso   1.000  H
  Cu10     1.0000 0.66211  0.00930  0.74599  Biso   1.000  Cu
  C268     1.0000 0.96830  0.06990  0.67398  Biso   1.000  C
  C269     1.0000 0.05530  0.05794  0.66582  Biso   1.000  C
  H149     1.0000 0.08120  0.03840  0.67130  Biso   1.000  H
  C270     1.0000 0.10360  0.07510  0.64939  Biso   1.000  C
  H150     1.0000 0.16180  0.06710  0.64390  Biso   1.000  H
  C271     1.0000 0.06480  0.10430  0.64112  Biso   1.000  C
  C272     1.0000 0.97780  0.11627  0.64929  Biso   1.000  C
  H151     1.0000 0.95180  0.13580  0.64380  Biso   1.000  H
  C273     1.0000 0.92950  0.09910  0.66572  Biso   1.000  C
  H152     1.0000 0.87120  0.10710  0.67120  Biso   1.000  H
  C274     1.0000 0.86630  0.15261  0.85539  Biso   1.000  C
  C275     1.0000 0.77890  0.13650  0.85184  Biso   1.000  C
  H153     1.0000 0.72600  0.14100  0.86070  Biso   1.000  H
  C276     1.0000 0.77070  0.11350  0.83498  Biso   1.000  C
  H154     1.0000 0.71230  0.10270  0.83260  Biso   1.000  H
  C277     1.0000 0.84980  0.10670  0.82166  Biso   1.000  C
  C278     1.0000 0.93720  0.12280  0.82521  Biso   1.000  C
  H155     1.0000 0.99010  0.11830  0.81630  Biso   1.000  H
  C279     1.0000 0.94540  0.14580  0.84207  Biso   1.000  C
  H156     1.0000 0.00380  0.15660  0.84440  Biso   1.000  H
  C280     1.0000 0.83770  0.05390  0.69840  Biso   1.000  C
  H157     1.0000 0.79580  0.06690  0.69020  Biso   1.000  H
  C281     1.0000 0.83960  0.08220  0.80360  Biso   1.000  C
  H158     1.0000 0.89650  0.07190  0.79920  Biso   1.000  H
  C282     1.0000 0.92720  0.05290  0.69290  Biso   1.000  C
  H159     1.0000 0.96890  0.04040  0.70160  Biso   1.000  H
  C283     1.0000 0.14800  0.28410  0.87260  Biso   1.000  C
  C284     1.0000 0.76030  0.07300  0.79290  Biso   1.000  C
  H160     1.0000 0.70300  0.08360  0.79660  Biso   1.000  H
  C285     1.0000 0.79510  0.03370  0.71880  Biso   1.000  C
  C286     1.0000 0.75500  0.04690  0.77520  Biso   1.000  C
  O66      1.0000 0.86680  0.01910  0.72906  Biso   1.000  O
  O67      1.0000 0.83750  0.03000  0.77388  Biso   1.000  O
  C287     1.0000 0.25600  0.32940  0.87800  Biso   1.000  C
  O68      1.0000 0.25840  0.34330  0.85870  Biso   1.000  O
  O69      1.0000 0.29400  0.33790  0.89280  Biso   1.000  O
  C288     1.0000 0.46400  0.37610  0.76930  Biso   1.000  C
  O70      1.0000 0.42310  0.37550  0.81950  Biso   1.000  O
  C289     1.0000 0.19900  0.29930  0.88350  Biso   1.000  C
  C290     1.0000 0.06800  0.94270  0.86040  Biso   1.000  C
  O71      1.0000 0.20600  0.53620  0.72240  Biso   1.000  O
  O72      1.0000 0.18350  0.54600  0.76570  Biso   1.000  O
  C291     1.0000 0.46140  0.70142  0.87368  Biso   1.000  C
  C292     1.0000 0.47380  0.71990  0.85467  Biso   1.000  C
  H161     1.0000 0.43930  0.71460  0.84210  Biso   1.000  H
  C293     1.0000 0.53800  0.74640  0.85449  Biso   1.000  C
  H162     1.0000 0.54630  0.75880  0.84180  Biso   1.000  H
  C294     1.0000 0.58960  0.75430  0.87330  Biso   1.000  C
  C295     1.0000 0.57720  0.73580  0.89233  Biso   1.000  C
  H163     1.0000 0.61170  0.74120  0.90490  Biso   1.000  H
  C296     1.0000 0.51300  0.70940  0.89251  Biso   1.000  C
  H164     1.0000 0.50470  0.69700  0.90520  Biso   1.000  H
  Cu11     1.0000 0.16211  0.50930  0.74599  Biso   1.000  Cu
  C297     1.0000 0.46830  0.56990  0.67398  Biso   1.000  C
  C298     1.0000 0.55530  0.55794  0.66582  Biso   1.000  C
  H165     1.0000 0.58120  0.53840  0.67130  Biso   1.000  H
  C299     1.0000 0.60360  0.57510  0.64939  Biso   1.000  C
  H166     1.0000 0.66180  0.56710  0.64390  Biso   1.000  H
  C300     1.0000 0.56480  0.60430  0.64112  Biso   1.000  C
  C301     1.0000 0.47780  0.61627  0.64929  Biso   1.000  C
  H167     1.0000 0.45180  0.63580  0.64380  Biso   1.000  H
  C302     1.0000 0.42950  0.59910  0.66572  Biso   1.000  C
  H168     1.0000 0.37120  0.60710  0.67120  Biso   1.000  H
  C303     1.0000 0.36630  0.65261  0.85539  Biso   1.000  C
  C304     1.0000 0.27890  0.63650  0.85184  Biso   1.000  C
  H169     1.0000 0.22600  0.64100  0.86070  Biso   1.000  H
  C305     1.0000 0.27070  0.61350  0.83498  Biso   1.000  C
  H170     1.0000 0.21230  0.60270  0.83260  Biso   1.000  H
  C306     1.0000 0.34980  0.60670  0.82166  Biso   1.000  C
  C307     1.0000 0.43720  0.62280  0.82521  Biso   1.000  C
  H171     1.0000 0.49010  0.61830  0.81630  Biso   1.000  H
  C308     1.0000 0.44540  0.64580  0.84207  Biso   1.000  C
  H172     1.0000 0.50380  0.65660  0.84440  Biso   1.000  H
  C309     1.0000 0.33770  0.55390  0.69840  Biso   1.000  C
  H173     1.0000 0.29580  0.56690  0.69020  Biso   1.000  H
  C310     1.0000 0.33960  0.58220  0.80360  Biso   1.000  C
  H174     1.0000 0.39650  0.57190  0.79920  Biso   1.000  H
  C311     1.0000 0.42720  0.55290  0.69290  Biso   1.000  C
  H175     1.0000 0.46890  0.54040  0.70160  Biso   1.000  H
  C312     1.0000 0.64800  0.78410  0.87260  Biso   1.000  C
  C313     1.0000 0.26030  0.57300  0.79290  Biso   1.000  C
  H176     1.0000 0.20300  0.58360  0.79660  Biso   1.000  H
  C314     1.0000 0.29510  0.53370  0.71880  Biso   1.000  C
  C315     1.0000 0.25500  0.54690  0.77520  Biso   1.000  C
  O73      1.0000 0.36680  0.51910  0.72906  Biso   1.000  O
  O74      1.0000 0.33750  0.53000  0.77388  Biso   1.000  O
  C316     1.0000 0.75600  0.82940  0.87800  Biso   1.000  C
  O75      1.0000 0.75840  0.84330  0.85870  Biso   1.000  O
  O76      1.0000 0.79400  0.83790  0.89280  Biso   1.000  O
  C317     1.0000 0.96400  0.87610  0.76930  Biso   1.000  C
  O77      1.0000 0.92310  0.87550  0.81950  Biso   1.000  O
  C318     1.0000 0.69900  0.79930  0.88350  Biso   1.000  C
  C319     1.0000 0.56800  0.44270  0.86040  Biso   1.000  C
  O78      1.0000 0.20600  0.03620  0.22240  Biso   1.000  O
  O79      1.0000 0.18350  0.04600  0.26570  Biso   1.000  O
  C320     1.0000 0.46140  0.20142  0.37368  Biso   1.000  C
  C321     1.0000 0.47380  0.21990  0.35467  Biso   1.000  C
  H177     1.0000 0.43930  0.21460  0.34210  Biso   1.000  H
  C322     1.0000 0.53800  0.24640  0.35449  Biso   1.000  C
  H178     1.0000 0.54630  0.25880  0.34180  Biso   1.000  H
  C323     1.0000 0.58960  0.25430  0.37330  Biso   1.000  C
  C324     1.0000 0.57720  0.23580  0.39233  Biso   1.000  C
  H179     1.0000 0.61170  0.24120  0.40490  Biso   1.000  H
  C325     1.0000 0.51300  0.20940  0.39251  Biso   1.000  C
  H180     1.0000 0.50470  0.19700  0.40520  Biso   1.000  H
  Cu12     1.0000 0.16211  0.00930  0.24599  Biso   1.000  Cu
  C326     1.0000 0.46830  0.06990  0.17398  Biso   1.000  C
  C327     1.0000 0.55530  0.05794  0.16582  Biso   1.000  C
  H181     1.0000 0.58120  0.03840  0.17130  Biso   1.000  H
  C328     1.0000 0.60360  0.07510  0.14939  Biso   1.000  C
  H182     1.0000 0.66180  0.06710  0.14390  Biso   1.000  H
  C329     1.0000 0.56480  0.10430  0.14112  Biso   1.000  C
  C330     1.0000 0.47780  0.11627  0.14929  Biso   1.000  C
  H183     1.0000 0.45180  0.13580  0.14380  Biso   1.000  H
  C331     1.0000 0.42950  0.09910  0.16572  Biso   1.000  C
  H184     1.0000 0.37120  0.10710  0.17120  Biso   1.000  H
  C332     1.0000 0.36630  0.15261  0.35539  Biso   1.000  C
  C333     1.0000 0.27890  0.13650  0.35184  Biso   1.000  C
  H185     1.0000 0.22600  0.14100  0.36070  Biso   1.000  H
  C334     1.0000 0.27070  0.11350  0.33498  Biso   1.000  C
  H186     1.0000 0.21230  0.10270  0.33260  Biso   1.000  H
  C335     1.0000 0.34980  0.10670  0.32166  Biso   1.000  C
  C336     1.0000 0.43720  0.12280  0.32521  Biso   1.000  C
  H187     1.0000 0.49010  0.11830  0.31630  Biso   1.000  H
  C337     1.0000 0.44540  0.14580  0.34207  Biso   1.000  C
  H188     1.0000 0.50380  0.15660  0.34440  Biso   1.000  H
  C338     1.0000 0.33770  0.05390  0.19840  Biso   1.000  C
  H189     1.0000 0.29580  0.06690  0.19020  Biso   1.000  H
  C339     1.0000 0.33960  0.08220  0.30360  Biso   1.000  C
  H190     1.0000 0.39650  0.07190  0.29920  Biso   1.000  H
  C340     1.0000 0.42720  0.05290  0.19290  Biso   1.000  C
  H191     1.0000 0.46890  0.04040  0.20160  Biso   1.000  H
  C341     1.0000 0.64800  0.28410  0.37260  Biso   1.000  C
  C342     1.0000 0.26030  0.07300  0.29290  Biso   1.000  C
  H192     1.0000 0.20300  0.08360  0.29660  Biso   1.000  H
  C343     1.0000 0.29510  0.03370  0.21880  Biso   1.000  C
  C344     1.0000 0.25500  0.04690  0.27520  Biso   1.000  C
  O80      1.0000 0.36680  0.01910  0.22906  Biso   1.000  O
  O81      1.0000 0.33750  0.03000  0.27388  Biso   1.000  O
  C345     1.0000 0.75600  0.32940  0.37800  Biso   1.000  C
  O82      1.0000 0.75840  0.34330  0.35870  Biso   1.000  O
  O83      1.0000 0.79400  0.33790  0.39280  Biso   1.000  O
  C346     1.0000 0.96400  0.37610  0.26930  Biso   1.000  C
  O84      1.0000 0.92310  0.37550  0.31950  Biso   1.000  O
  C347     1.0000 0.69900  0.29930  0.38350  Biso   1.000  C
  C348     1.0000 0.56800  0.94270  0.36040  Biso   1.000  C
  O85      1.0000 0.04400  0.21380  0.22240  Biso   1.000  O
  O86      1.0000 0.06650  0.20400  0.26570  Biso   1.000  O
  C349     1.0000 0.78860  0.04858  0.37368  Biso   1.000  C
  C350     1.0000 0.77620  0.03010  0.35467  Biso   1.000  C
  H193     1.0000 0.81070  0.03540  0.34210  Biso   1.000  H
  C351     1.0000 0.71200  0.00360  0.35449  Biso   1.000  C
  H194     1.0000 0.70370  0.99120  0.34180  Biso   1.000  H
  C352     1.0000 0.66040  0.99570  0.37330  Biso   1.000  C
  C353     1.0000 0.67280  0.01420  0.39233  Biso   1.000  C
  H195     1.0000 0.63830  0.00880  0.40490  Biso   1.000  H
  C354     1.0000 0.73700  0.04060  0.39251  Biso   1.000  C
  H196     1.0000 0.74530  0.05300  0.40520  Biso   1.000  H
  Cu13     1.0000 0.08789  0.24070  0.24599  Biso   1.000  Cu
  C355     1.0000 0.78170  0.18010  0.17398  Biso   1.000  C
  C356     1.0000 0.69470  0.19206  0.16582  Biso   1.000  C
  H197     1.0000 0.66880  0.21160  0.17130  Biso   1.000  H
  C357     1.0000 0.64640  0.17490  0.14939  Biso   1.000  C
  H198     1.0000 0.58820  0.18290  0.14390  Biso   1.000  H
  C358     1.0000 0.68520  0.14570  0.14112  Biso   1.000  C
  C359     1.0000 0.77220  0.13373  0.14929  Biso   1.000  C
  H199     1.0000 0.79820  0.11420  0.14380  Biso   1.000  H
  C360     1.0000 0.82050  0.15090  0.16572  Biso   1.000  C
  H200     1.0000 0.87880  0.14290  0.17120  Biso   1.000  H
  C361     1.0000 0.88370  0.09739  0.35539  Biso   1.000  C
  C362     1.0000 0.97110  0.11350  0.35184  Biso   1.000  C
  H201     1.0000 0.02400  0.10900  0.36070  Biso   1.000  H
  C363     1.0000 0.97930  0.13650  0.33498  Biso   1.000  C
  H202     1.0000 0.03770  0.14730  0.33260  Biso   1.000  H
  C364     1.0000 0.90020  0.14330  0.32166  Biso   1.000  C
  C365     1.0000 0.81280  0.12720  0.32521  Biso   1.000  C
  H203     1.0000 0.75990  0.13170  0.31630  Biso   1.000  H
  C366     1.0000 0.80460  0.10420  0.34207  Biso   1.000  C
  H204     1.0000 0.74620  0.09340  0.34440  Biso   1.000  H
  C367     1.0000 0.91230  0.19610  0.19840  Biso   1.000  C
  H205     1.0000 0.95420  0.18310  0.19020  Biso   1.000  H
  C368     1.0000 0.91040  0.16780  0.30360  Biso   1.000  C
  H206     1.0000 0.85350  0.17810  0.29920  Biso   1.000  H
  C369     1.0000 0.82280  0.19710  0.19290  Biso   1.000  C
  H207     1.0000 0.78110  0.20960  0.20160  Biso   1.000  H
  C370     1.0000 0.60200  0.96590  0.37260  Biso   1.000  C
  C371     1.0000 0.98970  0.17700  0.29290  Biso   1.000  C
  H208     1.0000 0.04700  0.16640  0.29660  Biso   1.000  H
  C372     1.0000 0.95490  0.21630  0.21880  Biso   1.000  C
  C373     1.0000 0.99500  0.20310  0.27520  Biso   1.000  C
  O87      1.0000 0.88320  0.23090  0.22906  Biso   1.000  O
  O88      1.0000 0.91250  0.22000  0.27388  Biso   1.000  O
  C374     1.0000 0.49400  0.92060  0.37800  Biso   1.000  C
  O89      1.0000 0.49160  0.90670  0.35870  Biso   1.000  O
  O90      1.0000 0.45600  0.91210  0.39280  Biso   1.000  O
  C375     1.0000 0.28600  0.87390  0.26930  Biso   1.000  C
  O91      1.0000 0.32690  0.87450  0.31950  Biso   1.000  O
  C376     1.0000 0.55100  0.95070  0.38350  Biso   1.000  C
  C377     1.0000 0.68200  0.30730  0.36040  Biso   1.000  C
  O92      1.0000 0.04400  0.71380  0.72240  Biso   1.000  O
  O93      1.0000 0.06650  0.70400  0.76570  Biso   1.000  O
  C378     1.0000 0.78860  0.54858  0.87368  Biso   1.000  C
  C379     1.0000 0.77620  0.53010  0.85467  Biso   1.000  C
  H209     1.0000 0.81070  0.53540  0.84210  Biso   1.000  H
  C380     1.0000 0.71200  0.50360  0.85449  Biso   1.000  C
  H210     1.0000 0.70370  0.49120  0.84180  Biso   1.000  H
  C381     1.0000 0.66040  0.49570  0.87330  Biso   1.000  C
  C382     1.0000 0.67280  0.51420  0.89233  Biso   1.000  C
  H211     1.0000 0.63830  0.50880  0.90490  Biso   1.000  H
  C383     1.0000 0.73700  0.54060  0.89251  Biso   1.000  C
  H212     1.0000 0.74530  0.55300  0.90520  Biso   1.000  H
  Cu14     1.0000 0.08789  0.74070  0.74599  Biso   1.000  Cu
  C384     1.0000 0.78170  0.68010  0.67398  Biso   1.000  C
  C385     1.0000 0.69470  0.69206  0.66582  Biso   1.000  C
  H213     1.0000 0.66880  0.71160  0.67130  Biso   1.000  H
  C386     1.0000 0.64640  0.67490  0.64939  Biso   1.000  C
  H214     1.0000 0.58820  0.68290  0.64390  Biso   1.000  H
  C387     1.0000 0.68520  0.64570  0.64112  Biso   1.000  C
  C388     1.0000 0.77220  0.63373  0.64929  Biso   1.000  C
  H215     1.0000 0.79820  0.61420  0.64380  Biso   1.000  H
  C389     1.0000 0.82050  0.65090  0.66572  Biso   1.000  C
  H216     1.0000 0.87880  0.64290  0.67120  Biso   1.000  H
  C390     1.0000 0.88370  0.59739  0.85539  Biso   1.000  C
  C391     1.0000 0.97110  0.61350  0.85184  Biso   1.000  C
  H217     1.0000 0.02400  0.60900  0.86070  Biso   1.000  H
  C392     1.0000 0.97930  0.63650  0.83498  Biso   1.000  C
  H218     1.0000 0.03770  0.64730  0.83260  Biso   1.000  H
  C393     1.0000 0.90020  0.64330  0.82166  Biso   1.000  C
  C394     1.0000 0.81280  0.62720  0.82521  Biso   1.000  C
  H219     1.0000 0.75990  0.63170  0.81630  Biso   1.000  H
  C395     1.0000 0.80460  0.60420  0.84207  Biso   1.000  C
  H220     1.0000 0.74620  0.59340  0.84440  Biso   1.000  H
  C396     1.0000 0.91230  0.69610  0.69840  Biso   1.000  C
  H221     1.0000 0.95420  0.68310  0.69020  Biso   1.000  H
  C397     1.0000 0.91040  0.66780  0.80360  Biso   1.000  C
  H222     1.0000 0.85350  0.67810  0.79920  Biso   1.000  H
  C398     1.0000 0.82280  0.69710  0.69290  Biso   1.000  C
  H223     1.0000 0.78110  0.70960  0.70160  Biso   1.000  H
  C399     1.0000 0.60200  0.46590  0.87260  Biso   1.000  C
  C400     1.0000 0.98970  0.67700  0.79290  Biso   1.000  C
  H224     1.0000 0.04700  0.66640  0.79660  Biso   1.000  H
  C401     1.0000 0.95490  0.71630  0.71880  Biso   1.000  C
  C402     1.0000 0.99500  0.70310  0.77520  Biso   1.000  C
  O94      1.0000 0.88320  0.73090  0.72906  Biso   1.000  O
  O95      1.0000 0.91250  0.72000  0.77388  Biso   1.000  O
  C403     1.0000 0.49400  0.42060  0.87800  Biso   1.000  C
  O96      1.0000 0.49160  0.40670  0.85870  Biso   1.000  O
  O97      1.0000 0.45600  0.41210  0.89280  Biso   1.000  O
  C404     1.0000 0.28600  0.37390  0.76930  Biso   1.000  C
  O98      1.0000 0.32690  0.37450  0.81950  Biso   1.000  O
  C405     1.0000 0.55100  0.45070  0.88350  Biso   1.000  C
  C406     1.0000 0.68200  0.80730  0.86040  Biso   1.000  C
  O99      1.0000 0.54400  0.21380  0.72240  Biso   1.000  O
  O100     1.0000 0.56650  0.20400  0.76570  Biso   1.000  O
  C407     1.0000 0.28860  0.04858  0.87368  Biso   1.000  C
  C408     1.0000 0.27620  0.03010  0.85467  Biso   1.000  C
  H225     1.0000 0.31070  0.03540  0.84210  Biso   1.000  H
  C409     1.0000 0.21200  0.00360  0.85449  Biso   1.000  C
  H226     1.0000 0.20370  0.99120  0.84180  Biso   1.000  H
  C410     1.0000 0.16040  0.99570  0.87330  Biso   1.000  C
  C411     1.0000 0.17280  0.01420  0.89233  Biso   1.000  C
  H227     1.0000 0.13830  0.00880  0.90490  Biso   1.000  H
  C412     1.0000 0.23700  0.04060  0.89251  Biso   1.000  C
  H228     1.0000 0.24530  0.05300  0.90520  Biso   1.000  H
  Cu15     1.0000 0.58789  0.24070  0.74599  Biso   1.000  Cu
  C413     1.0000 0.28170  0.18010  0.67398  Biso   1.000  C
  C414     1.0000 0.19470  0.19206  0.66582  Biso   1.000  C
  H229     1.0000 0.16880  0.21160  0.67130  Biso   1.000  H
  C415     1.0000 0.14640  0.17490  0.64939  Biso   1.000  C
  H230     1.0000 0.08820  0.18290  0.64390  Biso   1.000  H
  C416     1.0000 0.18520  0.14570  0.64112  Biso   1.000  C
  C417     1.0000 0.27220  0.13373  0.64929  Biso   1.000  C
  H231     1.0000 0.29820  0.11420  0.64380  Biso   1.000  H
  C418     1.0000 0.32050  0.15090  0.66572  Biso   1.000  C
  H232     1.0000 0.37880  0.14290  0.67120  Biso   1.000  H
  C419     1.0000 0.38370  0.09739  0.85539  Biso   1.000  C
  C420     1.0000 0.47110  0.11350  0.85184  Biso   1.000  C
  H233     1.0000 0.52400  0.10900  0.86070  Biso   1.000  H
  C421     1.0000 0.47930  0.13650  0.83498  Biso   1.000  C
  H234     1.0000 0.53770  0.14730  0.83260  Biso   1.000  H
  C422     1.0000 0.40020  0.14330  0.82166  Biso   1.000  C
  C423     1.0000 0.31280  0.12720  0.82521  Biso   1.000  C
  H235     1.0000 0.25990  0.13170  0.81630  Biso   1.000  H
  C424     1.0000 0.30460  0.10420  0.84207  Biso   1.000  C
  H236     1.0000 0.24620  0.09340  0.84440  Biso   1.000  H
  C425     1.0000 0.41230  0.19610  0.69840  Biso   1.000  C
  H237     1.0000 0.45420  0.18310  0.69020  Biso   1.000  H
  C426     1.0000 0.41040  0.16780  0.80360  Biso   1.000  C
  H238     1.0000 0.35350  0.17810  0.79920  Biso   1.000  H
  C427     1.0000 0.32280  0.19710  0.69290  Biso   1.000  C
  H239     1.0000 0.28110  0.20960  0.70160  Biso   1.000  H
  C428     1.0000 0.10200  0.96590  0.87260  Biso   1.000  C
  C429     1.0000 0.48970  0.17700  0.79290  Biso   1.000  C
  H240     1.0000 0.54700  0.16640  0.79660  Biso   1.000  H
  C430     1.0000 0.45490  0.21630  0.71880  Biso   1.000  C
  C431     1.0000 0.49500  0.20310  0.77520  Biso   1.000  C
  O101     1.0000 0.38320  0.23090  0.72906  Biso   1.000  O
  O102     1.0000 0.41250  0.22000  0.77388  Biso   1.000  O
  C432     1.0000 0.99400  0.92060  0.87800  Biso   1.000  C
  O103     1.0000 0.99160  0.90670  0.85870  Biso   1.000  O
  O104     1.0000 0.95600  0.91210  0.89280  Biso   1.000  O
  C433     1.0000 0.78600  0.87390  0.76930  Biso   1.000  C
  O105     1.0000 0.82690  0.87450  0.81950  Biso   1.000  O
  C434     1.0000 0.05100  0.95070  0.88350  Biso   1.000  C
  C435     1.0000 0.18200  0.30730  0.86040  Biso   1.000  C
  O106     1.0000 0.54400  0.71380  0.22240  Biso   1.000  O
  O107     1.0000 0.56650  0.70400  0.26570  Biso   1.000  O
  C436     1.0000 0.28860  0.54858  0.37368  Biso   1.000  C
  C437     1.0000 0.27620  0.53010  0.35467  Biso   1.000  C
  H241     1.0000 0.31070  0.53540  0.34210  Biso   1.000  H
  C438     1.0000 0.21200  0.50360  0.35449  Biso   1.000  C
  H242     1.0000 0.20370  0.49120  0.34180  Biso   1.000  H
  C439     1.0000 0.16040  0.49570  0.37330  Biso   1.000  C
  C440     1.0000 0.17280  0.51420  0.39233  Biso   1.000  C
  H243     1.0000 0.13830  0.50880  0.40490  Biso   1.000  H
  C441     1.0000 0.23700  0.54060  0.39251  Biso   1.000  C
  H244     1.0000 0.24530  0.55300  0.40520  Biso   1.000  H
  Cu16     1.0000 0.58789  0.74070  0.24599  Biso   1.000  Cu
  C442     1.0000 0.28170  0.68010  0.17398  Biso   1.000  C
  C443     1.0000 0.19470  0.69206  0.16582  Biso   1.000  C
  H245     1.0000 0.16880  0.71160  0.17130  Biso   1.000  H
  C444     1.0000 0.14640  0.67490  0.14939  Biso   1.000  C
  H246     1.0000 0.08820  0.68290  0.14390  Biso   1.000  H
  C445     1.0000 0.18520  0.64570  0.14112  Biso   1.000  C
  C446     1.0000 0.27220  0.63373  0.14929  Biso   1.000  C
  H247     1.0000 0.29820  0.61420  0.14380  Biso   1.000  H
  C447     1.0000 0.32050  0.65090  0.16572  Biso   1.000  C
  H248     1.0000 0.37880  0.64290  0.17120  Biso   1.000  H
  C448     1.0000 0.38370  0.59739  0.35539  Biso   1.000  C
  C449     1.0000 0.47110  0.61350  0.35184  Biso   1.000  C
  H249     1.0000 0.52400  0.60900  0.36070  Biso   1.000  H
  C450     1.0000 0.47930  0.63650  0.33498  Biso   1.000  C
  H250     1.0000 0.53770  0.64730  0.33260  Biso   1.000  H
  C451     1.0000 0.40020  0.64330  0.32166  Biso   1.000  C
  C452     1.0000 0.31280  0.62720  0.32521  Biso   1.000  C
  H251     1.0000 0.25990  0.63170  0.31630  Biso   1.000  H
  C453     1.0000 0.30460  0.60420  0.34207  Biso   1.000  C
  H252     1.0000 0.24620  0.59340  0.34440  Biso   1.000  H
  C454     1.0000 0.41230  0.69610  0.19840  Biso   1.000  C
  H253     1.0000 0.45420  0.68310  0.19020  Biso   1.000  H
  C455     1.0000 0.41040  0.66780  0.30360  Biso   1.000  C
  H254     1.0000 0.35350  0.67810  0.29920  Biso   1.000  H
  C456     1.0000 0.32280  0.69710  0.19290  Biso   1.000  C
  H255     1.0000 0.28110  0.70960  0.20160  Biso   1.000  H
  C457     1.0000 0.10200  0.46590  0.37260  Biso   1.000  C
  C458     1.0000 0.48970  0.67700  0.29290  Biso   1.000  C
  H256     1.0000 0.54700  0.66640  0.29660  Biso   1.000  H
  C459     1.0000 0.45490  0.71630  0.21880  Biso   1.000  C
  C460     1.0000 0.49500  0.70310  0.27520  Biso   1.000  C
  O108     1.0000 0.38320  0.73090  0.22906  Biso   1.000  O
  O109     1.0000 0.41250  0.72000  0.27388  Biso   1.000  O
  C461     1.0000 0.99400  0.42060  0.37800  Biso   1.000  C
  O110     1.0000 0.99160  0.40670  0.35870  Biso   1.000  O
  O111     1.0000 0.95600  0.41210  0.39280  Biso   1.000  O
  C462     1.0000 0.78600  0.37390  0.26930  Biso   1.000  C
  O112     1.0000 0.82690  0.37450  0.31950  Biso   1.000  O
  C463     1.0000 0.05100  0.45070  0.38350  Biso   1.000  C
  C464     1.0000 0.18200  0.80730  0.36040  Biso   1.000  C
  O113     1.0000 0.95600  0.46380  0.47240  Biso   1.000  O
  O114     1.0000 0.93350  0.45400  0.51570  Biso   1.000  O
  C465     1.0000 0.21140  0.29858  0.62368  Biso   1.000  C
  C466     1.0000 0.22380  0.28010  0.60467  Biso   1.000  C
  H257     1.0000 0.18930  0.28540  0.59210  Biso   1.000  H
  C467     1.0000 0.28800  0.25360  0.60449  Biso   1.000  C
  H258     1.0000 0.29630  0.24120  0.59180  Biso   1.000  H
  C468     1.0000 0.33960  0.24570  0.62330  Biso   1.000  C
  C469     1.0000 0.32720  0.26420  0.64233  Biso   1.000  C
  H259     1.0000 0.36170  0.25880  0.65490  Biso   1.000  H
  C470     1.0000 0.26300  0.29060  0.64251  Biso   1.000  C
  H260     1.0000 0.25470  0.30300  0.65520  Biso   1.000  H
  Cu17     1.0000 0.91211  0.49070  0.49599  Biso   1.000  Cu
  C471     1.0000 0.21830  0.43010  0.42398  Biso   1.000  C
  C472     1.0000 0.30530  0.44206  0.41582  Biso   1.000  C
  H261     1.0000 0.33120  0.46160  0.42130  Biso   1.000  H
  C473     1.0000 0.35360  0.42490  0.39939  Biso   1.000  C
  H262     1.0000 0.41180  0.43290  0.39390  Biso   1.000  H
  C474     1.0000 0.31480  0.39570  0.39112  Biso   1.000  C
  C475     1.0000 0.22780  0.38373  0.39929  Biso   1.000  C
  H263     1.0000 0.20180  0.36420  0.39380  Biso   1.000  H
  C476     1.0000 0.17950  0.40090  0.41572  Biso   1.000  C
  H264     1.0000 0.12120  0.39290  0.42120  Biso   1.000  H
  C477     1.0000 0.11630  0.34739  0.60539  Biso   1.000  C
  C478     1.0000 0.02890  0.36350  0.60184  Biso   1.000  C
  H265     1.0000 0.97600  0.35900  0.61070  Biso   1.000  H
  C479     1.0000 0.02070  0.38650  0.58498  Biso   1.000  C
  H266     1.0000 0.96230  0.39730  0.58260  Biso   1.000  H
  C480     1.0000 0.09980  0.39330  0.57166  Biso   1.000  C
  C481     1.0000 0.18720  0.37720  0.57521  Biso   1.000  C
  H267     1.0000 0.24010  0.38170  0.56630  Biso   1.000  H
  C482     1.0000 0.19540  0.35420  0.59207  Biso   1.000  C
  H268     1.0000 0.25380  0.34340  0.59440  Biso   1.000  H
  C483     1.0000 0.08770  0.44610  0.44840  Biso   1.000  C
  H269     1.0000 0.04580  0.43310  0.44020  Biso   1.000  H
  C484     1.0000 0.08960  0.41780  0.55360  Biso   1.000  C
  H270     1.0000 0.14650  0.42810  0.54920  Biso   1.000  H
  C485     1.0000 0.17720  0.44710  0.44290  Biso   1.000  C
  H271     1.0000 0.21890  0.45960  0.45160  Biso   1.000  H
  C486     1.0000 0.39800  0.21590  0.62260  Biso   1.000  C
  C487     1.0000 0.01030  0.42700  0.54290  Biso   1.000  C
  H272     1.0000 0.95300  0.41640  0.54660  Biso   1.000  H
  C488     1.0000 0.04510  0.46630  0.46880  Biso   1.000  C
  C489     1.0000 0.00500  0.45310  0.52520  Biso   1.000  C
  O115     1.0000 0.11680  0.48090  0.47906  Biso   1.000  O
  O116     1.0000 0.08750  0.47000  0.52388  Biso   1.000  O
  C490     1.0000 0.50600  0.17060  0.62800  Biso   1.000  C
  O117     1.0000 0.50840  0.15670  0.60870  Biso   1.000  O
  O118     1.0000 0.54400  0.16210  0.64280  Biso   1.000  O
  C491     1.0000 0.71400  0.12390  0.51930  Biso   1.000  C
  O119     1.0000 0.67310  0.12450  0.56950  Biso   1.000  O
  C492     1.0000 0.44900  0.20070  0.63350  Biso   1.000  C
  C493     1.0000 0.31800  0.55730  0.61040  Biso   1.000  C
  O120     1.0000 0.95600  0.96380  0.97240  Biso   1.000  O
  O121     1.0000 0.93350  0.95400  0.01570  Biso   1.000  O
  C494     1.0000 0.21140  0.79858  0.12368  Biso   1.000  C
  C495     1.0000 0.22380  0.78010  0.10467  Biso   1.000  C
  H273     1.0000 0.18930  0.78540  0.09210  Biso   1.000  H
  C496     1.0000 0.28800  0.75360  0.10449  Biso   1.000  C
  H274     1.0000 0.29630  0.74120  0.09180  Biso   1.000  H
  C497     1.0000 0.33960  0.74570  0.12330  Biso   1.000  C
  C498     1.0000 0.32720  0.76420  0.14233  Biso   1.000  C
  H275     1.0000 0.36170  0.75880  0.15490  Biso   1.000  H
  C499     1.0000 0.26300  0.79060  0.14251  Biso   1.000  C
  H276     1.0000 0.25470  0.80300  0.15520  Biso   1.000  H
  Cu18     1.0000 0.91211  0.99070  0.99599  Biso   1.000  Cu
  C500     1.0000 0.21830  0.93010  0.92398  Biso   1.000  C
  C501     1.0000 0.30530  0.94206  0.91582  Biso   1.000  C
  H277     1.0000 0.33120  0.96160  0.92130  Biso   1.000  H
  C502     1.0000 0.35360  0.92490  0.89939  Biso   1.000  C
  H278     1.0000 0.41180  0.93290  0.89390  Biso   1.000  H
  C503     1.0000 0.31480  0.89570  0.89112  Biso   1.000  C
  C504     1.0000 0.22780  0.88373  0.89929  Biso   1.000  C
  H279     1.0000 0.20180  0.86420  0.89380  Biso   1.000  H
  C505     1.0000 0.17950  0.90090  0.91572  Biso   1.000  C
  H280     1.0000 0.12120  0.89290  0.92120  Biso   1.000  H
  C506     1.0000 0.11630  0.84739  0.10539  Biso   1.000  C
  C507     1.0000 0.02890  0.86350  0.10184  Biso   1.000  C
  H281     1.0000 0.97600  0.85900  0.11070  Biso   1.000  H
  C508     1.0000 0.02070  0.88650  0.08498  Biso   1.000  C
  H282     1.0000 0.96230  0.89730  0.08260  Biso   1.000  H
  C509     1.0000 0.09980  0.89330  0.07166  Biso   1.000  C
  C510     1.0000 0.18720  0.87720  0.07521  Biso   1.000  C
  H283     1.0000 0.24010  0.88170  0.06630  Biso   1.000  H
  C511     1.0000 0.19540  0.85420  0.09207  Biso   1.000  C
  H284     1.0000 0.25380  0.84340  0.09440  Biso   1.000  H
  C512     1.0000 0.08770  0.94610  0.94840  Biso   1.000  C
  H285     1.0000 0.04580  0.93310  0.94020  Biso   1.000  H
  C513     1.0000 0.08960  0.91780  0.05360  Biso   1.000  C
  H286     1.0000 0.14650  0.92810  0.04920  Biso   1.000  H
  C514     1.0000 0.17720  0.94710  0.94290  Biso   1.000  C
  H287     1.0000 0.21890  0.95960  0.95160  Biso   1.000  H
  C515     1.0000 0.39800  0.71590  0.12260  Biso   1.000  C
  C516     1.0000 0.01030  0.92700  0.04290  Biso   1.000  C
  H288     1.0000 0.95300  0.91640  0.04660  Biso   1.000  H
  C517     1.0000 0.04510  0.96630  0.96880  Biso   1.000  C
  C518     1.0000 0.00500  0.95310  0.02520  Biso   1.000  C
  O122     1.0000 0.11680  0.98090  0.97906  Biso   1.000  O
  O123     1.0000 0.08750  0.97000  0.02388  Biso   1.000  O
  C519     1.0000 0.50600  0.67060  0.12800  Biso   1.000  C
  O124     1.0000 0.50840  0.65670  0.10870  Biso   1.000  O
  O125     1.0000 0.54400  0.66210  0.14280  Biso   1.000  O
  C520     1.0000 0.71400  0.62390  0.01930  Biso   1.000  C
  O126     1.0000 0.67310  0.62450  0.06950  Biso   1.000  O
  C521     1.0000 0.44900  0.70070  0.13350  Biso   1.000  C
  C522     1.0000 0.31800  0.05730  0.11040  Biso   1.000  C
  O127     1.0000 0.45600  0.46380  0.97240  Biso   1.000  O
  O128     1.0000 0.43350  0.45400  0.01570  Biso   1.000  O
  C523     1.0000 0.71140  0.29858  0.12368  Biso   1.000  C
  C524     1.0000 0.72380  0.28010  0.10467  Biso   1.000  C
  H289     1.0000 0.68930  0.28540  0.09210  Biso   1.000  H
  C525     1.0000 0.78800  0.25360  0.10449  Biso   1.000  C
  H290     1.0000 0.79630  0.24120  0.09180  Biso   1.000  H
  C526     1.0000 0.83960  0.24570  0.12330  Biso   1.000  C
  C527     1.0000 0.82720  0.26420  0.14233  Biso   1.000  C
  H291     1.0000 0.86170  0.25880  0.15490  Biso   1.000  H
  C528     1.0000 0.76300  0.29060  0.14251  Biso   1.000  C
  H292     1.0000 0.75470  0.30300  0.15520  Biso   1.000  H
  Cu19     1.0000 0.41211  0.49070  0.99599  Biso   1.000  Cu
  C529     1.0000 0.71830  0.43010  0.92398  Biso   1.000  C
  C530     1.0000 0.80530  0.44206  0.91582  Biso   1.000  C
  H293     1.0000 0.83120  0.46160  0.92130  Biso   1.000  H
  C531     1.0000 0.85360  0.42490  0.89939  Biso   1.000  C
  H294     1.0000 0.91180  0.43290  0.89390  Biso   1.000  H
  C532     1.0000 0.81480  0.39570  0.89112  Biso   1.000  C
  C533     1.0000 0.72780  0.38373  0.89929  Biso   1.000  C
  H295     1.0000 0.70180  0.36420  0.89380  Biso   1.000  H
  C534     1.0000 0.67950  0.40090  0.91572  Biso   1.000  C
  H296     1.0000 0.62120  0.39290  0.92120  Biso   1.000  H
  C535     1.0000 0.61630  0.34739  0.10539  Biso   1.000  C
  C536     1.0000 0.52890  0.36350  0.10184  Biso   1.000  C
  H297     1.0000 0.47600  0.35900  0.11070  Biso   1.000  H
  C537     1.0000 0.52070  0.38650  0.08498  Biso   1.000  C
  H298     1.0000 0.46230  0.39730  0.08260  Biso   1.000  H
  C538     1.0000 0.59980  0.39330  0.07166  Biso   1.000  C
  C539     1.0000 0.68720  0.37720  0.07521  Biso   1.000  C
  H299     1.0000 0.74010  0.38170  0.06630  Biso   1.000  H
  C540     1.0000 0.69540  0.35420  0.09207  Biso   1.000  C
  H300     1.0000 0.75380  0.34340  0.09440  Biso   1.000  H
  C541     1.0000 0.58770  0.44610  0.94840  Biso   1.000  C
  H301     1.0000 0.54580  0.43310  0.94020  Biso   1.000  H
  C542     1.0000 0.58960  0.41780  0.05360  Biso   1.000  C
  H302     1.0000 0.64650  0.42810  0.04920  Biso   1.000  H
  C543     1.0000 0.67720  0.44710  0.94290  Biso   1.000  C
  H303     1.0000 0.71890  0.45960  0.95160  Biso   1.000  H
  C544     1.0000 0.89800  0.21590  0.12260  Biso   1.000  C
  C545     1.0000 0.51030  0.42700  0.04290  Biso   1.000  C
  H304     1.0000 0.45300  0.41640  0.04660  Biso   1.000  H
  C546     1.0000 0.54510  0.46630  0.96880  Biso   1.000  C
  C547     1.0000 0.50500  0.45310  0.02520  Biso   1.000  C
  O129     1.0000 0.61680  0.48090  0.97906  Biso   1.000  O
  O130     1.0000 0.58750  0.47000  0.02388  Biso   1.000  O
  C548     1.0000 0.00600  0.17060  0.12800  Biso   1.000  C
  O131     1.0000 0.00840  0.15670  0.10870  Biso   1.000  O
  O132     1.0000 0.04400  0.16210  0.14280  Biso   1.000  O
  C549     1.0000 0.21400  0.12390  0.01930  Biso   1.000  C
  O133     1.0000 0.17310  0.12450  0.06950  Biso   1.000  O
  C550     1.0000 0.94900  0.20070  0.13350  Biso   1.000  C
  C551     1.0000 0.81800  0.55730  0.11040  Biso   1.000  C
  O134     1.0000 0.45600  0.96380  0.47240  Biso   1.000  O
  O135     1.0000 0.43350  0.95400  0.51570  Biso   1.000  O
  C552     1.0000 0.71140  0.79858  0.62368  Biso   1.000  C
  C553     1.0000 0.72380  0.78010  0.60467  Biso   1.000  C
  H305     1.0000 0.68930  0.78540  0.59210  Biso   1.000  H
  C554     1.0000 0.78800  0.75360  0.60449  Biso   1.000  C
  H306     1.0000 0.79630  0.74120  0.59180  Biso   1.000  H
  C555     1.0000 0.83960  0.74570  0.62330  Biso   1.000  C
  C556     1.0000 0.82720  0.76420  0.64233  Biso   1.000  C
  H307     1.0000 0.86170  0.75880  0.65490  Biso   1.000  H
  C557     1.0000 0.76300  0.79060  0.64251  Biso   1.000  C
  H308     1.0000 0.75470  0.80300  0.65520  Biso   1.000  H
  Cu20     1.0000 0.41211  0.99070  0.49599  Biso   1.000  Cu
  C558     1.0000 0.71830  0.93010  0.42398  Biso   1.000  C
  C559     1.0000 0.80530  0.94206  0.41582  Biso   1.000  C
  H309     1.0000 0.83120  0.96160  0.42130  Biso   1.000  H
  C560     1.0000 0.85360  0.92490  0.39939  Biso   1.000  C
  H310     1.0000 0.91180  0.93290  0.39390  Biso   1.000  H
  C561     1.0000 0.81480  0.89570  0.39112  Biso   1.000  C
  C562     1.0000 0.72780  0.88373  0.39929  Biso   1.000  C
  H311     1.0000 0.70180  0.86420  0.39380  Biso   1.000  H
  C563     1.0000 0.67950  0.90090  0.41572  Biso   1.000  C
  H312     1.0000 0.62120  0.89290  0.42120  Biso   1.000  H
  C564     1.0000 0.61630  0.84739  0.60539  Biso   1.000  C
  C565     1.0000 0.52890  0.86350  0.60184  Biso   1.000  C
  H313     1.0000 0.47600  0.85900  0.61070  Biso   1.000  H
  C566     1.0000 0.52070  0.88650  0.58498  Biso   1.000  C
  H314     1.0000 0.46230  0.89730  0.58260  Biso   1.000  H
  C567     1.0000 0.59980  0.89330  0.57166  Biso   1.000  C
  C568     1.0000 0.68720  0.87720  0.57521  Biso   1.000  C
  H315     1.0000 0.74010  0.88170  0.56630  Biso   1.000  H
  C569     1.0000 0.69540  0.85420  0.59207  Biso   1.000  C
  H316     1.0000 0.75380  0.84340  0.59440  Biso   1.000  H
  C570     1.0000 0.58770  0.94610  0.44840  Biso   1.000  C
  H317     1.0000 0.54580  0.93310  0.44020  Biso   1.000  H
  C571     1.0000 0.58960  0.91780  0.55360  Biso   1.000  C
  H318     1.0000 0.64650  0.92810  0.54920  Biso   1.000  H
  C572     1.0000 0.67720  0.94710  0.44290  Biso   1.000  C
  H319     1.0000 0.71890  0.95960  0.45160  Biso   1.000  H
  C573     1.0000 0.89800  0.71590  0.62260  Biso   1.000  C
  C574     1.0000 0.51030  0.92700  0.54290  Biso   1.000  C
  H320     1.0000 0.45300  0.91640  0.54660  Biso   1.000  H
  C575     1.0000 0.54510  0.96630  0.46880  Biso   1.000  C
  C576     1.0000 0.50500  0.95310  0.52520  Biso   1.000  C
  O136     1.0000 0.61680  0.98090  0.47906  Biso   1.000  O
  O137     1.0000 0.58750  0.97000  0.52388  Biso   1.000  O
  C577     1.0000 0.00600  0.67060  0.62800  Biso   1.000  C
  O138     1.0000 0.00840  0.65670  0.60870  Biso   1.000  O
  O139     1.0000 0.04400  0.66210  0.64280  Biso   1.000  O
  C578     1.0000 0.21400  0.62390  0.51930  Biso   1.000  C
  O140     1.0000 0.17310  0.62450  0.56950  Biso   1.000  O
  C579     1.0000 0.94900  0.70070  0.63350  Biso   1.000  C
  C580     1.0000 0.81800  0.05730  0.61040  Biso   1.000  C
  O141     1.0000 0.29400  0.78620  0.47240  Biso   1.000  O
  O142     1.0000 0.31650  0.79600  0.51570  Biso   1.000  O
  C581     1.0000 0.03860  0.95142  0.62368  Biso   1.000  C
  C582     1.0000 0.02620  0.96990  0.60467  Biso   1.000  C
  H321     1.0000 0.06070  0.96460  0.59210  Biso   1.000  H
  C583     1.0000 0.96200  0.99640  0.60449  Biso   1.000  C
  H322     1.0000 0.95370  0.00880  0.59180  Biso   1.000  H
  C584     1.0000 0.91040  0.00430  0.62330  Biso   1.000  C
  C585     1.0000 0.92280  0.98580  0.64233  Biso   1.000  C
  H323     1.0000 0.88830  0.99120  0.65490  Biso   1.000  H
  C586     1.0000 0.98700  0.95940  0.64251  Biso   1.000  C
  H324     1.0000 0.99530  0.94700  0.65520  Biso   1.000  H
  Cu21     1.0000 0.33789  0.75930  0.49599  Biso   1.000  Cu
  C587     1.0000 0.03170  0.81990  0.42398  Biso   1.000  C
  C588     1.0000 0.94470  0.80794  0.41582  Biso   1.000  C
  H325     1.0000 0.91880  0.78840  0.42130  Biso   1.000  H
  C589     1.0000 0.89640  0.82510  0.39939  Biso   1.000  C
  H326     1.0000 0.83820  0.81710  0.39390  Biso   1.000  H
  C590     1.0000 0.93520  0.85430  0.39112  Biso   1.000  C
  C591     1.0000 0.02220  0.86627  0.39929  Biso   1.000  C
  H327     1.0000 0.04820  0.88580  0.39380  Biso   1.000  H
  C592     1.0000 0.07050  0.84910  0.41572  Biso   1.000  C
  H328     1.0000 0.12880  0.85710  0.42120  Biso   1.000  H
  C593     1.0000 0.13370  0.90261  0.60539  Biso   1.000  C
  C594     1.0000 0.22110  0.88650  0.60184  Biso   1.000  C
  H329     1.0000 0.27400  0.89100  0.61070  Biso   1.000  H
  C595     1.0000 0.22930  0.86350  0.58498  Biso   1.000  C
  H330     1.0000 0.28770  0.85270  0.58260  Biso   1.000  H
  C596     1.0000 0.15020  0.85670  0.57166  Biso   1.000  C
  C597     1.0000 0.06280  0.87280  0.57521  Biso   1.000  C
  H331     1.0000 0.00990  0.86830  0.56630  Biso   1.000  H
  C598     1.0000 0.05460  0.89580  0.59207  Biso   1.000  C
  H332     1.0000 0.99620  0.90660  0.59440  Biso   1.000  H
  C599     1.0000 0.16230  0.80390  0.44840  Biso   1.000  C
  H333     1.0000 0.20420  0.81690  0.44020  Biso   1.000  H
  C600     1.0000 0.16040  0.83220  0.55360  Biso   1.000  C
  H334     1.0000 0.10350  0.82190  0.54920  Biso   1.000  H
  C601     1.0000 0.07280  0.80290  0.44290  Biso   1.000  C
  H335     1.0000 0.03110  0.79040  0.45160  Biso   1.000  H
  C602     1.0000 0.85200  0.03410  0.62260  Biso   1.000  C
  C603     1.0000 0.23970  0.82300  0.54290  Biso   1.000  C
  H336     1.0000 0.29700  0.83360  0.54660  Biso   1.000  H
  C604     1.0000 0.20490  0.78370  0.46880  Biso   1.000  C
  C605     1.0000 0.24500  0.79690  0.52520  Biso   1.000  C
  O143     1.0000 0.13320  0.76910  0.47906  Biso   1.000  O
  O144     1.0000 0.16250  0.78000  0.52388  Biso   1.000  O
  C606     1.0000 0.74400  0.07940  0.62800  Biso   1.000  C
  O145     1.0000 0.74160  0.09330  0.60870  Biso   1.000  O
  O146     1.0000 0.70600  0.08790  0.64280  Biso   1.000  O
  C607     1.0000 0.53600  0.12610  0.51930  Biso   1.000  C
  O147     1.0000 0.57690  0.12550  0.56950  Biso   1.000  O
  C608     1.0000 0.80100  0.04930  0.63350  Biso   1.000  C
  C609     1.0000 0.93200  0.69270  0.61040  Biso   1.000  C
  O148     1.0000 0.29400  0.28620  0.97240  Biso   1.000  O
  O149     1.0000 0.31650  0.29600  0.01570  Biso   1.000  O
  C610     1.0000 0.03860  0.45142  0.12368  Biso   1.000  C
  C611     1.0000 0.02620  0.46990  0.10467  Biso   1.000  C
  H337     1.0000 0.06070  0.46460  0.09210  Biso   1.000  H
  C612     1.0000 0.96200  0.49640  0.10449  Biso   1.000  C
  H338     1.0000 0.95370  0.50880  0.09180  Biso   1.000  H
  C613     1.0000 0.91040  0.50430  0.12330  Biso   1.000  C
  C614     1.0000 0.92280  0.48580  0.14233  Biso   1.000  C
  H339     1.0000 0.88830  0.49120  0.15490  Biso   1.000  H
  C615     1.0000 0.98700  0.45940  0.14251  Biso   1.000  C
  H340     1.0000 0.99530  0.44700  0.15520  Biso   1.000  H
  Cu22     1.0000 0.33789  0.25930  0.99599  Biso   1.000  Cu
  C616     1.0000 0.03170  0.31990  0.92398  Biso   1.000  C
  C617     1.0000 0.94470  0.30794  0.91582  Biso   1.000  C
  H341     1.0000 0.91880  0.28840  0.92130  Biso   1.000  H
  C618     1.0000 0.89640  0.32510  0.89939  Biso   1.000  C
  H342     1.0000 0.83820  0.31710  0.89390  Biso   1.000  H
  C619     1.0000 0.93520  0.35430  0.89112  Biso   1.000  C
  C620     1.0000 0.02220  0.36627  0.89929  Biso   1.000  C
  H343     1.0000 0.04820  0.38580  0.89380  Biso   1.000  H
  C621     1.0000 0.07050  0.34910  0.91572  Biso   1.000  C
  H344     1.0000 0.12880  0.35710  0.92120  Biso   1.000  H
  C622     1.0000 0.13370  0.40261  0.10539  Biso   1.000  C
  C623     1.0000 0.22110  0.38650  0.10184  Biso   1.000  C
  H345     1.0000 0.27400  0.39100  0.11070  Biso   1.000  H
  C624     1.0000 0.22930  0.36350  0.08498  Biso   1.000  C
  H346     1.0000 0.28770  0.35270  0.08260  Biso   1.000  H
  C625     1.0000 0.15020  0.35670  0.07166  Biso   1.000  C
  C626     1.0000 0.06280  0.37280  0.07521  Biso   1.000  C
  H347     1.0000 0.00990  0.36830  0.06630  Biso   1.000  H
  C627     1.0000 0.05460  0.39580  0.09207  Biso   1.000  C
  H348     1.0000 0.99620  0.40660  0.09440  Biso   1.000  H
  C628     1.0000 0.16230  0.30390  0.94840  Biso   1.000  C
  H349     1.0000 0.20420  0.31690  0.94020  Biso   1.000  H
  C629     1.0000 0.16040  0.33220  0.05360  Biso   1.000  C
  H350     1.0000 0.10350  0.32190  0.04920  Biso   1.000  H
  C630     1.0000 0.07280  0.30290  0.94290  Biso   1.000  C
  H351     1.0000 0.03110  0.29040  0.95160  Biso   1.000  H
  C631     1.0000 0.85200  0.53410  0.12260  Biso   1.000  C
  C632     1.0000 0.23970  0.32300  0.04290  Biso   1.000  C
  H352     1.0000 0.29700  0.33360  0.04660  Biso   1.000  H
  C633     1.0000 0.20490  0.28370  0.96880  Biso   1.000  C
  C634     1.0000 0.24500  0.29690  0.02520  Biso   1.000  C
  O150     1.0000 0.13320  0.26910  0.97906  Biso   1.000  O
  O151     1.0000 0.16250  0.28000  0.02388  Biso   1.000  O
  C635     1.0000 0.74400  0.57940  0.12800  Biso   1.000  C
  O152     1.0000 0.74160  0.59330  0.10870  Biso   1.000  O
  O153     1.0000 0.70600  0.58790  0.14280  Biso   1.000  O
  C636     1.0000 0.53600  0.62610  0.01930  Biso   1.000  C
  O154     1.0000 0.57690  0.62550  0.06950  Biso   1.000  O
  C637     1.0000 0.80100  0.54930  0.13350  Biso   1.000  C
  C638     1.0000 0.93200  0.19270  0.11040  Biso   1.000  C
  O155     1.0000 0.79400  0.78620  0.97240  Biso   1.000  O
  O156     1.0000 0.81650  0.79600  0.01570  Biso   1.000  O
  C639     1.0000 0.53860  0.95142  0.12368  Biso   1.000  C
  C640     1.0000 0.52620  0.96990  0.10467  Biso   1.000  C
  H353     1.0000 0.56070  0.96460  0.09210  Biso   1.000  H
  C641     1.0000 0.46200  0.99640  0.10449  Biso   1.000  C
  H354     1.0000 0.45370  0.00880  0.09180  Biso   1.000  H
  C642     1.0000 0.41040  0.00430  0.12330  Biso   1.000  C
  C643     1.0000 0.42280  0.98580  0.14233  Biso   1.000  C
  H355     1.0000 0.38830  0.99120  0.15490  Biso   1.000  H
  C644     1.0000 0.48700  0.95940  0.14251  Biso   1.000  C
  H356     1.0000 0.49530  0.94700  0.15520  Biso   1.000  H
  Cu23     1.0000 0.83789  0.75930  0.99599  Biso   1.000  Cu
  C645     1.0000 0.53170  0.81990  0.92398  Biso   1.000  C
  C646     1.0000 0.44470  0.80794  0.91582  Biso   1.000  C
  H357     1.0000 0.41880  0.78840  0.92130  Biso   1.000  H
  C647     1.0000 0.39640  0.82510  0.89939  Biso   1.000  C
  H358     1.0000 0.33820  0.81710  0.89390  Biso   1.000  H
  C648     1.0000 0.43520  0.85430  0.89112  Biso   1.000  C
  C649     1.0000 0.52220  0.86627  0.89929  Biso   1.000  C
  H359     1.0000 0.54820  0.88580  0.89380  Biso   1.000  H
  C650     1.0000 0.57050  0.84910  0.91572  Biso   1.000  C
  H360     1.0000 0.62880  0.85710  0.92120  Biso   1.000  H
  C651     1.0000 0.63370  0.90261  0.10539  Biso   1.000  C
  C652     1.0000 0.72110  0.88650  0.10184  Biso   1.000  C
  H361     1.0000 0.77400  0.89100  0.11070  Biso   1.000  H
  C653     1.0000 0.72930  0.86350  0.08498  Biso   1.000  C
  H362     1.0000 0.78770  0.85270  0.08260  Biso   1.000  H
  C654     1.0000 0.65020  0.85670  0.07166  Biso   1.000  C
  C655     1.0000 0.56280  0.87280  0.07521  Biso   1.000  C
  H363     1.0000 0.50990  0.86830  0.06630  Biso   1.000  H
  C656     1.0000 0.55460  0.89580  0.09207  Biso   1.000  C
  H364     1.0000 0.49620  0.90660  0.09440  Biso   1.000  H
  C657     1.0000 0.66230  0.80390  0.94840  Biso   1.000  C
  H365     1.0000 0.70420  0.81690  0.94020  Biso   1.000  H
  C658     1.0000 0.66040  0.83220  0.05360  Biso   1.000  C
  H366     1.0000 0.60350  0.82190  0.04920  Biso   1.000  H
  C659     1.0000 0.57280  0.80290  0.94290  Biso   1.000  C
  H367     1.0000 0.53110  0.79040  0.95160  Biso   1.000  H
  C660     1.0000 0.35200  0.03410  0.12260  Biso   1.000  C
  C661     1.0000 0.73970  0.82300  0.04290  Biso   1.000  C
  H368     1.0000 0.79700  0.83360  0.04660  Biso   1.000  H
  C662     1.0000 0.70490  0.78370  0.96880  Biso   1.000  C
  C663     1.0000 0.74500  0.79690  0.02520  Biso   1.000  C
  O157     1.0000 0.63320  0.76910  0.97906  Biso   1.000  O
  O158     1.0000 0.66250  0.78000  0.02388  Biso   1.000  O
  C664     1.0000 0.24400  0.07940  0.12800  Biso   1.000  C
  O159     1.0000 0.24160  0.09330  0.10870  Biso   1.000  O
  O160     1.0000 0.20600  0.08790  0.14280  Biso   1.000  O
  C665     1.0000 0.03600  0.12610  0.01930  Biso   1.000  C
  O161     1.0000 0.07690  0.12550  0.06950  Biso   1.000  O
  C666     1.0000 0.30100  0.04930  0.13350  Biso   1.000  C
  C667     1.0000 0.43200  0.69270  0.11040  Biso   1.000  C
  O162     1.0000 0.79400  0.28620  0.47240  Biso   1.000  O
  O163     1.0000 0.81650  0.29600  0.51570  Biso   1.000  O
  C668     1.0000 0.53860  0.45142  0.62368  Biso   1.000  C
  C669     1.0000 0.52620  0.46990  0.60467  Biso   1.000  C
  H369     1.0000 0.56070  0.46460  0.59210  Biso   1.000  H
  C670     1.0000 0.46200  0.49640  0.60449  Biso   1.000  C
  H370     1.0000 0.45370  0.50880  0.59180  Biso   1.000  H
  C671     1.0000 0.41040  0.50430  0.62330  Biso   1.000  C
  C672     1.0000 0.42280  0.48580  0.64233  Biso   1.000  C
  H371     1.0000 0.38830  0.49120  0.65490  Biso   1.000  H
  C673     1.0000 0.48700  0.45940  0.64251  Biso   1.000  C
  H372     1.0000 0.49530  0.44700  0.65520  Biso   1.000  H
  Cu24     1.0000 0.83789  0.25930  0.49599  Biso   1.000  Cu
  C674     1.0000 0.53170  0.31990  0.42398  Biso   1.000  C
  C675     1.0000 0.44470  0.30794  0.41582  Biso   1.000  C
  H373     1.0000 0.41880  0.28840  0.42130  Biso   1.000  H
  C676     1.0000 0.39640  0.32510  0.39939  Biso   1.000  C
  H374     1.0000 0.33820  0.31710  0.39390  Biso   1.000  H
  C677     1.0000 0.43520  0.35430  0.39112  Biso   1.000  C
  C678     1.0000 0.52220  0.36627  0.39929  Biso   1.000  C
  H375     1.0000 0.54820  0.38580  0.39380  Biso   1.000  H
  C679     1.0000 0.57050  0.34910  0.41572  Biso   1.000  C
  H376     1.0000 0.62880  0.35710  0.42120  Biso   1.000  H
  C680     1.0000 0.63370  0.40261  0.60539  Biso   1.000  C
  C681     1.0000 0.72110  0.38650  0.60184  Biso   1.000  C
  H377     1.0000 0.77400  0.39100  0.61070  Biso   1.000  H
  C682     1.0000 0.72930  0.36350  0.58498  Biso   1.000  C
  H378     1.0000 0.78770  0.35270  0.58260  Biso   1.000  H
  C683     1.0000 0.65020  0.35670  0.57166  Biso   1.000  C
  C684     1.0000 0.56280  0.37280  0.57521  Biso   1.000  C
  H379     1.0000 0.50990  0.36830  0.56630  Biso   1.000  H
  C685     1.0000 0.55460  0.39580  0.59207  Biso   1.000  C
  H380     1.0000 0.49620  0.40660  0.59440  Biso   1.000  H
  C686     1.0000 0.66230  0.30390  0.44840  Biso   1.000  C
  H381     1.0000 0.70420  0.31690  0.44020  Biso   1.000  H
  C687     1.0000 0.66040  0.33220  0.55360  Biso   1.000  C
  H382     1.0000 0.60350  0.32190  0.54920  Biso   1.000  H
  C688     1.0000 0.57280  0.30290  0.44290  Biso   1.000  C
  H383     1.0000 0.53110  0.29040  0.45160  Biso   1.000  H
  C689     1.0000 0.35200  0.53410  0.62260  Biso   1.000  C
  C690     1.0000 0.73970  0.32300  0.54290  Biso   1.000  C
  H384     1.0000 0.79700  0.33360  0.54660  Biso   1.000  H
  C691     1.0000 0.70490  0.28370  0.46880  Biso   1.000  C
  C692     1.0000 0.74500  0.29690  0.52520  Biso   1.000  C
  O164     1.0000 0.63320  0.26910  0.47906  Biso   1.000  O
  O165     1.0000 0.66250  0.28000  0.52388  Biso   1.000  O
  C693     1.0000 0.24400  0.57940  0.62800  Biso   1.000  C
  O166     1.0000 0.24160  0.59330  0.60870  Biso   1.000  O
  O167     1.0000 0.20600  0.58790  0.64280  Biso   1.000  O
  C694     1.0000 0.03600  0.62610  0.51930  Biso   1.000  C
  O168     1.0000 0.07690  0.62550  0.56950  Biso   1.000  O
  C695     1.0000 0.30100  0.54930  0.63350  Biso   1.000  C
  C696     1.0000 0.43200  0.19270  0.61040  Biso   1.000  C
  O169     1.0000 0.29400  0.46380  0.77760  Biso   1.000  O
  O170     1.0000 0.31650  0.45400  0.73430  Biso   1.000  O
  C697     1.0000 0.03860  0.29858  0.62632  Biso   1.000  C
  C698     1.0000 0.02620  0.28010  0.64533  Biso   1.000  C
  H385     1.0000 0.06070  0.28540  0.65790  Biso   1.000  H
  C699     1.0000 0.96200  0.25360  0.64551  Biso   1.000  C
  H386     1.0000 0.95370  0.24120  0.65820  Biso   1.000  H
  C700     1.0000 0.91040  0.24570  0.62670  Biso   1.000  C
  C701     1.0000 0.92280  0.26420  0.60767  Biso   1.000  C
  H387     1.0000 0.88830  0.25880  0.59510  Biso   1.000  H
  C702     1.0000 0.98700  0.29060  0.60749  Biso   1.000  C
  H388     1.0000 0.99530  0.30300  0.59480  Biso   1.000  H
  Cu25     1.0000 0.33789  0.49070  0.75401  Biso   1.000  Cu
  C703     1.0000 0.03170  0.43010  0.82602  Biso   1.000  C
  C704     1.0000 0.94470  0.44206  0.83418  Biso   1.000  C
  H389     1.0000 0.91880  0.46160  0.82870  Biso   1.000  H
  C705     1.0000 0.89640  0.42490  0.85061  Biso   1.000  C
  H390     1.0000 0.83820  0.43290  0.85610  Biso   1.000  H
  C706     1.0000 0.93520  0.39570  0.85888  Biso   1.000  C
  C707     1.0000 0.02220  0.38373  0.85071  Biso   1.000  C
  H391     1.0000 0.04820  0.36420  0.85620  Biso   1.000  H
  C708     1.0000 0.07050  0.40090  0.83428  Biso   1.000  C
  H392     1.0000 0.12880  0.39290  0.82880  Biso   1.000  H
  C709     1.0000 0.13370  0.34739  0.64461  Biso   1.000  C
  C710     1.0000 0.22110  0.36350  0.64816  Biso   1.000  C
  H393     1.0000 0.27400  0.35900  0.63930  Biso   1.000  H
  C711     1.0000 0.22930  0.38650  0.66502  Biso   1.000  C
  H394     1.0000 0.28770  0.39730  0.66740  Biso   1.000  H
  C712     1.0000 0.15020  0.39330  0.67834  Biso   1.000  C
  C713     1.0000 0.06280  0.37720  0.67479  Biso   1.000  C
  H395     1.0000 0.00990  0.38170  0.68370  Biso   1.000  H
  C714     1.0000 0.05460  0.35420  0.65793  Biso   1.000  C
  H396     1.0000 0.99620  0.34340  0.65560  Biso   1.000  H
  C715     1.0000 0.16230  0.44610  0.80160  Biso   1.000  C
  H397     1.0000 0.20420  0.43310  0.80980  Biso   1.000  H
  C716     1.0000 0.16040  0.41780  0.69640  Biso   1.000  C
  H398     1.0000 0.10350  0.42810  0.70080  Biso   1.000  H
  C717     1.0000 0.07280  0.44710  0.80710  Biso   1.000  C
  H399     1.0000 0.03110  0.45960  0.79840  Biso   1.000  H
  C718     1.0000 0.85200  0.21590  0.62740  Biso   1.000  C
  C719     1.0000 0.23970  0.42700  0.70710  Biso   1.000  C
  H400     1.0000 0.29700  0.41640  0.70340  Biso   1.000  H
  C720     1.0000 0.20490  0.46630  0.78120  Biso   1.000  C
  C721     1.0000 0.24500  0.45310  0.72480  Biso   1.000  C
  O171     1.0000 0.13320  0.48090  0.77094  Biso   1.000  O
  O172     1.0000 0.16250  0.47000  0.72612  Biso   1.000  O
  C722     1.0000 0.74400  0.17060  0.62200  Biso   1.000  C
  O173     1.0000 0.74160  0.15670  0.64130  Biso   1.000  O
  O174     1.0000 0.70600  0.16210  0.60720  Biso   1.000  O
  C723     1.0000 0.53600  0.12390  0.73070  Biso   1.000  C
  O175     1.0000 0.57690  0.12450  0.68050  Biso   1.000  O
  C724     1.0000 0.80100  0.20070  0.61650  Biso   1.000  C
  C725     1.0000 0.93200  0.55730  0.63960  Biso   1.000  C
  O176     1.0000 0.29400  0.96380  0.27760  Biso   1.000  O
  O177     1.0000 0.31650  0.95400  0.23430  Biso   1.000  O
  C726     1.0000 0.03860  0.79858  0.12632  Biso   1.000  C
  C727     1.0000 0.02620  0.78010  0.14533  Biso   1.000  C
  H401     1.0000 0.06070  0.78540  0.15790  Biso   1.000  H
  C728     1.0000 0.96200  0.75360  0.14551  Biso   1.000  C
  H402     1.0000 0.95370  0.74120  0.15820  Biso   1.000  H
  C729     1.0000 0.91040  0.74570  0.12670  Biso   1.000  C
  C730     1.0000 0.92280  0.76420  0.10767  Biso   1.000  C
  H403     1.0000 0.88830  0.75880  0.09510  Biso   1.000  H
  C731     1.0000 0.98700  0.79060  0.10749  Biso   1.000  C
  H404     1.0000 0.99530  0.80300  0.09480  Biso   1.000  H
  Cu26     1.0000 0.33789  0.99070  0.25401  Biso   1.000  Cu
  C732     1.0000 0.03170  0.93010  0.32602  Biso   1.000  C
  C733     1.0000 0.94470  0.94206  0.33418  Biso   1.000  C
  H405     1.0000 0.91880  0.96160  0.32870  Biso   1.000  H
  C734     1.0000 0.89640  0.92490  0.35061  Biso   1.000  C
  H406     1.0000 0.83820  0.93290  0.35610  Biso   1.000  H
  C735     1.0000 0.93520  0.89570  0.35888  Biso   1.000  C
  C736     1.0000 0.02220  0.88373  0.35071  Biso   1.000  C
  H407     1.0000 0.04820  0.86420  0.35620  Biso   1.000  H
  C737     1.0000 0.07050  0.90090  0.33428  Biso   1.000  C
  H408     1.0000 0.12880  0.89290  0.32880  Biso   1.000  H
  C738     1.0000 0.13370  0.84739  0.14461  Biso   1.000  C
  C739     1.0000 0.22110  0.86350  0.14816  Biso   1.000  C
  H409     1.0000 0.27400  0.85900  0.13930  Biso   1.000  H
  C740     1.0000 0.22930  0.88650  0.16502  Biso   1.000  C
  H410     1.0000 0.28770  0.89730  0.16740  Biso   1.000  H
  C741     1.0000 0.15020  0.89330  0.17834  Biso   1.000  C
  C742     1.0000 0.06280  0.87720  0.17479  Biso   1.000  C
  H411     1.0000 0.00990  0.88170  0.18370  Biso   1.000  H
  C743     1.0000 0.05460  0.85420  0.15793  Biso   1.000  C
  H412     1.0000 0.99620  0.84340  0.15560  Biso   1.000  H
  C744     1.0000 0.16230  0.94610  0.30160  Biso   1.000  C
  H413     1.0000 0.20420  0.93310  0.30980  Biso   1.000  H
  C745     1.0000 0.16040  0.91780  0.19640  Biso   1.000  C
  H414     1.0000 0.10350  0.92810  0.20080  Biso   1.000  H
  C746     1.0000 0.07280  0.94710  0.30710  Biso   1.000  C
  H415     1.0000 0.03110  0.95960  0.29840  Biso   1.000  H
  C747     1.0000 0.85200  0.71590  0.12740  Biso   1.000  C
  C748     1.0000 0.23970  0.92700  0.20710  Biso   1.000  C
  H416     1.0000 0.29700  0.91640  0.20340  Biso   1.000  H
  C749     1.0000 0.20490  0.96630  0.28120  Biso   1.000  C
  C750     1.0000 0.24500  0.95310  0.22480  Biso   1.000  C
  O178     1.0000 0.13320  0.98090  0.27094  Biso   1.000  O
  O179     1.0000 0.16250  0.97000  0.22612  Biso   1.000  O
  C751     1.0000 0.74400  0.67060  0.12200  Biso   1.000  C
  O180     1.0000 0.74160  0.65670  0.14130  Biso   1.000  O
  O181     1.0000 0.70600  0.66210  0.10720  Biso   1.000  O
  C752     1.0000 0.53600  0.62390  0.23070  Biso   1.000  C
  O182     1.0000 0.57690  0.62450  0.18050  Biso   1.000  O
  C753     1.0000 0.80100  0.70070  0.11650  Biso   1.000  C
  C754     1.0000 0.93200  0.05730  0.13960  Biso   1.000  C
  O183     1.0000 0.79400  0.46380  0.27760  Biso   1.000  O
  O184     1.0000 0.81650  0.45400  0.23430  Biso   1.000  O
  C755     1.0000 0.53860  0.29858  0.12632  Biso   1.000  C
  C756     1.0000 0.52620  0.28010  0.14533  Biso   1.000  C
  H417     1.0000 0.56070  0.28540  0.15790  Biso   1.000  H
  C757     1.0000 0.46200  0.25360  0.14551  Biso   1.000  C
  H418     1.0000 0.45370  0.24120  0.15820  Biso   1.000  H
  C758     1.0000 0.41040  0.24570  0.12670  Biso   1.000  C
  C759     1.0000 0.42280  0.26420  0.10767  Biso   1.000  C
  H419     1.0000 0.38830  0.25880  0.09510  Biso   1.000  H
  C760     1.0000 0.48700  0.29060  0.10749  Biso   1.000  C
  H420     1.0000 0.49530  0.30300  0.09480  Biso   1.000  H
  Cu27     1.0000 0.83789  0.49070  0.25401  Biso   1.000  Cu
  C761     1.0000 0.53170  0.43010  0.32602  Biso   1.000  C
  C762     1.0000 0.44470  0.44206  0.33418  Biso   1.000  C
  H421     1.0000 0.41880  0.46160  0.32870  Biso   1.000  H
  C763     1.0000 0.39640  0.42490  0.35061  Biso   1.000  C
  H422     1.0000 0.33820  0.43290  0.35610  Biso   1.000  H
  C764     1.0000 0.43520  0.39570  0.35888  Biso   1.000  C
  C765     1.0000 0.52220  0.38373  0.35071  Biso   1.000  C
  H423     1.0000 0.54820  0.36420  0.35620  Biso   1.000  H
  C766     1.0000 0.57050  0.40090  0.33428  Biso   1.000  C
  H424     1.0000 0.62880  0.39290  0.32880  Biso   1.000  H
  C767     1.0000 0.63370  0.34739  0.14461  Biso   1.000  C
  C768     1.0000 0.72110  0.36350  0.14816  Biso   1.000  C
  H425     1.0000 0.77400  0.35900  0.13930  Biso   1.000  H
  C769     1.0000 0.72930  0.38650  0.16502  Biso   1.000  C
  H426     1.0000 0.78770  0.39730  0.16740  Biso   1.000  H
  C770     1.0000 0.65020  0.39330  0.17834  Biso   1.000  C
  C771     1.0000 0.56280  0.37720  0.17479  Biso   1.000  C
  H427     1.0000 0.50990  0.38170  0.18370  Biso   1.000  H
  C772     1.0000 0.55460  0.35420  0.15793  Biso   1.000  C
  H428     1.0000 0.49620  0.34340  0.15560  Biso   1.000  H
  C773     1.0000 0.66230  0.44610  0.30160  Biso   1.000  C
  H429     1.0000 0.70420  0.43310  0.30980  Biso   1.000  H
  C774     1.0000 0.66040  0.41780  0.19640  Biso   1.000  C
  H430     1.0000 0.60350  0.42810  0.20080  Biso   1.000  H
  C775     1.0000 0.57280  0.44710  0.30710  Biso   1.000  C
  H431     1.0000 0.53110  0.45960  0.29840  Biso   1.000  H
  C776     1.0000 0.35200  0.21590  0.12740  Biso   1.000  C
  C777     1.0000 0.73970  0.42700  0.20710  Biso   1.000  C
  H432     1.0000 0.79700  0.41640  0.20340  Biso   1.000  H
  C778     1.0000 0.70490  0.46630  0.28120  Biso   1.000  C
  C779     1.0000 0.74500  0.45310  0.22480  Biso   1.000  C
  O185     1.0000 0.63320  0.48090  0.27094  Biso   1.000  O
  O186     1.0000 0.66250  0.47000  0.22612  Biso   1.000  O
  C780     1.0000 0.24400  0.17060  0.12200  Biso   1.000  C
  O187     1.0000 0.24160  0.15670  0.14130  Biso   1.000  O
  O188     1.0000 0.20600  0.16210  0.10720  Biso   1.000  O
  C781     1.0000 0.03600  0.12390  0.23070  Biso   1.000  C
  O189     1.0000 0.07690  0.12450  0.18050  Biso   1.000  O
  C782     1.0000 0.30100  0.20070  0.11650  Biso   1.000  C
  C783     1.0000 0.43200  0.55730  0.13960  Biso   1.000  C
  O190     1.0000 0.79400  0.96380  0.77760  Biso   1.000  O
  O191     1.0000 0.81650  0.95400  0.73430  Biso   1.000  O
  C784     1.0000 0.53860  0.79858  0.62632  Biso   1.000  C
  C785     1.0000 0.52620  0.78010  0.64533  Biso   1.000  C
  H433     1.0000 0.56070  0.78540  0.65790  Biso   1.000  H
  C786     1.0000 0.46200  0.75360  0.64551  Biso   1.000  C
  H434     1.0000 0.45370  0.74120  0.65820  Biso   1.000  H
  C787     1.0000 0.41040  0.74570  0.62670  Biso   1.000  C
  C788     1.0000 0.42280  0.76420  0.60767  Biso   1.000  C
  H435     1.0000 0.38830  0.75880  0.59510  Biso   1.000  H
  C789     1.0000 0.48700  0.79060  0.60749  Biso   1.000  C
  H436     1.0000 0.49530  0.80300  0.59480  Biso   1.000  H
  Cu28     1.0000 0.83789  0.99070  0.75401  Biso   1.000  Cu
  C790     1.0000 0.53170  0.93010  0.82602  Biso   1.000  C
  C791     1.0000 0.44470  0.94206  0.83418  Biso   1.000  C
  H437     1.0000 0.41880  0.96160  0.82870  Biso   1.000  H
  C792     1.0000 0.39640  0.92490  0.85061  Biso   1.000  C
  H438     1.0000 0.33820  0.93290  0.85610  Biso   1.000  H
  C793     1.0000 0.43520  0.89570  0.85888  Biso   1.000  C
  C794     1.0000 0.52220  0.88373  0.85071  Biso   1.000  C
  H439     1.0000 0.54820  0.86420  0.85620  Biso   1.000  H
  C795     1.0000 0.57050  0.90090  0.83428  Biso   1.000  C
  H440     1.0000 0.62880  0.89290  0.82880  Biso   1.000  H
  C796     1.0000 0.63370  0.84739  0.64461  Biso   1.000  C
  C797     1.0000 0.72110  0.86350  0.64816  Biso   1.000  C
  H441     1.0000 0.77400  0.85900  0.63930  Biso   1.000  H
  C798     1.0000 0.72930  0.88650  0.66502  Biso   1.000  C
  H442     1.0000 0.78770  0.89730  0.66740  Biso   1.000  H
  C799     1.0000 0.65020  0.89330  0.67834  Biso   1.000  C
  C800     1.0000 0.56280  0.87720  0.67479  Biso   1.000  C
  H443     1.0000 0.50990  0.88170  0.68370  Biso   1.000  H
  C801     1.0000 0.55460  0.85420  0.65793  Biso   1.000  C
  H444     1.0000 0.49620  0.84340  0.65560  Biso   1.000  H
  C802     1.0000 0.66230  0.94610  0.80160  Biso   1.000  C
  H445     1.0000 0.70420  0.93310  0.80980  Biso   1.000  H
  C803     1.0000 0.66040  0.91780  0.69640  Biso   1.000  C
  H446     1.0000 0.60350  0.92810  0.70080  Biso   1.000  H
  C804     1.0000 0.57280  0.94710  0.80710  Biso   1.000  C
  H447     1.0000 0.53110  0.95960  0.79840  Biso   1.000  H
  C805     1.0000 0.35200  0.71590  0.62740  Biso   1.000  C
  C806     1.0000 0.73970  0.92700  0.70710  Biso   1.000  C
  H448     1.0000 0.79700  0.91640  0.70340  Biso   1.000  H
  C807     1.0000 0.70490  0.96630  0.78120  Biso   1.000  C
  C808     1.0000 0.74500  0.95310  0.72480  Biso   1.000  C
  O192     1.0000 0.63320  0.98090  0.77094  Biso   1.000  O
  O193     1.0000 0.66250  0.97000  0.72612  Biso   1.000  O
  C809     1.0000 0.24400  0.67060  0.62200  Biso   1.000  C
  O194     1.0000 0.24160  0.65670  0.64130  Biso   1.000  O
  O195     1.0000 0.20600  0.66210  0.60720  Biso   1.000  O
  C810     1.0000 0.03600  0.62390  0.73070  Biso   1.000  C
  O196     1.0000 0.07690  0.62450  0.68050  Biso   1.000  O
  C811     1.0000 0.30100  0.70070  0.61650  Biso   1.000  C
  C812     1.0000 0.43200  0.05730  0.63960  Biso   1.000  C
  O197     1.0000 0.95600  0.78620  0.77760  Biso   1.000  O
  O198     1.0000 0.93350  0.79600  0.73430  Biso   1.000  O
  C813     1.0000 0.21140  0.95142  0.62632  Biso   1.000  C
  C814     1.0000 0.22380  0.96990  0.64533  Biso   1.000  C
  H449     1.0000 0.18930  0.96460  0.65790  Biso   1.000  H
  C815     1.0000 0.28800  0.99640  0.64551  Biso   1.000  C
  H450     1.0000 0.29630  0.00880  0.65820  Biso   1.000  H
  C816     1.0000 0.33960  0.00430  0.62670  Biso   1.000  C
  C817     1.0000 0.32720  0.98580  0.60767  Biso   1.000  C
  H451     1.0000 0.36170  0.99120  0.59510  Biso   1.000  H
  C818     1.0000 0.26300  0.95940  0.60749  Biso   1.000  C
  H452     1.0000 0.25470  0.94700  0.59480  Biso   1.000  H
  Cu29     1.0000 0.91211  0.75930  0.75401  Biso   1.000  Cu
  C819     1.0000 0.21830  0.81990  0.82602  Biso   1.000  C
  C820     1.0000 0.30530  0.80794  0.83418  Biso   1.000  C
  H453     1.0000 0.33120  0.78840  0.82870  Biso   1.000  H
  C821     1.0000 0.35360  0.82510  0.85061  Biso   1.000  C
  H454     1.0000 0.41180  0.81710  0.85610  Biso   1.000  H
  C822     1.0000 0.31480  0.85430  0.85888  Biso   1.000  C
  C823     1.0000 0.22780  0.86627  0.85071  Biso   1.000  C
  H455     1.0000 0.20180  0.88580  0.85620  Biso   1.000  H
  C824     1.0000 0.17950  0.84910  0.83428  Biso   1.000  C
  H456     1.0000 0.12120  0.85710  0.82880  Biso   1.000  H
  C825     1.0000 0.11630  0.90261  0.64461  Biso   1.000  C
  C826     1.0000 0.02890  0.88650  0.64816  Biso   1.000  C
  H457     1.0000 0.97600  0.89100  0.63930  Biso   1.000  H
  C827     1.0000 0.02070  0.86350  0.66502  Biso   1.000  C
  H458     1.0000 0.96230  0.85270  0.66740  Biso   1.000  H
  C828     1.0000 0.09980  0.85670  0.67834  Biso   1.000  C
  C829     1.0000 0.18720  0.87280  0.67479  Biso   1.000  C
  H459     1.0000 0.24010  0.86830  0.68370  Biso   1.000  H
  C830     1.0000 0.19540  0.89580  0.65793  Biso   1.000  C
  H460     1.0000 0.25380  0.90660  0.65560  Biso   1.000  H
  C831     1.0000 0.08770  0.80390  0.80160  Biso   1.000  C
  H461     1.0000 0.04580  0.81690  0.80980  Biso   1.000  H
  C832     1.0000 0.08960  0.83220  0.69640  Biso   1.000  C
  H462     1.0000 0.14650  0.82190  0.70080  Biso   1.000  H
  C833     1.0000 0.17720  0.80290  0.80710  Biso   1.000  C
  H463     1.0000 0.21890  0.79040  0.79840  Biso   1.000  H
  C834     1.0000 0.39800  0.03410  0.62740  Biso   1.000  C
  C835     1.0000 0.01030  0.82300  0.70710  Biso   1.000  C
  H464     1.0000 0.95300  0.83360  0.70340  Biso   1.000  H
  C836     1.0000 0.04510  0.78370  0.78120  Biso   1.000  C
  C837     1.0000 0.00500  0.79690  0.72480  Biso   1.000  C
  O199     1.0000 0.11680  0.76910  0.77094  Biso   1.000  O
  O200     1.0000 0.08750  0.78000  0.72612  Biso   1.000  O
  C838     1.0000 0.50600  0.07940  0.62200  Biso   1.000  C
  O201     1.0000 0.50840  0.09330  0.64130  Biso   1.000  O
  O202     1.0000 0.54400  0.08790  0.60720  Biso   1.000  O
  C839     1.0000 0.71400  0.12610  0.73070  Biso   1.000  C
  O203     1.0000 0.67310  0.12550  0.68050  Biso   1.000  O
  C840     1.0000 0.44900  0.04930  0.61650  Biso   1.000  C
  C841     1.0000 0.31800  0.69270  0.63960  Biso   1.000  C
  O204     1.0000 0.95600  0.28620  0.27760  Biso   1.000  O
  O205     1.0000 0.93350  0.29600  0.23430  Biso   1.000  O
  C842     1.0000 0.21140  0.45142  0.12632  Biso   1.000  C
  C843     1.0000 0.22380  0.46990  0.14533  Biso   1.000  C
  H465     1.0000 0.18930  0.46460  0.15790  Biso   1.000  H
  C844     1.0000 0.28800  0.49640  0.14551  Biso   1.000  C
  H466     1.0000 0.29630  0.50880  0.15820  Biso   1.000  H
  C845     1.0000 0.33960  0.50430  0.12670  Biso   1.000  C
  C846     1.0000 0.32720  0.48580  0.10767  Biso   1.000  C
  H467     1.0000 0.36170  0.49120  0.09510  Biso   1.000  H
  C847     1.0000 0.26300  0.45940  0.10749  Biso   1.000  C
  H468     1.0000 0.25470  0.44700  0.09480  Biso   1.000  H
  Cu30     1.0000 0.91211  0.25930  0.25401  Biso   1.000  Cu
  C848     1.0000 0.21830  0.31990  0.32602  Biso   1.000  C
  C849     1.0000 0.30530  0.30794  0.33418  Biso   1.000  C
  H469     1.0000 0.33120  0.28840  0.32870  Biso   1.000  H
  C850     1.0000 0.35360  0.32510  0.35061  Biso   1.000  C
  H470     1.0000 0.41180  0.31710  0.35610  Biso   1.000  H
  C851     1.0000 0.31480  0.35430  0.35888  Biso   1.000  C
  C852     1.0000 0.22780  0.36627  0.35071  Biso   1.000  C
  H471     1.0000 0.20180  0.38580  0.35620  Biso   1.000  H
  C853     1.0000 0.17950  0.34910  0.33428  Biso   1.000  C
  H472     1.0000 0.12120  0.35710  0.32880  Biso   1.000  H
  C854     1.0000 0.11630  0.40261  0.14461  Biso   1.000  C
  C855     1.0000 0.02890  0.38650  0.14816  Biso   1.000  C
  H473     1.0000 0.97600  0.39100  0.13930  Biso   1.000  H
  C856     1.0000 0.02070  0.36350  0.16502  Biso   1.000  C
  H474     1.0000 0.96230  0.35270  0.16740  Biso   1.000  H
  C857     1.0000 0.09980  0.35670  0.17834  Biso   1.000  C
  C858     1.0000 0.18720  0.37280  0.17479  Biso   1.000  C
  H475     1.0000 0.24010  0.36830  0.18370  Biso   1.000  H
  C859     1.0000 0.19540  0.39580  0.15793  Biso   1.000  C
  H476     1.0000 0.25380  0.40660  0.15560  Biso   1.000  H
  C860     1.0000 0.08770  0.30390  0.30160  Biso   1.000  C
  H477     1.0000 0.04580  0.31690  0.30980  Biso   1.000  H
  C861     1.0000 0.08960  0.33220  0.19640  Biso   1.000  C
  H478     1.0000 0.14650  0.32190  0.20080  Biso   1.000  H
  C862     1.0000 0.17720  0.30290  0.30710  Biso   1.000  C
  H479     1.0000 0.21890  0.29040  0.29840  Biso   1.000  H
  C863     1.0000 0.39800  0.53410  0.12740  Biso   1.000  C
  C864     1.0000 0.01030  0.32300  0.20710  Biso   1.000  C
  H480     1.0000 0.95300  0.33360  0.20340  Biso   1.000  H
  C865     1.0000 0.04510  0.28370  0.28120  Biso   1.000  C
  C866     1.0000 0.00500  0.29690  0.22480  Biso   1.000  C
  O206     1.0000 0.11680  0.26910  0.27094  Biso   1.000  O
  O207     1.0000 0.08750  0.28000  0.22612  Biso   1.000  O
  C867     1.0000 0.50600  0.57940  0.12200  Biso   1.000  C
  O208     1.0000 0.50840  0.59330  0.14130  Biso   1.000  O
  O209     1.0000 0.54400  0.58790  0.10720  Biso   1.000  O
  C868     1.0000 0.71400  0.62610  0.23070  Biso   1.000  C
  O210     1.0000 0.67310  0.62550  0.18050  Biso   1.000  O
  C869     1.0000 0.44900  0.54930  0.11650  Biso   1.000  C
  C870     1.0000 0.31800  0.19270  0.13960  Biso   1.000  C
  O211     1.0000 0.45600  0.78620  0.27760  Biso   1.000  O
  O212     1.0000 0.43350  0.79600  0.23430  Biso   1.000  O
  C871     1.0000 0.71140  0.95142  0.12632  Biso   1.000  C
  C872     1.0000 0.72380  0.96990  0.14533  Biso   1.000  C
  H481     1.0000 0.68930  0.96460  0.15790  Biso   1.000  H
  C873     1.0000 0.78800  0.99640  0.14551  Biso   1.000  C
  H482     1.0000 0.79630  0.00880  0.15820  Biso   1.000  H
  C874     1.0000 0.83960  0.00430  0.12670  Biso   1.000  C
  C875     1.0000 0.82720  0.98580  0.10767  Biso   1.000  C
  H483     1.0000 0.86170  0.99120  0.09510  Biso   1.000  H
  C876     1.0000 0.76300  0.95940  0.10749  Biso   1.000  C
  H484     1.0000 0.75470  0.94700  0.09480  Biso   1.000  H
  Cu31     1.0000 0.41211  0.75930  0.25401  Biso   1.000  Cu
  C877     1.0000 0.71830  0.81990  0.32602  Biso   1.000  C
  C878     1.0000 0.80530  0.80794  0.33418  Biso   1.000  C
  H485     1.0000 0.83120  0.78840  0.32870  Biso   1.000  H
  C879     1.0000 0.85360  0.82510  0.35061  Biso   1.000  C
  H486     1.0000 0.91180  0.81710  0.35610  Biso   1.000  H
  C880     1.0000 0.81480  0.85430  0.35888  Biso   1.000  C
  C881     1.0000 0.72780  0.86627  0.35071  Biso   1.000  C
  H487     1.0000 0.70180  0.88580  0.35620  Biso   1.000  H
  C882     1.0000 0.67950  0.84910  0.33428  Biso   1.000  C
  H488     1.0000 0.62120  0.85710  0.32880  Biso   1.000  H
  C883     1.0000 0.61630  0.90261  0.14461  Biso   1.000  C
  C884     1.0000 0.52890  0.88650  0.14816  Biso   1.000  C
  H489     1.0000 0.47600  0.89100  0.13930  Biso   1.000  H
  C885     1.0000 0.52070  0.86350  0.16502  Biso   1.000  C
  H490     1.0000 0.46230  0.85270  0.16740  Biso   1.000  H
  C886     1.0000 0.59980  0.85670  0.17834  Biso   1.000  C
  C887     1.0000 0.68720  0.87280  0.17479  Biso   1.000  C
  H491     1.0000 0.74010  0.86830  0.18370  Biso   1.000  H
  C888     1.0000 0.69540  0.89580  0.15793  Biso   1.000  C
  H492     1.0000 0.75380  0.90660  0.15560  Biso   1.000  H
  C889     1.0000 0.58770  0.80390  0.30160  Biso   1.000  C
  H493     1.0000 0.54580  0.81690  0.30980  Biso   1.000  H
  C890     1.0000 0.58960  0.83220  0.19640  Biso   1.000  C
  H494     1.0000 0.64650  0.82190  0.20080  Biso   1.000  H
  C891     1.0000 0.67720  0.80290  0.30710  Biso   1.000  C
  H495     1.0000 0.71890  0.79040  0.29840  Biso   1.000  H
  C892     1.0000 0.89800  0.03410  0.12740  Biso   1.000  C
  C893     1.0000 0.51030  0.82300  0.20710  Biso   1.000  C
  H496     1.0000 0.45300  0.83360  0.20340  Biso   1.000  H
  C894     1.0000 0.54510  0.78370  0.28120  Biso   1.000  C
  C895     1.0000 0.50500  0.79690  0.22480  Biso   1.000  C
  O213     1.0000 0.61680  0.76910  0.27094  Biso   1.000  O
  O214     1.0000 0.58750  0.78000  0.22612  Biso   1.000  O
  C896     1.0000 0.00600  0.07940  0.12200  Biso   1.000  C
  O215     1.0000 0.00840  0.09330  0.14130  Biso   1.000  O
  O216     1.0000 0.04400  0.08790  0.10720  Biso   1.000  O
  C897     1.0000 0.21400  0.12610  0.23070  Biso   1.000  C
  O217     1.0000 0.17310  0.12550  0.18050  Biso   1.000  O
  C898     1.0000 0.94900  0.04930  0.11650  Biso   1.000  C
  C899     1.0000 0.81800  0.69270  0.13960  Biso   1.000  C
  O218     1.0000 0.45600  0.28620  0.77760  Biso   1.000  O
  O219     1.0000 0.43350  0.29600  0.73430  Biso   1.000  O
  C900     1.0000 0.71140  0.45142  0.62632  Biso   1.000  C
  C901     1.0000 0.72380  0.46990  0.64533  Biso   1.000  C
  H497     1.0000 0.68930  0.46460  0.65790  Biso   1.000  H
  C902     1.0000 0.78800  0.49640  0.64551  Biso   1.000  C
  H498     1.0000 0.79630  0.50880  0.65820  Biso   1.000  H
  C903     1.0000 0.83960  0.50430  0.62670  Biso   1.000  C
  C904     1.0000 0.82720  0.48580  0.60767  Biso   1.000  C
  H499     1.0000 0.86170  0.49120  0.59510  Biso   1.000  H
  C905     1.0000 0.76300  0.45940  0.60749  Biso   1.000  C
  H500     1.0000 0.75470  0.44700  0.59480  Biso   1.000  H
  Cu32     1.0000 0.41211  0.25930  0.75401  Biso   1.000  Cu
  C906     1.0000 0.71830  0.31990  0.82602  Biso   1.000  C
  C907     1.0000 0.80530  0.30794  0.83418  Biso   1.000  C
  H501     1.0000 0.83120  0.28840  0.82870  Biso   1.000  H
  C908     1.0000 0.85360  0.32510  0.85061  Biso   1.000  C
  H502     1.0000 0.91180  0.31710  0.85610  Biso   1.000  H
  C909     1.0000 0.81480  0.35430  0.85888  Biso   1.000  C
  C910     1.0000 0.72780  0.36627  0.85071  Biso   1.000  C
  H503     1.0000 0.70180  0.38580  0.85620  Biso   1.000  H
  C911     1.0000 0.67950  0.34910  0.83428  Biso   1.000  C
  H504     1.0000 0.62120  0.35710  0.82880  Biso   1.000  H
  C912     1.0000 0.61630  0.40261  0.64461  Biso   1.000  C
  C913     1.0000 0.52890  0.38650  0.64816  Biso   1.000  C
  H505     1.0000 0.47600  0.39100  0.63930  Biso   1.000  H
  C914     1.0000 0.52070  0.36350  0.66502  Biso   1.000  C
  H506     1.0000 0.46230  0.35270  0.66740  Biso   1.000  H
  C915     1.0000 0.59980  0.35670  0.67834  Biso   1.000  C
  C916     1.0000 0.68720  0.37280  0.67479  Biso   1.000  C
  H507     1.0000 0.74010  0.36830  0.68370  Biso   1.000  H
  C917     1.0000 0.69540  0.39580  0.65793  Biso   1.000  C
  H508     1.0000 0.75380  0.40660  0.65560  Biso   1.000  H
  C918     1.0000 0.58770  0.30390  0.80160  Biso   1.000  C
  H509     1.0000 0.54580  0.31690  0.80980  Biso   1.000  H
  C919     1.0000 0.58960  0.33220  0.69640  Biso   1.000  C
  H510     1.0000 0.64650  0.32190  0.70080  Biso   1.000  H
  C920     1.0000 0.67720  0.30290  0.80710  Biso   1.000  C
  H511     1.0000 0.71890  0.29040  0.79840  Biso   1.000  H
  C921     1.0000 0.89800  0.53410  0.62740  Biso   1.000  C
  C922     1.0000 0.51030  0.32300  0.70710  Biso   1.000  C
  H512     1.0000 0.45300  0.33360  0.70340  Biso   1.000  H
  C923     1.0000 0.54510  0.28370  0.78120  Biso   1.000  C
  C924     1.0000 0.50500  0.29690  0.72480  Biso   1.000  C
  O220     1.0000 0.61680  0.26910  0.77094  Biso   1.000  O
  O221     1.0000 0.58750  0.28000  0.72612  Biso   1.000  O
  C925     1.0000 0.00600  0.57940  0.62200  Biso   1.000  C
  O222     1.0000 0.00840  0.59330  0.64130  Biso   1.000  O
  O223     1.0000 0.04400  0.58790  0.60720  Biso   1.000  O
  C926     1.0000 0.21400  0.62610  0.73070  Biso   1.000  C
  O224     1.0000 0.17310  0.62550  0.68050  Biso   1.000  O
  C927     1.0000 0.94900  0.54930  0.61650  Biso   1.000  C
  C928     1.0000 0.81800  0.19270  0.63960  Biso   1.000  C
  Cu33     1.0000 0.37500  0.87500  0.39606  Biso   1.000  Cu
  C929     1.0000 0.37500  0.87500  0.44410  Biso   1.000  C
  N1       1.0000 0.37500  0.87500  0.46640  Biso   1.000  N
  Cu34     1.0000 0.37500  0.37500  0.89606  Biso   1.000  Cu
  C930     1.0000 0.37500  0.37500  0.94410  Biso   1.000  C
  N2       1.0000 0.37500  0.37500  0.96640  Biso   1.000  N
  Cu35     1.0000 0.87500  0.87500  0.89606  Biso   1.000  Cu
  C931     1.0000 0.87500  0.87500  0.94410  Biso   1.000  C
  N3       1.0000 0.87500  0.87500  0.96640  Biso   1.000  N
  Cu36     1.0000 0.87500  0.37500  0.39606  Biso   1.000  Cu
  C932     1.0000 0.87500  0.37500  0.44410  Biso   1.000  C
  N4       1.0000 0.87500  0.37500  0.46640  Biso   1.000  N
  Cu37     1.0000 0.37500  0.87500  0.35394  Biso   1.000  Cu
  C933     1.0000 0.37500  0.87500  0.30590  Biso   1.000  C
  N5       1.0000 0.37500  0.87500  0.28360  Biso   1.000  N
  Cu38     1.0000 0.37500  0.37500  0.85394  Biso   1.000  Cu
  C934     1.0000 0.37500  0.37500  0.80590  Biso   1.000  C
  N6       1.0000 0.37500  0.37500  0.78360  Biso   1.000  N
  Cu39     1.0000 0.87500  0.87500  0.85394  Biso   1.000  Cu
  C935     1.0000 0.87500  0.87500  0.80590  Biso   1.000  C
  N7       1.0000 0.87500  0.87500  0.78360  Biso   1.000  N
  Cu40     1.0000 0.87500  0.37500  0.35394  Biso   1.000  Cu
  C936     1.0000 0.87500  0.37500  0.30590  Biso   1.000  C
  N8       1.0000 0.87500  0.37500  0.28360  Biso   1.000  N
  Cu41     1.0000 0.62500  0.12500  0.60394  Biso   1.000  Cu
  C937     1.0000 0.62500  0.12500  0.55590  Biso   1.000  C
  N9       1.0000 0.62500  0.12500  0.53360  Biso   1.000  N
  Cu42     1.0000 0.62500  0.62500  0.10394  Biso   1.000  Cu
  C938     1.0000 0.62500  0.62500  0.05590  Biso   1.000  C
  N10      1.0000 0.62500  0.62500  0.03360  Biso   1.000  N
  Cu43     1.0000 0.12500  0.12500  0.10394  Biso   1.000  Cu
  C939     1.0000 0.12500  0.12500  0.05590  Biso   1.000  C
  N11      1.0000 0.12500  0.12500  0.03360  Biso   1.000  N
  Cu44     1.0000 0.12500  0.62500  0.60394  Biso   1.000  Cu
  C940     1.0000 0.12500  0.62500  0.55590  Biso   1.000  C
  N12      1.0000 0.12500  0.62500  0.53360  Biso   1.000  N
  Cu45     1.0000 0.62500  0.12500  0.64606  Biso   1.000  Cu
  C941     1.0000 0.62500  0.12500  0.69410  Biso   1.000  C
  N13      1.0000 0.62500  0.12500  0.71640  Biso   1.000  N
  Cu46     1.0000 0.62500  0.62500  0.14606  Biso   1.000  Cu
  C942     1.0000 0.62500  0.62500  0.19410  Biso   1.000  C
  N14      1.0000 0.62500  0.62500  0.21640  Biso   1.000  N
  Cu47     1.0000 0.12500  0.12500  0.14606  Biso   1.000  Cu
  C943     1.0000 0.12500  0.12500  0.19410  Biso   1.000  C
  N15      1.0000 0.12500  0.12500  0.21640  Biso   1.000  N
  Cu48     1.0000 0.12500  0.62500  0.64606  Biso   1.000  Cu
  C944     1.0000 0.12500  0.62500  0.69410  Biso   1.000  C
  N16      1.0000 0.12500  0.62500  0.71640  Biso   1.000  N
  C945     1.0000 0.87500  0.67700  0.37500  Biso   1.000  C
  C946     1.0000 0.87500  0.17700  0.87500  Biso   1.000  C
  C947     1.0000 0.37500  0.67700  0.87500  Biso   1.000  C
  C948     1.0000 0.37500  0.17700  0.37500  Biso   1.000  C
  C949     1.0000 0.87500  0.07300  0.37500  Biso   1.000  C
  C950     1.0000 0.87500  0.57300  0.87500  Biso   1.000  C
  C951     1.0000 0.37500  0.07300  0.87500  Biso   1.000  C
  C952     1.0000 0.37500  0.57300  0.37500  Biso   1.000  C
  C953     1.0000 0.12500  0.32300  0.62500  Biso   1.000  C
  C954     1.0000 0.12500  0.82300  0.12500  Biso   1.000  C
  C955     1.0000 0.62500  0.32300  0.12500  Biso   1.000  C
  C956     1.0000 0.62500  0.82300  0.62500  Biso   1.000  C
  C957     1.0000 0.12500  0.92700  0.62500  Biso   1.000  C
  C958     1.0000 0.12500  0.42700  0.12500  Biso   1.000  C
  C959     1.0000 0.62500  0.92700  0.12500  Biso   1.000  C
  C960     1.0000 0.62500  0.42700  0.62500  Biso   1.000  C
  C961     1.0000 0.62500  0.62500  0.62500  Biso   1.000  C
  C962     1.0000 0.12500  0.12500  0.62500  Biso   1.000  C
  C963     1.0000 0.12500  0.62500  0.12500  Biso   1.000  C
  C964     1.0000 0.62500  0.12500  0.12500  Biso   1.000  C
  C965     1.0000 0.37500  0.37500  0.37500  Biso   1.000  C
  C966     1.0000 0.87500  0.87500  0.37500  Biso   1.000  C
  C967     1.0000 0.87500  0.37500  0.87500  Biso   1.000  C
  C968     1.0000 0.37500  0.87500  0.87500  Biso   1.000  C
