data_image0
_cell_length_a       23.751
_cell_length_b       30.607
_cell_length_c       23.764
_cell_angle_alpha    90
_cell_angle_beta     90
_cell_angle_gamma    90

_symmetry_space_group_name_H-M    "P 1"
_symmetry_int_tables_number       1

loop_
  _symmetry_equiv_pos_as_xyz
  'x, y, z'

loop_
  _atom_site_label
  _atom_site_occupancy
  _atom_site_fract_x
  _atom_site_fract_y
  _atom_site_fract_z
  _atom_site_thermal_displace_type
  _atom_site_B_iso_or_equiv
  _atom_site_type_symbol
  N1       1.0000 0.62950  0.30930  0.69310  Biso   1.000  N
  Cl1      1.0000 0.73140  0.23450  0.71370  Biso   1.000  Cl
  Cl2      1.0000 0.55430  0.21740  0.69910  Biso   1.000  Cl
  C1       1.0000 0.59590  0.31350  0.64550  Biso   1.000  C
  C2       1.0000 0.66860  0.34150  0.70630  Biso   1.000  C
  C3       1.0000 0.60150  0.35000  0.61110  Biso   1.000  C
  H1       1.0000 0.56920  0.29150  0.63650  Biso   1.000  H
  C4       1.0000 0.67410  0.37800  0.67190  Biso   1.000  C
  H2       1.0000 0.69150  0.33860  0.73880  Biso   1.000  H
  C5       1.0000 0.64060  0.38220  0.62430  Biso   1.000  C
  H3       1.0000 0.57850  0.35290  0.57850  Biso   1.000  H
  C6       1.0000 0.71440  0.41060  0.68840  Biso   1.000  C
  H4       1.0000 0.64430  0.40710  0.60070  Biso   1.000  H
  O1       1.0000 0.71780  0.44330  0.65590  Biso   1.000  O
  O2       1.0000 0.74100  0.40810  0.73500  Biso   1.000  O
  Cr1      1.0000 0.78246  0.45221  0.78013  Biso   1.000  Cr
  O3       1.0000 0.67500  0.52350  0.65310  Biso   1.000  O
  O4       1.0000 0.71910  0.44740  0.83380  Biso   1.000  O
  C7       1.0000 0.63920  0.54230  0.68410  Biso   1.000  C
  C8       1.0000 0.67850  0.47280  0.84310  Biso   1.000  C
  O5       1.0000 0.67190  0.51110  0.83140  Biso   1.000  O
  O6       1.0000 0.64950  0.55390  0.73350  Biso   1.000  O
  C9       1.0000 0.58500  0.55340  0.65900  Biso   1.000  C
  C10      1.0000 0.63350  0.45010  0.87870  Biso   1.000  C
  C11      1.0000 0.55020  0.58370  0.68300  Biso   1.000  C
  C12      1.0000 0.57130  0.53370  0.60870  Biso   1.000  C
  C13      1.0000 0.62840  0.40190  0.87950  Biso   1.000  C
  C14      1.0000 0.59890  0.47710  0.91240  Biso   1.000  C
  H5       1.0000 0.56050  0.59740  0.71740  Biso   1.000  H
  C15      1.0000 0.49900  0.59450  0.65670  Biso   1.000  C
  N2       1.0000 0.52340  0.54260  0.58270  Biso   1.000  N
  H6       1.0000 0.59670  0.51340  0.59240  Biso   1.000  H
  H7       1.0000 0.65260  0.38410  0.85750  Biso   1.000  H
  C16      1.0000 0.58770  0.38380  0.91310  Biso   1.000  C
  N3       1.0000 0.55840  0.45700  0.94500  Biso   1.000  N
  H8       1.0000 0.60350  0.50790  0.91270  Biso   1.000  H
  H9       1.0000 0.47350  0.61540  0.67180  Biso   1.000  H
  C17      1.0000 0.48860  0.57250  0.60740  Biso   1.000  C
  H10      1.0000 0.58120  0.35320  0.91450  Biso   1.000  H
  C18      1.0000 0.55740  0.41250  0.94410  Biso   1.000  C
  H11      1.0000 0.45410  0.57860  0.58880  Biso   1.000  H
  H12      1.0000 0.53120  0.39960  0.96940  Biso   1.000  H
  Cl3      1.0000 0.62460  0.20600  0.66740  Biso   1.000  Cl
  Cl4      1.0000 0.58392  0.44940  0.51642  Biso   1.000  Cl
  N4       1.0000 0.12950  0.80930  0.69310  Biso   1.000  N
  Cl5      1.0000 0.23140  0.73450  0.71370  Biso   1.000  Cl
  Cl6      1.0000 0.05430  0.71740  0.69910  Biso   1.000  Cl
  C19      1.0000 0.09590  0.81350  0.64550  Biso   1.000  C
  C20      1.0000 0.16860  0.84150  0.70630  Biso   1.000  C
  C21      1.0000 0.10150  0.85000  0.61110  Biso   1.000  C
  H13      1.0000 0.06920  0.79150  0.63650  Biso   1.000  H
  C22      1.0000 0.17410  0.87800  0.67190  Biso   1.000  C
  H14      1.0000 0.19150  0.83860  0.73880  Biso   1.000  H
  C23      1.0000 0.14060  0.88220  0.62430  Biso   1.000  C
  H15      1.0000 0.07850  0.85290  0.57850  Biso   1.000  H
  C24      1.0000 0.21440  0.91060  0.68840  Biso   1.000  C
  H16      1.0000 0.14430  0.90710  0.60070  Biso   1.000  H
  O7       1.0000 0.21780  0.94330  0.65590  Biso   1.000  O
  O8       1.0000 0.24100  0.90810  0.73500  Biso   1.000  O
  Cr2      1.0000 0.28246  0.95221  0.78013  Biso   1.000  Cr
  O9       1.0000 0.17500  0.02350  0.65310  Biso   1.000  O
  O10      1.0000 0.21910  0.94740  0.83380  Biso   1.000  O
  C25      1.0000 0.13920  0.04230  0.68410  Biso   1.000  C
  C26      1.0000 0.17850  0.97280  0.84310  Biso   1.000  C
  O11      1.0000 0.17190  0.01110  0.83140  Biso   1.000  O
  O12      1.0000 0.14950  0.05390  0.73350  Biso   1.000  O
  C27      1.0000 0.08500  0.05340  0.65900  Biso   1.000  C
  C28      1.0000 0.13350  0.95010  0.87870  Biso   1.000  C
  C29      1.0000 0.05020  0.08370  0.68300  Biso   1.000  C
  C30      1.0000 0.07130  0.03370  0.60870  Biso   1.000  C
  C31      1.0000 0.12840  0.90190  0.87950  Biso   1.000  C
  C32      1.0000 0.09890  0.97710  0.91240  Biso   1.000  C
  H17      1.0000 0.06050  0.09740  0.71740  Biso   1.000  H
  C33      1.0000 0.99900  0.09450  0.65670  Biso   1.000  C
  N5       1.0000 0.02340  0.04260  0.58270  Biso   1.000  N
  H18      1.0000 0.09670  0.01340  0.59240  Biso   1.000  H
  H19      1.0000 0.15260  0.88410  0.85750  Biso   1.000  H
  C34      1.0000 0.08770  0.88380  0.91310  Biso   1.000  C
  N6       1.0000 0.05840  0.95700  0.94500  Biso   1.000  N
  H20      1.0000 0.10350  0.00790  0.91270  Biso   1.000  H
  H21      1.0000 0.97350  0.11540  0.67180  Biso   1.000  H
  C35      1.0000 0.98860  0.07250  0.60740  Biso   1.000  C
  H22      1.0000 0.08120  0.85320  0.91450  Biso   1.000  H
  C36      1.0000 0.05740  0.91250  0.94410  Biso   1.000  C
  H23      1.0000 0.95410  0.07860  0.58880  Biso   1.000  H
  H24      1.0000 0.03120  0.89960  0.96940  Biso   1.000  H
  Cl7      1.0000 0.12460  0.70600  0.66740  Biso   1.000  Cl
  Cl8      1.0000 0.08392  0.94940  0.51642  Biso   1.000  Cl
  N7       1.0000 0.87050  0.69070  0.69310  Biso   1.000  N
  Cl9      1.0000 0.76860  0.76550  0.71370  Biso   1.000  Cl
  Cl10     1.0000 0.94570  0.78260  0.69910  Biso   1.000  Cl
  C37      1.0000 0.90410  0.68650  0.64550  Biso   1.000  C
  C38      1.0000 0.83140  0.65850  0.70630  Biso   1.000  C
  C39      1.0000 0.89850  0.65000  0.61110  Biso   1.000  C
  H25      1.0000 0.93080  0.70850  0.63650  Biso   1.000  H
  C40      1.0000 0.82590  0.62200  0.67190  Biso   1.000  C
  H26      1.0000 0.80850  0.66140  0.73880  Biso   1.000  H
  C41      1.0000 0.85940  0.61780  0.62430  Biso   1.000  C
  H27      1.0000 0.92150  0.64710  0.57850  Biso   1.000  H
  C42      1.0000 0.78560  0.58940  0.68840  Biso   1.000  C
  H28      1.0000 0.85570  0.59290  0.60070  Biso   1.000  H
  O13      1.0000 0.78220  0.55670  0.65590  Biso   1.000  O
  O14      1.0000 0.75900  0.59190  0.73500  Biso   1.000  O
  Cr3      1.0000 0.71754  0.54779  0.78013  Biso   1.000  Cr
  O15      1.0000 0.82500  0.47650  0.65310  Biso   1.000  O
  O16      1.0000 0.78090  0.55260  0.83380  Biso   1.000  O
  C43      1.0000 0.86080  0.45770  0.68410  Biso   1.000  C
  C44      1.0000 0.82150  0.52720  0.84310  Biso   1.000  C
  O17      1.0000 0.82810  0.48890  0.83140  Biso   1.000  O
  O18      1.0000 0.85050  0.44610  0.73350  Biso   1.000  O
  C45      1.0000 0.91500  0.44660  0.65900  Biso   1.000  C
  C46      1.0000 0.86650  0.54990  0.87870  Biso   1.000  C
  C47      1.0000 0.94980  0.41630  0.68300  Biso   1.000  C
  C48      1.0000 0.92870  0.46630  0.60870  Biso   1.000  C
  C49      1.0000 0.87160  0.59810  0.87950  Biso   1.000  C
  C50      1.0000 0.90110  0.52290  0.91240  Biso   1.000  C
  H29      1.0000 0.93950  0.40260  0.71740  Biso   1.000  H
  C51      1.0000 0.00100  0.40550  0.65670  Biso   1.000  C
  N8       1.0000 0.97660  0.45740  0.58270  Biso   1.000  N
  H30      1.0000 0.90330  0.48660  0.59240  Biso   1.000  H
  H31      1.0000 0.84740  0.61590  0.85750  Biso   1.000  H
  C52      1.0000 0.91230  0.61620  0.91310  Biso   1.000  C
  N9       1.0000 0.94160  0.54300  0.94500  Biso   1.000  N
  H32      1.0000 0.89650  0.49210  0.91270  Biso   1.000  H
  H33      1.0000 0.02650  0.38460  0.67180  Biso   1.000  H
  C53      1.0000 0.01140  0.42750  0.60740  Biso   1.000  C
  H34      1.0000 0.91880  0.64680  0.91450  Biso   1.000  H
  C54      1.0000 0.94260  0.58750  0.94410  Biso   1.000  C
  H35      1.0000 0.04590  0.42140  0.58880  Biso   1.000  H
  H36      1.0000 0.96880  0.60040  0.96940  Biso   1.000  H
  Cl11     1.0000 0.87540  0.79400  0.66740  Biso   1.000  Cl
  Cl12     1.0000 0.91608  0.55060  0.51642  Biso   1.000  Cl
  N10      1.0000 0.37050  0.19070  0.69310  Biso   1.000  N
  Cl13     1.0000 0.26860  0.26550  0.71370  Biso   1.000  Cl
  Cl14     1.0000 0.44570  0.28260  0.69910  Biso   1.000  Cl
  C55      1.0000 0.40410  0.18650  0.64550  Biso   1.000  C
  C56      1.0000 0.33140  0.15850  0.70630  Biso   1.000  C
  C57      1.0000 0.39850  0.15000  0.61110  Biso   1.000  C
  H37      1.0000 0.43080  0.20850  0.63650  Biso   1.000  H
  C58      1.0000 0.32590  0.12200  0.67190  Biso   1.000  C
  H38      1.0000 0.30850  0.16140  0.73880  Biso   1.000  H
  C59      1.0000 0.35940  0.11780  0.62430  Biso   1.000  C
  H39      1.0000 0.42150  0.14710  0.57850  Biso   1.000  H
  C60      1.0000 0.28560  0.08940  0.68840  Biso   1.000  C
  H40      1.0000 0.35570  0.09290  0.60070  Biso   1.000  H
  O19      1.0000 0.28220  0.05670  0.65590  Biso   1.000  O
  O20      1.0000 0.25900  0.09190  0.73500  Biso   1.000  O
  Cr4      1.0000 0.21754  0.04779  0.78013  Biso   1.000  Cr
  O21      1.0000 0.32500  0.97650  0.65310  Biso   1.000  O
  O22      1.0000 0.28090  0.05260  0.83380  Biso   1.000  O
  C61      1.0000 0.36080  0.95770  0.68410  Biso   1.000  C
  C62      1.0000 0.32150  0.02720  0.84310  Biso   1.000  C
  O23      1.0000 0.32810  0.98890  0.83140  Biso   1.000  O
  O24      1.0000 0.35050  0.94610  0.73350  Biso   1.000  O
  C63      1.0000 0.41500  0.94660  0.65900  Biso   1.000  C
  C64      1.0000 0.36650  0.04990  0.87870  Biso   1.000  C
  C65      1.0000 0.44980  0.91630  0.68300  Biso   1.000  C
  C66      1.0000 0.42870  0.96630  0.60870  Biso   1.000  C
  C67      1.0000 0.37160  0.09810  0.87950  Biso   1.000  C
  C68      1.0000 0.40110  0.02290  0.91240  Biso   1.000  C
  H41      1.0000 0.43950  0.90260  0.71740  Biso   1.000  H
  C69      1.0000 0.50100  0.90550  0.65670  Biso   1.000  C
  N11      1.0000 0.47660  0.95740  0.58270  Biso   1.000  N
  H42      1.0000 0.40330  0.98660  0.59240  Biso   1.000  H
  H43      1.0000 0.34740  0.11590  0.85750  Biso   1.000  H
  C70      1.0000 0.41230  0.11620  0.91310  Biso   1.000  C
  N12      1.0000 0.44160  0.04300  0.94500  Biso   1.000  N
  H44      1.0000 0.39650  0.99210  0.91270  Biso   1.000  H
  H45      1.0000 0.52650  0.88460  0.67180  Biso   1.000  H
  C71      1.0000 0.51140  0.92750  0.60740  Biso   1.000  C
  H46      1.0000 0.41880  0.14680  0.91450  Biso   1.000  H
  C72      1.0000 0.44260  0.08750  0.94410  Biso   1.000  C
  H47      1.0000 0.54590  0.92140  0.58880  Biso   1.000  H
  H48      1.0000 0.46880  0.10040  0.96940  Biso   1.000  H
  Cl15     1.0000 0.37540  0.29400  0.66740  Biso   1.000  Cl
  Cl16     1.0000 0.41608  0.05060  0.51642  Biso   1.000  Cl
  N13      1.0000 0.37050  0.30930  0.80690  Biso   1.000  N
  Cl17     1.0000 0.26860  0.23450  0.78630  Biso   1.000  Cl
  Cl18     1.0000 0.44570  0.21740  0.80090  Biso   1.000  Cl
  C73      1.0000 0.40410  0.31350  0.85450  Biso   1.000  C
  C74      1.0000 0.33140  0.34150  0.79370  Biso   1.000  C
  C75      1.0000 0.39850  0.35000  0.88890  Biso   1.000  C
  H49      1.0000 0.43080  0.29150  0.86350  Biso   1.000  H
  C76      1.0000 0.32590  0.37800  0.82810  Biso   1.000  C
  H50      1.0000 0.30850  0.33860  0.76120  Biso   1.000  H
  C77      1.0000 0.35940  0.38220  0.87570  Biso   1.000  C
  H51      1.0000 0.42150  0.35290  0.92150  Biso   1.000  H
  C78      1.0000 0.28560  0.41060  0.81160  Biso   1.000  C
  H52      1.0000 0.35570  0.40710  0.89930  Biso   1.000  H
  O25      1.0000 0.28220  0.44330  0.84410  Biso   1.000  O
  O26      1.0000 0.25900  0.40810  0.76500  Biso   1.000  O
  Cr5      1.0000 0.21754  0.45221  0.71987  Biso   1.000  Cr
  O27      1.0000 0.32500  0.52350  0.84690  Biso   1.000  O
  O28      1.0000 0.28090  0.44740  0.66620  Biso   1.000  O
  C79      1.0000 0.36080  0.54230  0.81590  Biso   1.000  C
  C80      1.0000 0.32150  0.47280  0.65690  Biso   1.000  C
  O29      1.0000 0.32810  0.51110  0.66860  Biso   1.000  O
  O30      1.0000 0.35050  0.55390  0.76650  Biso   1.000  O
  C81      1.0000 0.41500  0.55340  0.84100  Biso   1.000  C
  C82      1.0000 0.36650  0.45010  0.62130  Biso   1.000  C
  C83      1.0000 0.44980  0.58370  0.81700  Biso   1.000  C
  C84      1.0000 0.42870  0.53370  0.89130  Biso   1.000  C
  C85      1.0000 0.37160  0.40190  0.62050  Biso   1.000  C
  C86      1.0000 0.40110  0.47710  0.58760  Biso   1.000  C
  H53      1.0000 0.43950  0.59740  0.78260  Biso   1.000  H
  C87      1.0000 0.50100  0.59450  0.84330  Biso   1.000  C
  N14      1.0000 0.47660  0.54260  0.91730  Biso   1.000  N
  H54      1.0000 0.40330  0.51340  0.90760  Biso   1.000  H
  H55      1.0000 0.34740  0.38410  0.64250  Biso   1.000  H
  C88      1.0000 0.41230  0.38380  0.58690  Biso   1.000  C
  N15      1.0000 0.44160  0.45700  0.55500  Biso   1.000  N
  H56      1.0000 0.39650  0.50790  0.58730  Biso   1.000  H
  H57      1.0000 0.52650  0.61540  0.82820  Biso   1.000  H
  C89      1.0000 0.51140  0.57250  0.89260  Biso   1.000  C
  H58      1.0000 0.41880  0.35320  0.58550  Biso   1.000  H
  C90      1.0000 0.44260  0.41250  0.55590  Biso   1.000  C
  H59      1.0000 0.54590  0.57860  0.91120  Biso   1.000  H
  H60      1.0000 0.46880  0.39960  0.53060  Biso   1.000  H
  Cl19     1.0000 0.37540  0.20600  0.83260  Biso   1.000  Cl
  Cl20     1.0000 0.41608  0.44940  0.98358  Biso   1.000  Cl
  N16      1.0000 0.87050  0.80930  0.80690  Biso   1.000  N
  Cl21     1.0000 0.76860  0.73450  0.78630  Biso   1.000  Cl
  Cl22     1.0000 0.94570  0.71740  0.80090  Biso   1.000  Cl
  C91      1.0000 0.90410  0.81350  0.85450  Biso   1.000  C
  C92      1.0000 0.83140  0.84150  0.79370  Biso   1.000  C
  C93      1.0000 0.89850  0.85000  0.88890  Biso   1.000  C
  H61      1.0000 0.93080  0.79150  0.86350  Biso   1.000  H
  C94      1.0000 0.82590  0.87800  0.82810  Biso   1.000  C
  H62      1.0000 0.80850  0.83860  0.76120  Biso   1.000  H
  C95      1.0000 0.85940  0.88220  0.87570  Biso   1.000  C
  H63      1.0000 0.92150  0.85290  0.92150  Biso   1.000  H
  C96      1.0000 0.78560  0.91060  0.81160  Biso   1.000  C
  H64      1.0000 0.85570  0.90710  0.89930  Biso   1.000  H
  O31      1.0000 0.78220  0.94330  0.84410  Biso   1.000  O
  O32      1.0000 0.75900  0.90810  0.76500  Biso   1.000  O
  Cr6      1.0000 0.71754  0.95221  0.71987  Biso   1.000  Cr
  O33      1.0000 0.82500  0.02350  0.84690  Biso   1.000  O
  O34      1.0000 0.78090  0.94740  0.66620  Biso   1.000  O
  C97      1.0000 0.86080  0.04230  0.81590  Biso   1.000  C
  C98      1.0000 0.82150  0.97280  0.65690  Biso   1.000  C
  O35      1.0000 0.82810  0.01110  0.66860  Biso   1.000  O
  O36      1.0000 0.85050  0.05390  0.76650  Biso   1.000  O
  C99      1.0000 0.91500  0.05340  0.84100  Biso   1.000  C
  C100     1.0000 0.86650  0.95010  0.62130  Biso   1.000  C
  C101     1.0000 0.94980  0.08370  0.81700  Biso   1.000  C
  C102     1.0000 0.92870  0.03370  0.89130  Biso   1.000  C
  C103     1.0000 0.87160  0.90190  0.62050  Biso   1.000  C
  C104     1.0000 0.90110  0.97710  0.58760  Biso   1.000  C
  H65      1.0000 0.93950  0.09740  0.78260  Biso   1.000  H
  C105     1.0000 0.00100  0.09450  0.84330  Biso   1.000  C
  N17      1.0000 0.97660  0.04260  0.91730  Biso   1.000  N
  H66      1.0000 0.90330  0.01340  0.90760  Biso   1.000  H
  H67      1.0000 0.84740  0.88410  0.64250  Biso   1.000  H
  C106     1.0000 0.91230  0.88380  0.58690  Biso   1.000  C
  N18      1.0000 0.94160  0.95700  0.55500  Biso   1.000  N
  H68      1.0000 0.89650  0.00790  0.58730  Biso   1.000  H
  H69      1.0000 0.02650  0.11540  0.82820  Biso   1.000  H
  C107     1.0000 0.01140  0.07250  0.89260  Biso   1.000  C
  H70      1.0000 0.91880  0.85320  0.58550  Biso   1.000  H
  C108     1.0000 0.94260  0.91250  0.55590  Biso   1.000  C
  H71      1.0000 0.04590  0.07860  0.91120  Biso   1.000  H
  H72      1.0000 0.96880  0.89960  0.53060  Biso   1.000  H
  Cl23     1.0000 0.87540  0.70600  0.83260  Biso   1.000  Cl
  Cl24     1.0000 0.91608  0.94940  0.98358  Biso   1.000  Cl
  N19      1.0000 0.12950  0.69070  0.80690  Biso   1.000  N
  Cl25     1.0000 0.23140  0.76550  0.78630  Biso   1.000  Cl
  Cl26     1.0000 0.05430  0.78260  0.80090  Biso   1.000  Cl
  C109     1.0000 0.09590  0.68650  0.85450  Biso   1.000  C
  C110     1.0000 0.16860  0.65850  0.79370  Biso   1.000  C
  C111     1.0000 0.10150  0.65000  0.88890  Biso   1.000  C
  H73      1.0000 0.06920  0.70850  0.86350  Biso   1.000  H
  C112     1.0000 0.17410  0.62200  0.82810  Biso   1.000  C
  H74      1.0000 0.19150  0.66140  0.76120  Biso   1.000  H
  C113     1.0000 0.14060  0.61780  0.87570  Biso   1.000  C
  H75      1.0000 0.07850  0.64710  0.92150  Biso   1.000  H
  C114     1.0000 0.21440  0.58940  0.81160  Biso   1.000  C
  H76      1.0000 0.14430  0.59290  0.89930  Biso   1.000  H
  O37      1.0000 0.21780  0.55670  0.84410  Biso   1.000  O
  O38      1.0000 0.24100  0.59190  0.76500  Biso   1.000  O
  Cr7      1.0000 0.28246  0.54779  0.71987  Biso   1.000  Cr
  O39      1.0000 0.17500  0.47650  0.84690  Biso   1.000  O
  O40      1.0000 0.21910  0.55260  0.66620  Biso   1.000  O
  C115     1.0000 0.13920  0.45770  0.81590  Biso   1.000  C
  C116     1.0000 0.17850  0.52720  0.65690  Biso   1.000  C
  O41      1.0000 0.17190  0.48890  0.66860  Biso   1.000  O
  O42      1.0000 0.14950  0.44610  0.76650  Biso   1.000  O
  C117     1.0000 0.08500  0.44660  0.84100  Biso   1.000  C
  C118     1.0000 0.13350  0.54990  0.62130  Biso   1.000  C
  C119     1.0000 0.05020  0.41630  0.81700  Biso   1.000  C
  C120     1.0000 0.07130  0.46630  0.89130  Biso   1.000  C
  C121     1.0000 0.12840  0.59810  0.62050  Biso   1.000  C
  C122     1.0000 0.09890  0.52290  0.58760  Biso   1.000  C
  H77      1.0000 0.06050  0.40260  0.78260  Biso   1.000  H
  C123     1.0000 0.99900  0.40550  0.84330  Biso   1.000  C
  N20      1.0000 0.02340  0.45740  0.91730  Biso   1.000  N
  H78      1.0000 0.09670  0.48660  0.90760  Biso   1.000  H
  H79      1.0000 0.15260  0.61590  0.64250  Biso   1.000  H
  C124     1.0000 0.08770  0.61620  0.58690  Biso   1.000  C
  N21      1.0000 0.05840  0.54300  0.55500  Biso   1.000  N
  H80      1.0000 0.10350  0.49210  0.58730  Biso   1.000  H
  H81      1.0000 0.97350  0.38460  0.82820  Biso   1.000  H
  C125     1.0000 0.98860  0.42750  0.89260  Biso   1.000  C
  H82      1.0000 0.08120  0.64680  0.58550  Biso   1.000  H
  C126     1.0000 0.05740  0.58750  0.55590  Biso   1.000  C
  H83      1.0000 0.95410  0.42140  0.91120  Biso   1.000  H
  H84      1.0000 0.03120  0.60040  0.53060  Biso   1.000  H
  Cl27     1.0000 0.12460  0.79400  0.83260  Biso   1.000  Cl
  Cl28     1.0000 0.08392  0.55060  0.98358  Biso   1.000  Cl
  N22      1.0000 0.62950  0.19070  0.80690  Biso   1.000  N
  Cl29     1.0000 0.73140  0.26550  0.78630  Biso   1.000  Cl
  Cl30     1.0000 0.55430  0.28260  0.80090  Biso   1.000  Cl
  C127     1.0000 0.59590  0.18650  0.85450  Biso   1.000  C
  C128     1.0000 0.66860  0.15850  0.79370  Biso   1.000  C
  C129     1.0000 0.60150  0.15000  0.88890  Biso   1.000  C
  H85      1.0000 0.56920  0.20850  0.86350  Biso   1.000  H
  C130     1.0000 0.67410  0.12200  0.82810  Biso   1.000  C
  H86      1.0000 0.69150  0.16140  0.76120  Biso   1.000  H
  C131     1.0000 0.64060  0.11780  0.87570  Biso   1.000  C
  H87      1.0000 0.57850  0.14710  0.92150  Biso   1.000  H
  C132     1.0000 0.71440  0.08940  0.81160  Biso   1.000  C
  H88      1.0000 0.64430  0.09290  0.89930  Biso   1.000  H
  O43      1.0000 0.71780  0.05670  0.84410  Biso   1.000  O
  O44      1.0000 0.74100  0.09190  0.76500  Biso   1.000  O
  Cr8      1.0000 0.78246  0.04779  0.71987  Biso   1.000  Cr
  O45      1.0000 0.67500  0.97650  0.84690  Biso   1.000  O
  O46      1.0000 0.71910  0.05260  0.66620  Biso   1.000  O
  C133     1.0000 0.63920  0.95770  0.81590  Biso   1.000  C
  C134     1.0000 0.67850  0.02720  0.65690  Biso   1.000  C
  O47      1.0000 0.67190  0.98890  0.66860  Biso   1.000  O
  O48      1.0000 0.64950  0.94610  0.76650  Biso   1.000  O
  C135     1.0000 0.58500  0.94660  0.84100  Biso   1.000  C
  C136     1.0000 0.63350  0.04990  0.62130  Biso   1.000  C
  C137     1.0000 0.55020  0.91630  0.81700  Biso   1.000  C
  C138     1.0000 0.57130  0.96630  0.89130  Biso   1.000  C
  C139     1.0000 0.62840  0.09810  0.62050  Biso   1.000  C
  C140     1.0000 0.59890  0.02290  0.58760  Biso   1.000  C
  H89      1.0000 0.56050  0.90260  0.78260  Biso   1.000  H
  C141     1.0000 0.49900  0.90550  0.84330  Biso   1.000  C
  N23      1.0000 0.52340  0.95740  0.91730  Biso   1.000  N
  H90      1.0000 0.59670  0.98660  0.90760  Biso   1.000  H
  H91      1.0000 0.65260  0.11590  0.64250  Biso   1.000  H
  C142     1.0000 0.58770  0.11620  0.58690  Biso   1.000  C
  N24      1.0000 0.55840  0.04300  0.55500  Biso   1.000  N
  H92      1.0000 0.60350  0.99210  0.58730  Biso   1.000  H
  H93      1.0000 0.47350  0.88460  0.82820  Biso   1.000  H
  C143     1.0000 0.48860  0.92750  0.89260  Biso   1.000  C
  H94      1.0000 0.58120  0.14680  0.58550  Biso   1.000  H
  C144     1.0000 0.55740  0.08750  0.55590  Biso   1.000  C
  H95      1.0000 0.45410  0.92140  0.91120  Biso   1.000  H
  H96      1.0000 0.53120  0.10040  0.53060  Biso   1.000  H
  Cl31     1.0000 0.62460  0.29400  0.83260  Biso   1.000  Cl
  Cl32     1.0000 0.58392  0.05060  0.98358  Biso   1.000  Cl
  N25      1.0000 0.37050  0.69070  0.30690  Biso   1.000  N
  Cl33     1.0000 0.26860  0.76550  0.28630  Biso   1.000  Cl
  Cl34     1.0000 0.44570  0.78260  0.30090  Biso   1.000  Cl
  C145     1.0000 0.40410  0.68650  0.35450  Biso   1.000  C
  C146     1.0000 0.33140  0.65850  0.29370  Biso   1.000  C
  C147     1.0000 0.39850  0.65000  0.38890  Biso   1.000  C
  H97      1.0000 0.43080  0.70850  0.36350  Biso   1.000  H
  C148     1.0000 0.32590  0.62200  0.32810  Biso   1.000  C
  H98      1.0000 0.30850  0.66140  0.26120  Biso   1.000  H
  C149     1.0000 0.35940  0.61780  0.37570  Biso   1.000  C
  H99      1.0000 0.42150  0.64710  0.42150  Biso   1.000  H
  C150     1.0000 0.28560  0.58940  0.31160  Biso   1.000  C
  H100     1.0000 0.35570  0.59290  0.39930  Biso   1.000  H
  O49      1.0000 0.28220  0.55670  0.34410  Biso   1.000  O
  O50      1.0000 0.25900  0.59190  0.26500  Biso   1.000  O
  Cr9      1.0000 0.21754  0.54779  0.21987  Biso   1.000  Cr
  O51      1.0000 0.32500  0.47650  0.34690  Biso   1.000  O
  O52      1.0000 0.28090  0.55260  0.16620  Biso   1.000  O
  C151     1.0000 0.36080  0.45770  0.31590  Biso   1.000  C
  C152     1.0000 0.32150  0.52720  0.15690  Biso   1.000  C
  O53      1.0000 0.32810  0.48890  0.16860  Biso   1.000  O
  O54      1.0000 0.35050  0.44610  0.26650  Biso   1.000  O
  C153     1.0000 0.41500  0.44660  0.34100  Biso   1.000  C
  C154     1.0000 0.36650  0.54990  0.12130  Biso   1.000  C
  C155     1.0000 0.44980  0.41630  0.31700  Biso   1.000  C
  C156     1.0000 0.42870  0.46630  0.39130  Biso   1.000  C
  C157     1.0000 0.37160  0.59810  0.12050  Biso   1.000  C
  C158     1.0000 0.40110  0.52290  0.08760  Biso   1.000  C
  H101     1.0000 0.43950  0.40260  0.28260  Biso   1.000  H
  C159     1.0000 0.50100  0.40550  0.34330  Biso   1.000  C
  N26      1.0000 0.47660  0.45740  0.41730  Biso   1.000  N
  H102     1.0000 0.40330  0.48660  0.40760  Biso   1.000  H
  H103     1.0000 0.34740  0.61590  0.14250  Biso   1.000  H
  C160     1.0000 0.41230  0.61620  0.08690  Biso   1.000  C
  N27      1.0000 0.44160  0.54300  0.05500  Biso   1.000  N
  H104     1.0000 0.39650  0.49210  0.08730  Biso   1.000  H
  H105     1.0000 0.52650  0.38460  0.32820  Biso   1.000  H
  C161     1.0000 0.51140  0.42750  0.39260  Biso   1.000  C
  H106     1.0000 0.41880  0.64680  0.08550  Biso   1.000  H
  C162     1.0000 0.44260  0.58750  0.05590  Biso   1.000  C
  H107     1.0000 0.54590  0.42140  0.41120  Biso   1.000  H
  H108     1.0000 0.46880  0.60040  0.03060  Biso   1.000  H
  Cl35     1.0000 0.37540  0.79400  0.33260  Biso   1.000  Cl
  Cl36     1.0000 0.41608  0.55060  0.48358  Biso   1.000  Cl
  N28      1.0000 0.87050  0.19070  0.30690  Biso   1.000  N
  Cl37     1.0000 0.76860  0.26550  0.28630  Biso   1.000  Cl
  Cl38     1.0000 0.94570  0.28260  0.30090  Biso   1.000  Cl
  C163     1.0000 0.90410  0.18650  0.35450  Biso   1.000  C
  C164     1.0000 0.83140  0.15850  0.29370  Biso   1.000  C
  C165     1.0000 0.89850  0.15000  0.38890  Biso   1.000  C
  H109     1.0000 0.93080  0.20850  0.36350  Biso   1.000  H
  C166     1.0000 0.82590  0.12200  0.32810  Biso   1.000  C
  H110     1.0000 0.80850  0.16140  0.26120  Biso   1.000  H
  C167     1.0000 0.85940  0.11780  0.37570  Biso   1.000  C
  H111     1.0000 0.92150  0.14710  0.42150  Biso   1.000  H
  C168     1.0000 0.78560  0.08940  0.31160  Biso   1.000  C
  H112     1.0000 0.85570  0.09290  0.39930  Biso   1.000  H
  O55      1.0000 0.78220  0.05670  0.34410  Biso   1.000  O
  O56      1.0000 0.75900  0.09190  0.26500  Biso   1.000  O
  Cr10     1.0000 0.71754  0.04779  0.21987  Biso   1.000  Cr
  O57      1.0000 0.82500  0.97650  0.34690  Biso   1.000  O
  O58      1.0000 0.78090  0.05260  0.16620  Biso   1.000  O
  C169     1.0000 0.86080  0.95770  0.31590  Biso   1.000  C
  C170     1.0000 0.82150  0.02720  0.15690  Biso   1.000  C
  O59      1.0000 0.82810  0.98890  0.16860  Biso   1.000  O
  O60      1.0000 0.85050  0.94610  0.26650  Biso   1.000  O
  C171     1.0000 0.91500  0.94660  0.34100  Biso   1.000  C
  C172     1.0000 0.86650  0.04990  0.12130  Biso   1.000  C
  C173     1.0000 0.94980  0.91630  0.31700  Biso   1.000  C
  C174     1.0000 0.92870  0.96630  0.39130  Biso   1.000  C
  C175     1.0000 0.87160  0.09810  0.12050  Biso   1.000  C
  C176     1.0000 0.90110  0.02290  0.08760  Biso   1.000  C
  H113     1.0000 0.93950  0.90260  0.28260  Biso   1.000  H
  C177     1.0000 0.00100  0.90550  0.34330  Biso   1.000  C
  N29      1.0000 0.97660  0.95740  0.41730  Biso   1.000  N
  H114     1.0000 0.90330  0.98660  0.40760  Biso   1.000  H
  H115     1.0000 0.84740  0.11590  0.14250  Biso   1.000  H
  C178     1.0000 0.91230  0.11620  0.08690  Biso   1.000  C
  N30      1.0000 0.94160  0.04300  0.05500  Biso   1.000  N
  H116     1.0000 0.89650  0.99210  0.08730  Biso   1.000  H
  H117     1.0000 0.02650  0.88460  0.32820  Biso   1.000  H
  C179     1.0000 0.01140  0.92750  0.39260  Biso   1.000  C
  H118     1.0000 0.91880  0.14680  0.08550  Biso   1.000  H
  C180     1.0000 0.94260  0.08750  0.05590  Biso   1.000  C
  H119     1.0000 0.04590  0.92140  0.41120  Biso   1.000  H
  H120     1.0000 0.96880  0.10040  0.03060  Biso   1.000  H
  Cl39     1.0000 0.87540  0.29400  0.33260  Biso   1.000  Cl
  Cl40     1.0000 0.91608  0.05060  0.48358  Biso   1.000  Cl
  N31      1.0000 0.12950  0.30930  0.30690  Biso   1.000  N
  Cl41     1.0000 0.23140  0.23450  0.28630  Biso   1.000  Cl
  Cl42     1.0000 0.05430  0.21740  0.30090  Biso   1.000  Cl
  C181     1.0000 0.09590  0.31350  0.35450  Biso   1.000  C
  C182     1.0000 0.16860  0.34150  0.29370  Biso   1.000  C
  C183     1.0000 0.10150  0.35000  0.38890  Biso   1.000  C
  H121     1.0000 0.06920  0.29150  0.36350  Biso   1.000  H
  C184     1.0000 0.17410  0.37800  0.32810  Biso   1.000  C
  H122     1.0000 0.19150  0.33860  0.26120  Biso   1.000  H
  C185     1.0000 0.14060  0.38220  0.37570  Biso   1.000  C
  H123     1.0000 0.07850  0.35290  0.42150  Biso   1.000  H
  C186     1.0000 0.21440  0.41060  0.31160  Biso   1.000  C
  H124     1.0000 0.14430  0.40710  0.39930  Biso   1.000  H
  O61      1.0000 0.21780  0.44330  0.34410  Biso   1.000  O
  O62      1.0000 0.24100  0.40810  0.26500  Biso   1.000  O
  Cr11     1.0000 0.28246  0.45221  0.21987  Biso   1.000  Cr
  O63      1.0000 0.17500  0.52350  0.34690  Biso   1.000  O
  O64      1.0000 0.21910  0.44740  0.16620  Biso   1.000  O
  C187     1.0000 0.13920  0.54230  0.31590  Biso   1.000  C
  C188     1.0000 0.17850  0.47280  0.15690  Biso   1.000  C
  O65      1.0000 0.17190  0.51110  0.16860  Biso   1.000  O
  O66      1.0000 0.14950  0.55390  0.26650  Biso   1.000  O
  C189     1.0000 0.08500  0.55340  0.34100  Biso   1.000  C
  C190     1.0000 0.13350  0.45010  0.12130  Biso   1.000  C
  C191     1.0000 0.05020  0.58370  0.31700  Biso   1.000  C
  C192     1.0000 0.07130  0.53370  0.39130  Biso   1.000  C
  C193     1.0000 0.12840  0.40190  0.12050  Biso   1.000  C
  C194     1.0000 0.09890  0.47710  0.08760  Biso   1.000  C
  H125     1.0000 0.06050  0.59740  0.28260  Biso   1.000  H
  C195     1.0000 0.99900  0.59450  0.34330  Biso   1.000  C
  N32      1.0000 0.02340  0.54260  0.41730  Biso   1.000  N
  H126     1.0000 0.09670  0.51340  0.40760  Biso   1.000  H
  H127     1.0000 0.15260  0.38410  0.14250  Biso   1.000  H
  C196     1.0000 0.08770  0.38380  0.08690  Biso   1.000  C
  N33      1.0000 0.05840  0.45700  0.05500  Biso   1.000  N
  H128     1.0000 0.10350  0.50790  0.08730  Biso   1.000  H
  H129     1.0000 0.97350  0.61540  0.32820  Biso   1.000  H
  C197     1.0000 0.98860  0.57250  0.39260  Biso   1.000  C
  H130     1.0000 0.08120  0.35320  0.08550  Biso   1.000  H
  C198     1.0000 0.05740  0.41250  0.05590  Biso   1.000  C
  H131     1.0000 0.95410  0.57860  0.41120  Biso   1.000  H
  H132     1.0000 0.03120  0.39960  0.03060  Biso   1.000  H
  Cl43     1.0000 0.12460  0.20600  0.33260  Biso   1.000  Cl
  Cl44     1.0000 0.08392  0.44940  0.48358  Biso   1.000  Cl
  N34      1.0000 0.62950  0.80930  0.30690  Biso   1.000  N
  Cl45     1.0000 0.73140  0.73450  0.28630  Biso   1.000  Cl
  Cl46     1.0000 0.55430  0.71740  0.30090  Biso   1.000  Cl
  C199     1.0000 0.59590  0.81350  0.35450  Biso   1.000  C
  C200     1.0000 0.66860  0.84150  0.29370  Biso   1.000  C
  C201     1.0000 0.60150  0.85000  0.38890  Biso   1.000  C
  H133     1.0000 0.56920  0.79150  0.36350  Biso   1.000  H
  C202     1.0000 0.67410  0.87800  0.32810  Biso   1.000  C
  H134     1.0000 0.69150  0.83860  0.26120  Biso   1.000  H
  C203     1.0000 0.64060  0.88220  0.37570  Biso   1.000  C
  H135     1.0000 0.57850  0.85290  0.42150  Biso   1.000  H
  C204     1.0000 0.71440  0.91060  0.31160  Biso   1.000  C
  H136     1.0000 0.64430  0.90710  0.39930  Biso   1.000  H
  O67      1.0000 0.71780  0.94330  0.34410  Biso   1.000  O
  O68      1.0000 0.74100  0.90810  0.26500  Biso   1.000  O
  Cr12     1.0000 0.78246  0.95221  0.21987  Biso   1.000  Cr
  O69      1.0000 0.67500  0.02350  0.34690  Biso   1.000  O
  O70      1.0000 0.71910  0.94740  0.16620  Biso   1.000  O
  C205     1.0000 0.63920  0.04230  0.31590  Biso   1.000  C
  C206     1.0000 0.67850  0.97280  0.15690  Biso   1.000  C
  O71      1.0000 0.67190  0.01110  0.16860  Biso   1.000  O
  O72      1.0000 0.64950  0.05390  0.26650  Biso   1.000  O
  C207     1.0000 0.58500  0.05340  0.34100  Biso   1.000  C
  C208     1.0000 0.63350  0.95010  0.12130  Biso   1.000  C
  C209     1.0000 0.55020  0.08370  0.31700  Biso   1.000  C
  C210     1.0000 0.57130  0.03370  0.39130  Biso   1.000  C
  C211     1.0000 0.62840  0.90190  0.12050  Biso   1.000  C
  C212     1.0000 0.59890  0.97710  0.08760  Biso   1.000  C
  H137     1.0000 0.56050  0.09740  0.28260  Biso   1.000  H
  C213     1.0000 0.49900  0.09450  0.34330  Biso   1.000  C
  N35      1.0000 0.52340  0.04260  0.41730  Biso   1.000  N
  H138     1.0000 0.59670  0.01340  0.40760  Biso   1.000  H
  H139     1.0000 0.65260  0.88410  0.14250  Biso   1.000  H
  C214     1.0000 0.58770  0.88380  0.08690  Biso   1.000  C
  N36      1.0000 0.55840  0.95700  0.05500  Biso   1.000  N
  H140     1.0000 0.60350  0.00790  0.08730  Biso   1.000  H
  H141     1.0000 0.47350  0.11540  0.32820  Biso   1.000  H
  C215     1.0000 0.48860  0.07250  0.39260  Biso   1.000  C
  H142     1.0000 0.58120  0.85320  0.08550  Biso   1.000  H
  C216     1.0000 0.55740  0.91250  0.05590  Biso   1.000  C
  H143     1.0000 0.45410  0.07860  0.41120  Biso   1.000  H
  H144     1.0000 0.53120  0.89960  0.03060  Biso   1.000  H
  Cl47     1.0000 0.62460  0.70600  0.33260  Biso   1.000  Cl
  Cl48     1.0000 0.58392  0.94940  0.48358  Biso   1.000  Cl
  N37      1.0000 0.62950  0.69070  0.19310  Biso   1.000  N
  Cl49     1.0000 0.73140  0.76550  0.21370  Biso   1.000  Cl
  Cl50     1.0000 0.55430  0.78260  0.19910  Biso   1.000  Cl
  C217     1.0000 0.59590  0.68650  0.14550  Biso   1.000  C
  C218     1.0000 0.66860  0.65850  0.20630  Biso   1.000  C
  C219     1.0000 0.60150  0.65000  0.11110  Biso   1.000  C
  H145     1.0000 0.56920  0.70850  0.13650  Biso   1.000  H
  C220     1.0000 0.67410  0.62200  0.17190  Biso   1.000  C
  H146     1.0000 0.69150  0.66140  0.23880  Biso   1.000  H
  C221     1.0000 0.64060  0.61780  0.12430  Biso   1.000  C
  H147     1.0000 0.57850  0.64710  0.07850  Biso   1.000  H
  C222     1.0000 0.71440  0.58940  0.18840  Biso   1.000  C
  H148     1.0000 0.64430  0.59290  0.10070  Biso   1.000  H
  O73      1.0000 0.71780  0.55670  0.15590  Biso   1.000  O
  O74      1.0000 0.74100  0.59190  0.23500  Biso   1.000  O
  Cr13     1.0000 0.78246  0.54779  0.28013  Biso   1.000  Cr
  O75      1.0000 0.67500  0.47650  0.15310  Biso   1.000  O
  O76      1.0000 0.71910  0.55260  0.33380  Biso   1.000  O
  C223     1.0000 0.63920  0.45770  0.18410  Biso   1.000  C
  C224     1.0000 0.67850  0.52720  0.34310  Biso   1.000  C
  O77      1.0000 0.67190  0.48890  0.33140  Biso   1.000  O
  O78      1.0000 0.64950  0.44610  0.23350  Biso   1.000  O
  C225     1.0000 0.58500  0.44660  0.15900  Biso   1.000  C
  C226     1.0000 0.63350  0.54990  0.37870  Biso   1.000  C
  C227     1.0000 0.55020  0.41630  0.18300  Biso   1.000  C
  C228     1.0000 0.57130  0.46630  0.10870  Biso   1.000  C
  C229     1.0000 0.62840  0.59810  0.37950  Biso   1.000  C
  C230     1.0000 0.59890  0.52290  0.41240  Biso   1.000  C
  H149     1.0000 0.56050  0.40260  0.21740  Biso   1.000  H
  C231     1.0000 0.49900  0.40550  0.15670  Biso   1.000  C
  N38      1.0000 0.52340  0.45740  0.08270  Biso   1.000  N
  H150     1.0000 0.59670  0.48660  0.09240  Biso   1.000  H
  H151     1.0000 0.65260  0.61590  0.35750  Biso   1.000  H
  C232     1.0000 0.58770  0.61620  0.41310  Biso   1.000  C
  N39      1.0000 0.55840  0.54300  0.44500  Biso   1.000  N
  H152     1.0000 0.60350  0.49210  0.41270  Biso   1.000  H
  H153     1.0000 0.47350  0.38460  0.17180  Biso   1.000  H
  C233     1.0000 0.48860  0.42750  0.10740  Biso   1.000  C
  H154     1.0000 0.58120  0.64680  0.41450  Biso   1.000  H
  C234     1.0000 0.55740  0.58750  0.44410  Biso   1.000  C
  H155     1.0000 0.45410  0.42140  0.08880  Biso   1.000  H
  H156     1.0000 0.53120  0.60040  0.46940  Biso   1.000  H
  Cl51     1.0000 0.62460  0.79400  0.16740  Biso   1.000  Cl
  Cl52     1.0000 0.58392  0.55060  0.01642  Biso   1.000  Cl
  N40      1.0000 0.12950  0.19070  0.19310  Biso   1.000  N
  Cl53     1.0000 0.23140  0.26550  0.21370  Biso   1.000  Cl
  Cl54     1.0000 0.05430  0.28260  0.19910  Biso   1.000  Cl
  C235     1.0000 0.09590  0.18650  0.14550  Biso   1.000  C
  C236     1.0000 0.16860  0.15850  0.20630  Biso   1.000  C
  C237     1.0000 0.10150  0.15000  0.11110  Biso   1.000  C
  H157     1.0000 0.06920  0.20850  0.13650  Biso   1.000  H
  C238     1.0000 0.17410  0.12200  0.17190  Biso   1.000  C
  H158     1.0000 0.19150  0.16140  0.23880  Biso   1.000  H
  C239     1.0000 0.14060  0.11780  0.12430  Biso   1.000  C
  H159     1.0000 0.07850  0.14710  0.07850  Biso   1.000  H
  C240     1.0000 0.21440  0.08940  0.18840  Biso   1.000  C
  H160     1.0000 0.14430  0.09290  0.10070  Biso   1.000  H
  O79      1.0000 0.21780  0.05670  0.15590  Biso   1.000  O
  O80      1.0000 0.24100  0.09190  0.23500  Biso   1.000  O
  Cr14     1.0000 0.28246  0.04779  0.28013  Biso   1.000  Cr
  O81      1.0000 0.17500  0.97650  0.15310  Biso   1.000  O
  O82      1.0000 0.21910  0.05260  0.33380  Biso   1.000  O
  C241     1.0000 0.13920  0.95770  0.18410  Biso   1.000  C
  C242     1.0000 0.17850  0.02720  0.34310  Biso   1.000  C
  O83      1.0000 0.17190  0.98890  0.33140  Biso   1.000  O
  O84      1.0000 0.14950  0.94610  0.23350  Biso   1.000  O
  C243     1.0000 0.08500  0.94660  0.15900  Biso   1.000  C
  C244     1.0000 0.13350  0.04990  0.37870  Biso   1.000  C
  C245     1.0000 0.05020  0.91630  0.18300  Biso   1.000  C
  C246     1.0000 0.07130  0.96630  0.10870  Biso   1.000  C
  C247     1.0000 0.12840  0.09810  0.37950  Biso   1.000  C
  C248     1.0000 0.09890  0.02290  0.41240  Biso   1.000  C
  H161     1.0000 0.06050  0.90260  0.21740  Biso   1.000  H
  C249     1.0000 0.99900  0.90550  0.15670  Biso   1.000  C
  N41      1.0000 0.02340  0.95740  0.08270  Biso   1.000  N
  H162     1.0000 0.09670  0.98660  0.09240  Biso   1.000  H
  H163     1.0000 0.15260  0.11590  0.35750  Biso   1.000  H
  C250     1.0000 0.08770  0.11620  0.41310  Biso   1.000  C
  N42      1.0000 0.05840  0.04300  0.44500  Biso   1.000  N
  H164     1.0000 0.10350  0.99210  0.41270  Biso   1.000  H
  H165     1.0000 0.97350  0.88460  0.17180  Biso   1.000  H
  C251     1.0000 0.98860  0.92750  0.10740  Biso   1.000  C
  H166     1.0000 0.08120  0.14680  0.41450  Biso   1.000  H
  C252     1.0000 0.05740  0.08750  0.44410  Biso   1.000  C
  H167     1.0000 0.95410  0.92140  0.08880  Biso   1.000  H
  H168     1.0000 0.03120  0.10040  0.46940  Biso   1.000  H
  Cl55     1.0000 0.12460  0.29400  0.16740  Biso   1.000  Cl
  Cl56     1.0000 0.08392  0.05060  0.01642  Biso   1.000  Cl
  N43      1.0000 0.87050  0.30930  0.19310  Biso   1.000  N
  Cl57     1.0000 0.76860  0.23450  0.21370  Biso   1.000  Cl
  Cl58     1.0000 0.94570  0.21740  0.19910  Biso   1.000  Cl
  C253     1.0000 0.90410  0.31350  0.14550  Biso   1.000  C
  C254     1.0000 0.83140  0.34150  0.20630  Biso   1.000  C
  C255     1.0000 0.89850  0.35000  0.11110  Biso   1.000  C
  H169     1.0000 0.93080  0.29150  0.13650  Biso   1.000  H
  C256     1.0000 0.82590  0.37800  0.17190  Biso   1.000  C
  H170     1.0000 0.80850  0.33860  0.23880  Biso   1.000  H
  C257     1.0000 0.85940  0.38220  0.12430  Biso   1.000  C
  H171     1.0000 0.92150  0.35290  0.07850  Biso   1.000  H
  C258     1.0000 0.78560  0.41060  0.18840  Biso   1.000  C
  H172     1.0000 0.85570  0.40710  0.10070  Biso   1.000  H
  O85      1.0000 0.78220  0.44330  0.15590  Biso   1.000  O
  O86      1.0000 0.75900  0.40810  0.23500  Biso   1.000  O
  Cr15     1.0000 0.71754  0.45221  0.28013  Biso   1.000  Cr
  O87      1.0000 0.82500  0.52350  0.15310  Biso   1.000  O
  O88      1.0000 0.78090  0.44740  0.33380  Biso   1.000  O
  C259     1.0000 0.86080  0.54230  0.18410  Biso   1.000  C
  C260     1.0000 0.82150  0.47280  0.34310  Biso   1.000  C
  O89      1.0000 0.82810  0.51110  0.33140  Biso   1.000  O
  O90      1.0000 0.85050  0.55390  0.23350  Biso   1.000  O
  C261     1.0000 0.91500  0.55340  0.15900  Biso   1.000  C
  C262     1.0000 0.86650  0.45010  0.37870  Biso   1.000  C
  C263     1.0000 0.94980  0.58370  0.18300  Biso   1.000  C
  C264     1.0000 0.92870  0.53370  0.10870  Biso   1.000  C
  C265     1.0000 0.87160  0.40190  0.37950  Biso   1.000  C
  C266     1.0000 0.90110  0.47710  0.41240  Biso   1.000  C
  H173     1.0000 0.93950  0.59740  0.21740  Biso   1.000  H
  C267     1.0000 0.00100  0.59450  0.15670  Biso   1.000  C
  N44      1.0000 0.97660  0.54260  0.08270  Biso   1.000  N
  H174     1.0000 0.90330  0.51340  0.09240  Biso   1.000  H
  H175     1.0000 0.84740  0.38410  0.35750  Biso   1.000  H
  C268     1.0000 0.91230  0.38380  0.41310  Biso   1.000  C
  N45      1.0000 0.94160  0.45700  0.44500  Biso   1.000  N
  H176     1.0000 0.89650  0.50790  0.41270  Biso   1.000  H
  H177     1.0000 0.02650  0.61540  0.17180  Biso   1.000  H
  C269     1.0000 0.01140  0.57250  0.10740  Biso   1.000  C
  H178     1.0000 0.91880  0.35320  0.41450  Biso   1.000  H
  C270     1.0000 0.94260  0.41250  0.44410  Biso   1.000  C
  H179     1.0000 0.04590  0.57860  0.08880  Biso   1.000  H
  H180     1.0000 0.96880  0.39960  0.46940  Biso   1.000  H
  Cl59     1.0000 0.87540  0.20600  0.16740  Biso   1.000  Cl
  Cl60     1.0000 0.91608  0.44940  0.01642  Biso   1.000  Cl
  N46      1.0000 0.37050  0.80930  0.19310  Biso   1.000  N
  Cl61     1.0000 0.26860  0.73450  0.21370  Biso   1.000  Cl
  Cl62     1.0000 0.44570  0.71740  0.19910  Biso   1.000  Cl
  C271     1.0000 0.40410  0.81350  0.14550  Biso   1.000  C
  C272     1.0000 0.33140  0.84150  0.20630  Biso   1.000  C
  C273     1.0000 0.39850  0.85000  0.11110  Biso   1.000  C
  H181     1.0000 0.43080  0.79150  0.13650  Biso   1.000  H
  C274     1.0000 0.32590  0.87800  0.17190  Biso   1.000  C
  H182     1.0000 0.30850  0.83860  0.23880  Biso   1.000  H
  C275     1.0000 0.35940  0.88220  0.12430  Biso   1.000  C
  H183     1.0000 0.42150  0.85290  0.07850  Biso   1.000  H
  C276     1.0000 0.28560  0.91060  0.18840  Biso   1.000  C
  H184     1.0000 0.35570  0.90710  0.10070  Biso   1.000  H
  O91      1.0000 0.28220  0.94330  0.15590  Biso   1.000  O
  O92      1.0000 0.25900  0.90810  0.23500  Biso   1.000  O
  Cr16     1.0000 0.21754  0.95221  0.28013  Biso   1.000  Cr
  O93      1.0000 0.32500  0.02350  0.15310  Biso   1.000  O
  O94      1.0000 0.28090  0.94740  0.33380  Biso   1.000  O
  C277     1.0000 0.36080  0.04230  0.18410  Biso   1.000  C
  C278     1.0000 0.32150  0.97280  0.34310  Biso   1.000  C
  O95      1.0000 0.32810  0.01110  0.33140  Biso   1.000  O
  O96      1.0000 0.35050  0.05390  0.23350  Biso   1.000  O
  C279     1.0000 0.41500  0.05340  0.15900  Biso   1.000  C
  C280     1.0000 0.36650  0.95010  0.37870  Biso   1.000  C
  C281     1.0000 0.44980  0.08370  0.18300  Biso   1.000  C
  C282     1.0000 0.42870  0.03370  0.10870  Biso   1.000  C
  C283     1.0000 0.37160  0.90190  0.37950  Biso   1.000  C
  C284     1.0000 0.40110  0.97710  0.41240  Biso   1.000  C
  H185     1.0000 0.43950  0.09740  0.21740  Biso   1.000  H
  C285     1.0000 0.50100  0.09450  0.15670  Biso   1.000  C
  N47      1.0000 0.47660  0.04260  0.08270  Biso   1.000  N
  H186     1.0000 0.40330  0.01340  0.09240  Biso   1.000  H
  H187     1.0000 0.34740  0.88410  0.35750  Biso   1.000  H
  C286     1.0000 0.41230  0.88380  0.41310  Biso   1.000  C
  N48      1.0000 0.44160  0.95700  0.44500  Biso   1.000  N
  H188     1.0000 0.39650  0.00790  0.41270  Biso   1.000  H
  H189     1.0000 0.52650  0.11540  0.17180  Biso   1.000  H
  C287     1.0000 0.51140  0.07250  0.10740  Biso   1.000  C
  H190     1.0000 0.41880  0.85320  0.41450  Biso   1.000  H
  C288     1.0000 0.44260  0.91250  0.44410  Biso   1.000  C
  H191     1.0000 0.54590  0.07860  0.08880  Biso   1.000  H
  H192     1.0000 0.46880  0.89960  0.46940  Biso   1.000  H
  Cl63     1.0000 0.37540  0.70600  0.16740  Biso   1.000  Cl
  Cl64     1.0000 0.41608  0.94940  0.01642  Biso   1.000  Cl
  Cd1      1.0000 0.63050  0.25000  0.75000  Biso   1.000  Cd
  Cd2      1.0000 0.86950  0.75000  0.75000  Biso   1.000  Cd
  Cd3      1.0000 0.36950  0.25000  0.75000  Biso   1.000  Cd
  Cd4      1.0000 0.13050  0.75000  0.75000  Biso   1.000  Cd
  Cd5      1.0000 0.36950  0.75000  0.25000  Biso   1.000  Cd
  Cd6      1.0000 0.13050  0.25000  0.25000  Biso   1.000  Cd
  Cd7      1.0000 0.63050  0.75000  0.25000  Biso   1.000  Cd
  Cd8      1.0000 0.86950  0.25000  0.25000  Biso   1.000  Cd
  Cr17     1.0000 0.75000  0.50000  0.66102  Biso   1.000  Cr
  O97      1.0000 0.75000  0.50000  0.74260  Biso   1.000  O
  Cr18     1.0000 0.25000  0.00000  0.66102  Biso   1.000  Cr
  O98      1.0000 0.25000  0.00000  0.74260  Biso   1.000  O
  Cr19     1.0000 0.25000  0.50000  0.83898  Biso   1.000  Cr
  O99      1.0000 0.25000  0.50000  0.75740  Biso   1.000  O
  Cr20     1.0000 0.75000  0.00000  0.83898  Biso   1.000  Cr
  O100     1.0000 0.75000  0.00000  0.75740  Biso   1.000  O
  Cr21     1.0000 0.25000  0.50000  0.33898  Biso   1.000  Cr
  O101     1.0000 0.25000  0.50000  0.25740  Biso   1.000  O
  Cr22     1.0000 0.75000  0.00000  0.33898  Biso   1.000  Cr
  O102     1.0000 0.75000  0.00000  0.25740  Biso   1.000  O
  Cr23     1.0000 0.75000  0.50000  0.16102  Biso   1.000  Cr
  O103     1.0000 0.75000  0.50000  0.24260  Biso   1.000  O
  Cr24     1.0000 0.25000  0.00000  0.16102  Biso   1.000  Cr
  O104     1.0000 0.25000  0.00000  0.24260  Biso   1.000  O
  Cd9      1.0000 0.50000  0.50000  0.50000  Biso   1.000  Cd
  Cd10     1.0000 0.00000  0.00000  0.50000  Biso   1.000  Cd
  Cd11     1.0000 0.00000  0.50000  0.50000  Biso   1.000  Cd
  Cd12     1.0000 0.50000  0.00000  0.50000  Biso   1.000  Cd
  Cd13     1.0000 0.50000  0.50000  0.00000  Biso   1.000  Cd
  Cd14     1.0000 0.00000  0.00000  0.00000  Biso   1.000  Cd
  Cd15     1.0000 0.00000  0.50000  0.00000  Biso   1.000  Cd
  Cd16     1.0000 0.50000  0.00000  0.00000  Biso   1.000  Cd
