data_image0
_cell_length_a       24.8612
_cell_length_b       24.8612
_cell_length_c       28.26
_cell_angle_alpha    90
_cell_angle_beta     90
_cell_angle_gamma    120

_symmetry_space_group_name_H-M    "P 1"
_symmetry_int_tables_number       1

loop_
  _symmetry_equiv_pos_as_xyz
  'x, y, z'

loop_
  _atom_site_label
  _atom_site_occupancy
  _atom_site_fract_x
  _atom_site_fract_y
  _atom_site_fract_z
  _atom_site_thermal_displace_type
  _atom_site_B_iso_or_equiv
  _atom_site_type_symbol
  O1       1.0000 0.61050  0.38978  0.94907  Biso   1.000  O
  C1       1.0000 0.65485  0.50075  0.94928  Biso   1.000  C
  C2       1.0000 0.65348  0.61110  0.92846  Biso   1.000  C
  C3       1.0000 0.65703  0.44269  0.95877  Biso   1.000  C
  C4       1.0000 0.70427  0.61315  0.95222  Biso   1.000  C
  H1       1.0000 0.73830  0.65200  0.96170  Biso   1.000  H
  C5       1.0000 0.70469  0.55828  0.96192  Biso   1.000  C
  H2       1.0000 0.73960  0.56030  0.97740  Biso   1.000  H
  C6       1.0000 0.60260  0.55327  0.91742  Biso   1.000  C
  H3       1.0000 0.56730  0.55110  0.90250  Biso   1.000  H
  C7       1.0000 0.60293  0.49873  0.92795  Biso   1.000  C
  H4       1.0000 0.56760  0.45970  0.92060  Biso   1.000  H
  C8       1.0000 0.55899  0.64881  0.95686  Biso   1.000  C
  H5       1.0000 0.57210  0.63680  0.98450  Biso   1.000  H
  O2       1.0000 0.70557  0.44675  0.97666  Biso   1.000  O
  C9       1.0000 0.50258  0.64836  0.95708  Biso   1.000  C
  H6       1.0000 0.47730  0.63560  0.98470  Biso   1.000  H
  O3       1.0000 0.38812  0.64411  0.95234  Biso   1.000  O
  O4       1.0000 0.27717  0.72311  0.28240  Biso   1.000  O
  C10      1.0000 0.32152  0.83408  0.28261  Biso   1.000  C
  C11      1.0000 0.32015  0.94443  0.26179  Biso   1.000  C
  C12      1.0000 0.32370  0.77602  0.29210  Biso   1.000  C
  C13      1.0000 0.37094  0.94648  0.28555  Biso   1.000  C
  H7       1.0000 0.40497  0.98533  0.29503  Biso   1.000  H
  C14      1.0000 0.37136  0.89161  0.29525  Biso   1.000  C
  H8       1.0000 0.40627  0.89363  0.31073  Biso   1.000  H
  C15      1.0000 0.26927  0.88660  0.25075  Biso   1.000  C
  H9       1.0000 0.23397  0.88443  0.23583  Biso   1.000  H
  C16      1.0000 0.26960  0.83206  0.26128  Biso   1.000  C
  H10      1.0000 0.23427  0.79303  0.25393  Biso   1.000  H
  C17      1.0000 0.22566  0.98214  0.29019  Biso   1.000  C
  H11      1.0000 0.23877  0.97013  0.31783  Biso   1.000  H
  O5       1.0000 0.37224  0.78008  0.30999  Biso   1.000  O
  C18      1.0000 0.16925  0.98169  0.29041  Biso   1.000  C
  H12      1.0000 0.14397  0.96893  0.31803  Biso   1.000  H
  O6       1.0000 0.05479  0.97744  0.28567  Biso   1.000  O
  O7       1.0000 0.94383  0.05645  0.61574  Biso   1.000  O
  C19      1.0000 0.98818  0.16742  0.61595  Biso   1.000  C
  C20      1.0000 0.98681  0.27777  0.59513  Biso   1.000  C
  C21      1.0000 0.99036  0.10936  0.62544  Biso   1.000  C
  C22      1.0000 0.03760  0.27982  0.61889  Biso   1.000  C
  H13      1.0000 0.07163  0.31867  0.62837  Biso   1.000  H
  C23      1.0000 0.03802  0.22495  0.62859  Biso   1.000  C
  H14      1.0000 0.07293  0.22697  0.64407  Biso   1.000  H
  C24      1.0000 0.93593  0.21994  0.58409  Biso   1.000  C
  H15      1.0000 0.90063  0.21777  0.56917  Biso   1.000  H
  C25      1.0000 0.93626  0.16540  0.59462  Biso   1.000  C
  H16      1.0000 0.90093  0.12637  0.58727  Biso   1.000  H
  C26      1.0000 0.89232  0.31548  0.62353  Biso   1.000  C
  H17      1.0000 0.90543  0.30347  0.65117  Biso   1.000  H
  O8       1.0000 0.03890  0.11342  0.64333  Biso   1.000  O
  C27      1.0000 0.83591  0.31503  0.62375  Biso   1.000  C
  H18      1.0000 0.81063  0.30227  0.65137  Biso   1.000  H
  O9       1.0000 0.72145  0.31078  0.61901  Biso   1.000  O
  O10      1.0000 0.61022  0.22072  0.94907  Biso   1.000  O
  C28      1.0000 0.49925  0.15410  0.94928  Biso   1.000  C
  C29      1.0000 0.38890  0.04238  0.92846  Biso   1.000  C
  C30      1.0000 0.55731  0.21434  0.95877  Biso   1.000  C
  C31      1.0000 0.38685  0.09112  0.95222  Biso   1.000  C
  H19      1.0000 0.34800  0.08630  0.96170  Biso   1.000  H
  C32      1.0000 0.44172  0.14641  0.96192  Biso   1.000  C
  H20      1.0000 0.43970  0.17930  0.97740  Biso   1.000  H
  C33      1.0000 0.44673  0.04933  0.91742  Biso   1.000  C
  H21      1.0000 0.44890  0.01620  0.90250  Biso   1.000  H
  C34      1.0000 0.50127  0.10420  0.92795  Biso   1.000  C
  H22      1.0000 0.54030  0.10790  0.92060  Biso   1.000  H
  C35      1.0000 0.35119  0.91018  0.95686  Biso   1.000  C
  H23      1.0000 0.36320  0.93530  0.98450  Biso   1.000  H
  O11      1.0000 0.55325  0.25882  0.97666  Biso   1.000  O
  C36      1.0000 0.35164  0.85422  0.95708  Biso   1.000  C
  H24      1.0000 0.36440  0.84170  0.98470  Biso   1.000  H
  O12      1.0000 0.35589  0.74401  0.95234  Biso   1.000  O
  O13      1.0000 0.27689  0.55405  0.28240  Biso   1.000  O
  C37      1.0000 0.16592  0.48743  0.28261  Biso   1.000  C
  C38      1.0000 0.05557  0.37571  0.26179  Biso   1.000  C
  C39      1.0000 0.22398  0.54767  0.29210  Biso   1.000  C
  C40      1.0000 0.05352  0.42445  0.28555  Biso   1.000  C
  H25      1.0000 0.01467  0.41963  0.29503  Biso   1.000  H
  C41      1.0000 0.10839  0.47974  0.29525  Biso   1.000  C
  H26      1.0000 0.10637  0.51263  0.31073  Biso   1.000  H
  C42      1.0000 0.11340  0.38266  0.25075  Biso   1.000  C
  H27      1.0000 0.11557  0.34953  0.23583  Biso   1.000  H
  C43      1.0000 0.16794  0.43753  0.26128  Biso   1.000  C
  H28      1.0000 0.20697  0.44123  0.25393  Biso   1.000  H
  C44      1.0000 0.01786  0.24351  0.29019  Biso   1.000  C
  H29      1.0000 0.02987  0.26863  0.31783  Biso   1.000  H
  O14      1.0000 0.21992  0.59215  0.30999  Biso   1.000  O
  C45      1.0000 0.01831  0.18755  0.29041  Biso   1.000  C
  H30      1.0000 0.03107  0.17503  0.31803  Biso   1.000  H
  O15      1.0000 0.02256  0.07734  0.28567  Biso   1.000  O
  O16      1.0000 0.94355  0.88739  0.61574  Biso   1.000  O
  C46      1.0000 0.83258  0.82077  0.61595  Biso   1.000  C
  C47      1.0000 0.72223  0.70905  0.59513  Biso   1.000  C
  C48      1.0000 0.89064  0.88101  0.62544  Biso   1.000  C
  C49      1.0000 0.72018  0.75779  0.61889  Biso   1.000  C
  H31      1.0000 0.68133  0.75297  0.62837  Biso   1.000  H
  C50      1.0000 0.77505  0.81308  0.62859  Biso   1.000  C
  H32      1.0000 0.77303  0.84597  0.64407  Biso   1.000  H
  C51      1.0000 0.78006  0.71600  0.58409  Biso   1.000  C
  H33      1.0000 0.78223  0.68287  0.56917  Biso   1.000  H
  C52      1.0000 0.83460  0.77087  0.59462  Biso   1.000  C
  H34      1.0000 0.87363  0.77457  0.58727  Biso   1.000  H
  C53      1.0000 0.68452  0.57685  0.62353  Biso   1.000  C
  H35      1.0000 0.69653  0.60197  0.65117  Biso   1.000  H
  O17      1.0000 0.88658  0.92549  0.64333  Biso   1.000  O
  C54      1.0000 0.68497  0.52089  0.62375  Biso   1.000  C
  H36      1.0000 0.69773  0.50837  0.65137  Biso   1.000  H
  O18      1.0000 0.68922  0.41068  0.61901  Biso   1.000  O
  O19      1.0000 0.77928  0.38950  0.94907  Biso   1.000  O
  C55      1.0000 0.84590  0.34515  0.94928  Biso   1.000  C
  C56      1.0000 0.95762  0.34652  0.92846  Biso   1.000  C
  C57      1.0000 0.78566  0.34297  0.95877  Biso   1.000  C
  C58      1.0000 0.90888  0.29573  0.95222  Biso   1.000  C
  H37      1.0000 0.91370  0.26170  0.96170  Biso   1.000  H
  C59      1.0000 0.85359  0.29531  0.96192  Biso   1.000  C
  H38      1.0000 0.82070  0.26040  0.97740  Biso   1.000  H
  C60      1.0000 0.95067  0.39740  0.91742  Biso   1.000  C
  H39      1.0000 0.98380  0.43270  0.90250  Biso   1.000  H
  C61      1.0000 0.89580  0.39707  0.92795  Biso   1.000  C
  H40      1.0000 0.89210  0.43240  0.92060  Biso   1.000  H
  C62      1.0000 0.08982  0.44101  0.95686  Biso   1.000  C
  H41      1.0000 0.06470  0.42790  0.98450  Biso   1.000  H
  O20      1.0000 0.74118  0.29443  0.97666  Biso   1.000  O
  C63      1.0000 0.14578  0.49742  0.95708  Biso   1.000  C
  H42      1.0000 0.15830  0.52270  0.98470  Biso   1.000  H
  O21      1.0000 0.25599  0.61188  0.95234  Biso   1.000  O
  O22      1.0000 0.44595  0.72283  0.28240  Biso   1.000  O
  C64      1.0000 0.51257  0.67848  0.28261  Biso   1.000  C
  C65      1.0000 0.62429  0.67985  0.26179  Biso   1.000  C
  C66      1.0000 0.45233  0.67630  0.29210  Biso   1.000  C
  C67      1.0000 0.57555  0.62906  0.28555  Biso   1.000  C
  H43      1.0000 0.58037  0.59503  0.29503  Biso   1.000  H
  C68      1.0000 0.52026  0.62864  0.29525  Biso   1.000  C
  H44      1.0000 0.48737  0.59373  0.31073  Biso   1.000  H
  C69      1.0000 0.61734  0.73073  0.25075  Biso   1.000  C
  H45      1.0000 0.65047  0.76603  0.23583  Biso   1.000  H
  C70      1.0000 0.56247  0.73040  0.26128  Biso   1.000  C
  H46      1.0000 0.55877  0.76573  0.25393  Biso   1.000  H
  C71      1.0000 0.75649  0.77434  0.29019  Biso   1.000  C
  H47      1.0000 0.73137  0.76123  0.31783  Biso   1.000  H
  O23      1.0000 0.40785  0.62776  0.30999  Biso   1.000  O
  C72      1.0000 0.81245  0.83075  0.29041  Biso   1.000  C
  H48      1.0000 0.82497  0.85603  0.31803  Biso   1.000  H
  O24      1.0000 0.92266  0.94521  0.28567  Biso   1.000  O
  O25      1.0000 0.11261  0.05617  0.61574  Biso   1.000  O
  C73      1.0000 0.17923  0.01182  0.61595  Biso   1.000  C
  C74      1.0000 0.29095  0.01319  0.59513  Biso   1.000  C
  C75      1.0000 0.11899  0.00964  0.62544  Biso   1.000  C
  C76      1.0000 0.24221  0.96240  0.61889  Biso   1.000  C
  H49      1.0000 0.24703  0.92837  0.62837  Biso   1.000  H
  C77      1.0000 0.18692  0.96198  0.62859  Biso   1.000  C
  H50      1.0000 0.15403  0.92707  0.64407  Biso   1.000  H
  C78      1.0000 0.28400  0.06407  0.58409  Biso   1.000  C
  H51      1.0000 0.31713  0.09937  0.56917  Biso   1.000  H
  C79      1.0000 0.22913  0.06374  0.59462  Biso   1.000  C
  H52      1.0000 0.22543  0.09907  0.58727  Biso   1.000  H
  C80      1.0000 0.42315  0.10768  0.62353  Biso   1.000  C
  H53      1.0000 0.39803  0.09457  0.65117  Biso   1.000  H
  O26      1.0000 0.07451  0.96110  0.64333  Biso   1.000  O
  C81      1.0000 0.47911  0.16409  0.62375  Biso   1.000  C
  H54      1.0000 0.49163  0.18937  0.65137  Biso   1.000  H
  O27      1.0000 0.58932  0.27855  0.61901  Biso   1.000  O
  O28      1.0000 0.38978  0.61050  0.55093  Biso   1.000  O
  C82      1.0000 0.50075  0.65485  0.55072  Biso   1.000  C
  C83      1.0000 0.61110  0.65348  0.57154  Biso   1.000  C
  C84      1.0000 0.44269  0.65703  0.54123  Biso   1.000  C
  C85      1.0000 0.61315  0.70427  0.54778  Biso   1.000  C
  H55      1.0000 0.65200  0.73830  0.53830  Biso   1.000  H
  C86      1.0000 0.55828  0.70469  0.53808  Biso   1.000  C
  H56      1.0000 0.56030  0.73960  0.52260  Biso   1.000  H
  C87      1.0000 0.55327  0.60260  0.58258  Biso   1.000  C
  H57      1.0000 0.55110  0.56730  0.59750  Biso   1.000  H
  C88      1.0000 0.49873  0.60293  0.57205  Biso   1.000  C
  H58      1.0000 0.45970  0.56760  0.57940  Biso   1.000  H
  C89      1.0000 0.64881  0.55899  0.54314  Biso   1.000  C
  H59      1.0000 0.63680  0.57210  0.51550  Biso   1.000  H
  O29      1.0000 0.44675  0.70557  0.52334  Biso   1.000  O
  C90      1.0000 0.64836  0.50258  0.54292  Biso   1.000  C
  H60      1.0000 0.63560  0.47730  0.51530  Biso   1.000  H
  O30      1.0000 0.64411  0.38812  0.54766  Biso   1.000  O
  O31      1.0000 0.05645  0.94383  0.88426  Biso   1.000  O
  C91      1.0000 0.16742  0.98818  0.88405  Biso   1.000  C
  C92      1.0000 0.27777  0.98681  0.90487  Biso   1.000  C
  C93      1.0000 0.10936  0.99036  0.87456  Biso   1.000  C
  C94      1.0000 0.27982  0.03760  0.88111  Biso   1.000  C
  H61      1.0000 0.31867  0.07163  0.87163  Biso   1.000  H
  C95      1.0000 0.22495  0.03802  0.87141  Biso   1.000  C
  H62      1.0000 0.22697  0.07293  0.85593  Biso   1.000  H
  C96      1.0000 0.21994  0.93593  0.91591  Biso   1.000  C
  H63      1.0000 0.21777  0.90063  0.93083  Biso   1.000  H
  C97      1.0000 0.16540  0.93626  0.90538  Biso   1.000  C
  H64      1.0000 0.12637  0.90093  0.91273  Biso   1.000  H
  C98      1.0000 0.31548  0.89232  0.87647  Biso   1.000  C
  H65      1.0000 0.30347  0.90543  0.84883  Biso   1.000  H
  O32      1.0000 0.11342  0.03890  0.85667  Biso   1.000  O
  C99      1.0000 0.31503  0.83591  0.87625  Biso   1.000  C
  H66      1.0000 0.30227  0.81063  0.84863  Biso   1.000  H
  O33      1.0000 0.31078  0.72145  0.88099  Biso   1.000  O
  O34      1.0000 0.72311  0.27717  0.21760  Biso   1.000  O
  C100     1.0000 0.83408  0.32152  0.21739  Biso   1.000  C
  C101     1.0000 0.94443  0.32015  0.23821  Biso   1.000  C
  C102     1.0000 0.77602  0.32370  0.20790  Biso   1.000  C
  C103     1.0000 0.94648  0.37094  0.21445  Biso   1.000  C
  H67      1.0000 0.98533  0.40497  0.20497  Biso   1.000  H
  C104     1.0000 0.89161  0.37136  0.20475  Biso   1.000  C
  H68      1.0000 0.89363  0.40627  0.18927  Biso   1.000  H
  C105     1.0000 0.88660  0.26927  0.24925  Biso   1.000  C
  H69      1.0000 0.88443  0.23397  0.26417  Biso   1.000  H
  C106     1.0000 0.83206  0.26960  0.23872  Biso   1.000  C
  H70      1.0000 0.79303  0.23427  0.24607  Biso   1.000  H
  C107     1.0000 0.98214  0.22566  0.20981  Biso   1.000  C
  H71      1.0000 0.97013  0.23877  0.18217  Biso   1.000  H
  O35      1.0000 0.78008  0.37224  0.19001  Biso   1.000  O
  C108     1.0000 0.98169  0.16925  0.20959  Biso   1.000  C
  H72      1.0000 0.96893  0.14397  0.18197  Biso   1.000  H
  O36      1.0000 0.97744  0.05479  0.21433  Biso   1.000  O
  O37      1.0000 0.22072  0.61022  0.55093  Biso   1.000  O
  C109     1.0000 0.15410  0.49925  0.55072  Biso   1.000  C
  C110     1.0000 0.04238  0.38890  0.57154  Biso   1.000  C
  C111     1.0000 0.21434  0.55731  0.54123  Biso   1.000  C
  C112     1.0000 0.09112  0.38685  0.54778  Biso   1.000  C
  H73      1.0000 0.08630  0.34800  0.53830  Biso   1.000  H
  C113     1.0000 0.14641  0.44172  0.53808  Biso   1.000  C
  H74      1.0000 0.17930  0.43970  0.52260  Biso   1.000  H
  C114     1.0000 0.04933  0.44673  0.58258  Biso   1.000  C
  H75      1.0000 0.01620  0.44890  0.59750  Biso   1.000  H
  C115     1.0000 0.10420  0.50127  0.57205  Biso   1.000  C
  H76      1.0000 0.10790  0.54030  0.57940  Biso   1.000  H
  C116     1.0000 0.91018  0.35119  0.54314  Biso   1.000  C
  H77      1.0000 0.93530  0.36320  0.51550  Biso   1.000  H
  O38      1.0000 0.25882  0.55325  0.52334  Biso   1.000  O
  C117     1.0000 0.85422  0.35164  0.54292  Biso   1.000  C
  H78      1.0000 0.84170  0.36440  0.51530  Biso   1.000  H
  O39      1.0000 0.74401  0.35589  0.54766  Biso   1.000  O
  O40      1.0000 0.88739  0.94355  0.88426  Biso   1.000  O
  C118     1.0000 0.82077  0.83258  0.88405  Biso   1.000  C
  C119     1.0000 0.70905  0.72223  0.90487  Biso   1.000  C
  C120     1.0000 0.88101  0.89064  0.87456  Biso   1.000  C
  C121     1.0000 0.75779  0.72018  0.88111  Biso   1.000  C
  H79      1.0000 0.75297  0.68133  0.87163  Biso   1.000  H
  C122     1.0000 0.81308  0.77505  0.87141  Biso   1.000  C
  H80      1.0000 0.84597  0.77303  0.85593  Biso   1.000  H
  C123     1.0000 0.71600  0.78006  0.91591  Biso   1.000  C
  H81      1.0000 0.68287  0.78223  0.93083  Biso   1.000  H
  C124     1.0000 0.77087  0.83460  0.90538  Biso   1.000  C
  H82      1.0000 0.77457  0.87363  0.91273  Biso   1.000  H
  C125     1.0000 0.57685  0.68452  0.87647  Biso   1.000  C
  H83      1.0000 0.60197  0.69653  0.84883  Biso   1.000  H
  O41      1.0000 0.92549  0.88658  0.85667  Biso   1.000  O
  C126     1.0000 0.52089  0.68497  0.87625  Biso   1.000  C
  H84      1.0000 0.50837  0.69773  0.84863  Biso   1.000  H
  O42      1.0000 0.41068  0.68922  0.88099  Biso   1.000  O
  O43      1.0000 0.55405  0.27689  0.21760  Biso   1.000  O
  C127     1.0000 0.48743  0.16592  0.21739  Biso   1.000  C
  C128     1.0000 0.37571  0.05557  0.23821  Biso   1.000  C
  C129     1.0000 0.54767  0.22398  0.20790  Biso   1.000  C
  C130     1.0000 0.42445  0.05352  0.21445  Biso   1.000  C
  H85      1.0000 0.41963  0.01467  0.20497  Biso   1.000  H
  C131     1.0000 0.47974  0.10839  0.20475  Biso   1.000  C
  H86      1.0000 0.51263  0.10637  0.18927  Biso   1.000  H
  C132     1.0000 0.38266  0.11340  0.24925  Biso   1.000  C
  H87      1.0000 0.34953  0.11557  0.26417  Biso   1.000  H
  C133     1.0000 0.43753  0.16794  0.23872  Biso   1.000  C
  H88      1.0000 0.44123  0.20697  0.24607  Biso   1.000  H
  C134     1.0000 0.24351  0.01786  0.20981  Biso   1.000  C
  H89      1.0000 0.26863  0.02987  0.18217  Biso   1.000  H
  O44      1.0000 0.59215  0.21992  0.19001  Biso   1.000  O
  C135     1.0000 0.18755  0.01831  0.20959  Biso   1.000  C
  H90      1.0000 0.17503  0.03107  0.18197  Biso   1.000  H
  O45      1.0000 0.07734  0.02256  0.21433  Biso   1.000  O
  O46      1.0000 0.38950  0.77928  0.55093  Biso   1.000  O
  C136     1.0000 0.34515  0.84590  0.55072  Biso   1.000  C
  C137     1.0000 0.34652  0.95762  0.57154  Biso   1.000  C
  C138     1.0000 0.34297  0.78566  0.54123  Biso   1.000  C
  C139     1.0000 0.29573  0.90888  0.54778  Biso   1.000  C
  H91      1.0000 0.26170  0.91370  0.53830  Biso   1.000  H
  C140     1.0000 0.29531  0.85359  0.53808  Biso   1.000  C
  H92      1.0000 0.26040  0.82070  0.52260  Biso   1.000  H
  C141     1.0000 0.39740  0.95067  0.58258  Biso   1.000  C
  H93      1.0000 0.43270  0.98380  0.59750  Biso   1.000  H
  C142     1.0000 0.39707  0.89580  0.57205  Biso   1.000  C
  H94      1.0000 0.43240  0.89210  0.57940  Biso   1.000  H
  C143     1.0000 0.44101  0.08982  0.54314  Biso   1.000  C
  H95      1.0000 0.42790  0.06470  0.51550  Biso   1.000  H
  O47      1.0000 0.29443  0.74118  0.52334  Biso   1.000  O
  C144     1.0000 0.49742  0.14578  0.54292  Biso   1.000  C
  H96      1.0000 0.52270  0.15830  0.51530  Biso   1.000  H
  O48      1.0000 0.61188  0.25599  0.54766  Biso   1.000  O
  O49      1.0000 0.05617  0.11261  0.88426  Biso   1.000  O
  C145     1.0000 0.01182  0.17923  0.88405  Biso   1.000  C
  C146     1.0000 0.01319  0.29095  0.90487  Biso   1.000  C
  C147     1.0000 0.00964  0.11899  0.87456  Biso   1.000  C
  C148     1.0000 0.96240  0.24221  0.88111  Biso   1.000  C
  H97      1.0000 0.92837  0.24703  0.87163  Biso   1.000  H
  C149     1.0000 0.96198  0.18692  0.87141  Biso   1.000  C
  H98      1.0000 0.92707  0.15403  0.85593  Biso   1.000  H
  C150     1.0000 0.06407  0.28400  0.91591  Biso   1.000  C
  H99      1.0000 0.09937  0.31713  0.93083  Biso   1.000  H
  C151     1.0000 0.06374  0.22913  0.90538  Biso   1.000  C
  H100     1.0000 0.09907  0.22543  0.91273  Biso   1.000  H
  C152     1.0000 0.10768  0.42315  0.87647  Biso   1.000  C
  H101     1.0000 0.09457  0.39803  0.84883  Biso   1.000  H
  O50      1.0000 0.96110  0.07451  0.85667  Biso   1.000  O
  C153     1.0000 0.16409  0.47911  0.87625  Biso   1.000  C
  H102     1.0000 0.18937  0.49163  0.84863  Biso   1.000  H
  O51      1.0000 0.27855  0.58932  0.88099  Biso   1.000  O
  O52      1.0000 0.72283  0.44595  0.21760  Biso   1.000  O
  C154     1.0000 0.67848  0.51257  0.21739  Biso   1.000  C
  C155     1.0000 0.67985  0.62429  0.23821  Biso   1.000  C
  C156     1.0000 0.67630  0.45233  0.20790  Biso   1.000  C
  C157     1.0000 0.62906  0.57555  0.21445  Biso   1.000  C
  H103     1.0000 0.59503  0.58037  0.20497  Biso   1.000  H
  C158     1.0000 0.62864  0.52026  0.20475  Biso   1.000  C
  H104     1.0000 0.59373  0.48737  0.18927  Biso   1.000  H
  C159     1.0000 0.73073  0.61734  0.24925  Biso   1.000  C
  H105     1.0000 0.76603  0.65047  0.26417  Biso   1.000  H
  C160     1.0000 0.73040  0.56247  0.23872  Biso   1.000  C
  H106     1.0000 0.76573  0.55877  0.24607  Biso   1.000  H
  C161     1.0000 0.77434  0.75649  0.20981  Biso   1.000  C
  H107     1.0000 0.76123  0.73137  0.18217  Biso   1.000  H
  O53      1.0000 0.62776  0.40785  0.19001  Biso   1.000  O
  C162     1.0000 0.83075  0.81245  0.20959  Biso   1.000  C
  H108     1.0000 0.85603  0.82497  0.18197  Biso   1.000  H
  O54      1.0000 0.94521  0.92266  0.21433  Biso   1.000  O
  O55      1.0000 0.38950  0.61022  0.05093  Biso   1.000  O
  C163     1.0000 0.34515  0.49925  0.05072  Biso   1.000  C
  C164     1.0000 0.34652  0.38890  0.07154  Biso   1.000  C
  C165     1.0000 0.34297  0.55731  0.04123  Biso   1.000  C
  C166     1.0000 0.29573  0.38685  0.04778  Biso   1.000  C
  H109     1.0000 0.26170  0.34800  0.03830  Biso   1.000  H
  C167     1.0000 0.29531  0.44172  0.03808  Biso   1.000  C
  H110     1.0000 0.26040  0.43970  0.02260  Biso   1.000  H
  C168     1.0000 0.39740  0.44673  0.08258  Biso   1.000  C
  H111     1.0000 0.43270  0.44890  0.09750  Biso   1.000  H
  C169     1.0000 0.39707  0.50127  0.07205  Biso   1.000  C
  H112     1.0000 0.43240  0.54030  0.07940  Biso   1.000  H
  C170     1.0000 0.44101  0.35119  0.04314  Biso   1.000  C
  H113     1.0000 0.42790  0.36320  0.01550  Biso   1.000  H
  O56      1.0000 0.29443  0.55325  0.02334  Biso   1.000  O
  C171     1.0000 0.49742  0.35164  0.04292  Biso   1.000  C
  H114     1.0000 0.52270  0.36440  0.01530  Biso   1.000  H
  O57      1.0000 0.61188  0.35589  0.04766  Biso   1.000  O
  O58      1.0000 0.05617  0.94355  0.38426  Biso   1.000  O
  C172     1.0000 0.01182  0.83258  0.38405  Biso   1.000  C
  C173     1.0000 0.01319  0.72223  0.40487  Biso   1.000  C
  C174     1.0000 0.00964  0.89064  0.37456  Biso   1.000  C
  C175     1.0000 0.96240  0.72018  0.38111  Biso   1.000  C
  H115     1.0000 0.92837  0.68133  0.37163  Biso   1.000  H
  C176     1.0000 0.96198  0.77505  0.37141  Biso   1.000  C
  H116     1.0000 0.92707  0.77303  0.35593  Biso   1.000  H
  C177     1.0000 0.06407  0.78006  0.41591  Biso   1.000  C
  H117     1.0000 0.09937  0.78223  0.43083  Biso   1.000  H
  C178     1.0000 0.06374  0.83460  0.40538  Biso   1.000  C
  H118     1.0000 0.09907  0.87363  0.41273  Biso   1.000  H
  C179     1.0000 0.10768  0.68452  0.37647  Biso   1.000  C
  H119     1.0000 0.09457  0.69653  0.34883  Biso   1.000  H
  O59      1.0000 0.96110  0.88658  0.35667  Biso   1.000  O
  C180     1.0000 0.16409  0.68497  0.37625  Biso   1.000  C
  H120     1.0000 0.18937  0.69773  0.34863  Biso   1.000  H
  O60      1.0000 0.27855  0.68922  0.38099  Biso   1.000  O
  O61      1.0000 0.72283  0.27689  0.71760  Biso   1.000  O
  C181     1.0000 0.67848  0.16592  0.71739  Biso   1.000  C
  C182     1.0000 0.67985  0.05557  0.73821  Biso   1.000  C
  C183     1.0000 0.67630  0.22398  0.70790  Biso   1.000  C
  C184     1.0000 0.62906  0.05352  0.71445  Biso   1.000  C
  H121     1.0000 0.59503  0.01467  0.70497  Biso   1.000  H
  C185     1.0000 0.62864  0.10839  0.70475  Biso   1.000  C
  H122     1.0000 0.59373  0.10637  0.68927  Biso   1.000  H
  C186     1.0000 0.73073  0.11340  0.74925  Biso   1.000  C
  H123     1.0000 0.76603  0.11557  0.76417  Biso   1.000  H
  C187     1.0000 0.73040  0.16794  0.73872  Biso   1.000  C
  H124     1.0000 0.76573  0.20697  0.74607  Biso   1.000  H
  C188     1.0000 0.77434  0.01786  0.70981  Biso   1.000  C
  H125     1.0000 0.76123  0.02987  0.68217  Biso   1.000  H
  O62      1.0000 0.62776  0.21992  0.69001  Biso   1.000  O
  C189     1.0000 0.83075  0.01831  0.70959  Biso   1.000  C
  H126     1.0000 0.85603  0.03107  0.68197  Biso   1.000  H
  O63      1.0000 0.94521  0.02256  0.71433  Biso   1.000  O
  O64      1.0000 0.38978  0.77928  0.05093  Biso   1.000  O
  C190     1.0000 0.50075  0.84590  0.05072  Biso   1.000  C
  C191     1.0000 0.61110  0.95762  0.07154  Biso   1.000  C
  C192     1.0000 0.44269  0.78566  0.04123  Biso   1.000  C
  C193     1.0000 0.61315  0.90888  0.04778  Biso   1.000  C
  H127     1.0000 0.65200  0.91370  0.03830  Biso   1.000  H
  C194     1.0000 0.55828  0.85359  0.03808  Biso   1.000  C
  H128     1.0000 0.56030  0.82070  0.02260  Biso   1.000  H
  C195     1.0000 0.55327  0.95067  0.08258  Biso   1.000  C
  H129     1.0000 0.55110  0.98380  0.09750  Biso   1.000  H
  C196     1.0000 0.49873  0.89580  0.07205  Biso   1.000  C
  H130     1.0000 0.45970  0.89210  0.07940  Biso   1.000  H
  C197     1.0000 0.64881  0.08982  0.04314  Biso   1.000  C
  H131     1.0000 0.63680  0.06470  0.01550  Biso   1.000  H
  O65      1.0000 0.44675  0.74118  0.02334  Biso   1.000  O
  C198     1.0000 0.64836  0.14578  0.04292  Biso   1.000  C
  H132     1.0000 0.63560  0.15830  0.01530  Biso   1.000  H
  O66      1.0000 0.64411  0.25599  0.04766  Biso   1.000  O
  O67      1.0000 0.05645  0.11261  0.38426  Biso   1.000  O
  C199     1.0000 0.16742  0.17923  0.38405  Biso   1.000  C
  C200     1.0000 0.27777  0.29095  0.40487  Biso   1.000  C
  C201     1.0000 0.10936  0.11899  0.37456  Biso   1.000  C
  C202     1.0000 0.27982  0.24221  0.38111  Biso   1.000  C
  H133     1.0000 0.31867  0.24703  0.37163  Biso   1.000  H
  C203     1.0000 0.22495  0.18692  0.37141  Biso   1.000  C
  H134     1.0000 0.22697  0.15403  0.35593  Biso   1.000  H
  C204     1.0000 0.21994  0.28400  0.41591  Biso   1.000  C
  H135     1.0000 0.21777  0.31713  0.43083  Biso   1.000  H
  C205     1.0000 0.16540  0.22913  0.40538  Biso   1.000  C
  H136     1.0000 0.12637  0.22543  0.41273  Biso   1.000  H
  C206     1.0000 0.31548  0.42315  0.37647  Biso   1.000  C
  H137     1.0000 0.30347  0.39803  0.34883  Biso   1.000  H
  O68      1.0000 0.11342  0.07451  0.35667  Biso   1.000  O
  C207     1.0000 0.31503  0.47911  0.37625  Biso   1.000  C
  H138     1.0000 0.30227  0.49163  0.34863  Biso   1.000  H
  O69      1.0000 0.31078  0.58932  0.38099  Biso   1.000  O
  O70      1.0000 0.72311  0.44595  0.71760  Biso   1.000  O
  C208     1.0000 0.83408  0.51257  0.71739  Biso   1.000  C
  C209     1.0000 0.94443  0.62429  0.73821  Biso   1.000  C
  C210     1.0000 0.77602  0.45233  0.70790  Biso   1.000  C
  C211     1.0000 0.94648  0.57555  0.71445  Biso   1.000  C
  H139     1.0000 0.98533  0.58037  0.70497  Biso   1.000  H
  C212     1.0000 0.89161  0.52026  0.70475  Biso   1.000  C
  H140     1.0000 0.89363  0.48737  0.68927  Biso   1.000  H
  C213     1.0000 0.88660  0.61734  0.74925  Biso   1.000  C
  H141     1.0000 0.88443  0.65047  0.76417  Biso   1.000  H
  C214     1.0000 0.83206  0.56247  0.73872  Biso   1.000  C
  H142     1.0000 0.79303  0.55877  0.74607  Biso   1.000  H
  C215     1.0000 0.98214  0.75649  0.70981  Biso   1.000  C
  H143     1.0000 0.97013  0.73137  0.68217  Biso   1.000  H
  O71      1.0000 0.78008  0.40785  0.69001  Biso   1.000  O
  C216     1.0000 0.98169  0.81245  0.70959  Biso   1.000  C
  H144     1.0000 0.96893  0.82497  0.68197  Biso   1.000  H
  O72      1.0000 0.97744  0.92266  0.71433  Biso   1.000  O
  O73      1.0000 0.22072  0.61050  0.05093  Biso   1.000  O
  C217     1.0000 0.15410  0.65485  0.05072  Biso   1.000  C
  C218     1.0000 0.04238  0.65348  0.07154  Biso   1.000  C
  C219     1.0000 0.21434  0.65703  0.04123  Biso   1.000  C
  C220     1.0000 0.09112  0.70427  0.04778  Biso   1.000  C
  H145     1.0000 0.08630  0.73830  0.03830  Biso   1.000  H
  C221     1.0000 0.14641  0.70469  0.03808  Biso   1.000  C
  H146     1.0000 0.17930  0.73960  0.02260  Biso   1.000  H
  C222     1.0000 0.04933  0.60260  0.08258  Biso   1.000  C
  H147     1.0000 0.01620  0.56730  0.09750  Biso   1.000  H
  C223     1.0000 0.10420  0.60293  0.07205  Biso   1.000  C
  H148     1.0000 0.10790  0.56760  0.07940  Biso   1.000  H
  C224     1.0000 0.91018  0.55899  0.04314  Biso   1.000  C
  H149     1.0000 0.93530  0.57210  0.01550  Biso   1.000  H
  O74      1.0000 0.25882  0.70557  0.02334  Biso   1.000  O
  C225     1.0000 0.85422  0.50258  0.04292  Biso   1.000  C
  H150     1.0000 0.84170  0.47730  0.01530  Biso   1.000  H
  O75      1.0000 0.74401  0.38812  0.04766  Biso   1.000  O
  O76      1.0000 0.88739  0.94383  0.38426  Biso   1.000  O
  C226     1.0000 0.82077  0.98818  0.38405  Biso   1.000  C
  C227     1.0000 0.70905  0.98681  0.40487  Biso   1.000  C
  C228     1.0000 0.88101  0.99036  0.37456  Biso   1.000  C
  C229     1.0000 0.75779  0.03760  0.38111  Biso   1.000  C
  H151     1.0000 0.75297  0.07163  0.37163  Biso   1.000  H
  C230     1.0000 0.81308  0.03802  0.37141  Biso   1.000  C
  H152     1.0000 0.84597  0.07293  0.35593  Biso   1.000  H
  C231     1.0000 0.71600  0.93593  0.41591  Biso   1.000  C
  H153     1.0000 0.68287  0.90063  0.43083  Biso   1.000  H
  C232     1.0000 0.77087  0.93626  0.40538  Biso   1.000  C
  H154     1.0000 0.77457  0.90093  0.41273  Biso   1.000  H
  C233     1.0000 0.57685  0.89232  0.37647  Biso   1.000  C
  H155     1.0000 0.60197  0.90543  0.34883  Biso   1.000  H
  O77      1.0000 0.92549  0.03890  0.35667  Biso   1.000  O
  C234     1.0000 0.52089  0.83591  0.37625  Biso   1.000  C
  H156     1.0000 0.50837  0.81063  0.34863  Biso   1.000  H
  O78      1.0000 0.41068  0.72145  0.38099  Biso   1.000  O
  O79      1.0000 0.55405  0.27717  0.71760  Biso   1.000  O
  C235     1.0000 0.48743  0.32152  0.71739  Biso   1.000  C
  C236     1.0000 0.37571  0.32015  0.73821  Biso   1.000  C
  C237     1.0000 0.54767  0.32370  0.70790  Biso   1.000  C
  C238     1.0000 0.42445  0.37094  0.71445  Biso   1.000  C
  H157     1.0000 0.41963  0.40497  0.70497  Biso   1.000  H
  C239     1.0000 0.47974  0.37136  0.70475  Biso   1.000  C
  H158     1.0000 0.51263  0.40627  0.68927  Biso   1.000  H
  C240     1.0000 0.38266  0.26927  0.74925  Biso   1.000  C
  H159     1.0000 0.34953  0.23397  0.76417  Biso   1.000  H
  C241     1.0000 0.43753  0.26960  0.73872  Biso   1.000  C
  H160     1.0000 0.44123  0.23427  0.74607  Biso   1.000  H
  C242     1.0000 0.24351  0.22566  0.70981  Biso   1.000  C
  H161     1.0000 0.26863  0.23877  0.68217  Biso   1.000  H
  O80      1.0000 0.59215  0.37224  0.69001  Biso   1.000  O
  C243     1.0000 0.18755  0.16925  0.70959  Biso   1.000  C
  H162     1.0000 0.17503  0.14397  0.68197  Biso   1.000  H
  O81      1.0000 0.07734  0.05479  0.71433  Biso   1.000  O
  O82      1.0000 0.61022  0.38950  0.44907  Biso   1.000  O
  C244     1.0000 0.49925  0.34515  0.44928  Biso   1.000  C
  C245     1.0000 0.38890  0.34652  0.42846  Biso   1.000  C
  C246     1.0000 0.55731  0.34297  0.45877  Biso   1.000  C
  C247     1.0000 0.38685  0.29573  0.45222  Biso   1.000  C
  H163     1.0000 0.34800  0.26170  0.46170  Biso   1.000  H
  C248     1.0000 0.44172  0.29531  0.46192  Biso   1.000  C
  H164     1.0000 0.43970  0.26040  0.47740  Biso   1.000  H
  C249     1.0000 0.44673  0.39740  0.41742  Biso   1.000  C
  H165     1.0000 0.44890  0.43270  0.40250  Biso   1.000  H
  C250     1.0000 0.50127  0.39707  0.42795  Biso   1.000  C
  H166     1.0000 0.54030  0.43240  0.42060  Biso   1.000  H
  C251     1.0000 0.35119  0.44101  0.45686  Biso   1.000  C
  H167     1.0000 0.36320  0.42790  0.48450  Biso   1.000  H
  O83      1.0000 0.55325  0.29443  0.47666  Biso   1.000  O
  C252     1.0000 0.35164  0.49742  0.45708  Biso   1.000  C
  H168     1.0000 0.36440  0.52270  0.48470  Biso   1.000  H
  O84      1.0000 0.35589  0.61188  0.45234  Biso   1.000  O
  O85      1.0000 0.27689  0.72283  0.78240  Biso   1.000  O
  C253     1.0000 0.16592  0.67848  0.78261  Biso   1.000  C
  C254     1.0000 0.05557  0.67985  0.76179  Biso   1.000  C
  C255     1.0000 0.22398  0.67630  0.79210  Biso   1.000  C
  C256     1.0000 0.05352  0.62906  0.78555  Biso   1.000  C
  H169     1.0000 0.01467  0.59503  0.79503  Biso   1.000  H
  C257     1.0000 0.10839  0.62864  0.79525  Biso   1.000  C
  H170     1.0000 0.10637  0.59373  0.81073  Biso   1.000  H
  C258     1.0000 0.11340  0.73073  0.75075  Biso   1.000  C
  H171     1.0000 0.11557  0.76603  0.73583  Biso   1.000  H
  C259     1.0000 0.16794  0.73040  0.76128  Biso   1.000  C
  H172     1.0000 0.20697  0.76573  0.75393  Biso   1.000  H
  C260     1.0000 0.01786  0.77434  0.79019  Biso   1.000  C
  H173     1.0000 0.02987  0.76123  0.81783  Biso   1.000  H
  O86      1.0000 0.21992  0.62776  0.80999  Biso   1.000  O
  C261     1.0000 0.01831  0.83075  0.79041  Biso   1.000  C
  H174     1.0000 0.03107  0.85603  0.81803  Biso   1.000  H
  O87      1.0000 0.02256  0.94521  0.78567  Biso   1.000  O
  O88      1.0000 0.94355  0.05617  0.11574  Biso   1.000  O
  C262     1.0000 0.83258  0.01182  0.11595  Biso   1.000  C
  C263     1.0000 0.72223  0.01319  0.09513  Biso   1.000  C
  C264     1.0000 0.89064  0.00964  0.12544  Biso   1.000  C
  C265     1.0000 0.72018  0.96240  0.11889  Biso   1.000  C
  H175     1.0000 0.68133  0.92837  0.12837  Biso   1.000  H
  C266     1.0000 0.77505  0.96198  0.12859  Biso   1.000  C
  H176     1.0000 0.77303  0.92707  0.14407  Biso   1.000  H
  C267     1.0000 0.78006  0.06407  0.08409  Biso   1.000  C
  H177     1.0000 0.78223  0.09937  0.06917  Biso   1.000  H
  C268     1.0000 0.83460  0.06374  0.09462  Biso   1.000  C
  H178     1.0000 0.87363  0.09907  0.08727  Biso   1.000  H
  C269     1.0000 0.68452  0.10768  0.12353  Biso   1.000  C
  H179     1.0000 0.69653  0.09457  0.15117  Biso   1.000  H
  O89      1.0000 0.88658  0.96110  0.14333  Biso   1.000  O
  C270     1.0000 0.68497  0.16409  0.12375  Biso   1.000  C
  H180     1.0000 0.69773  0.18937  0.15137  Biso   1.000  H
  O90      1.0000 0.68922  0.27855  0.11901  Biso   1.000  O
  O91      1.0000 0.77928  0.38978  0.44907  Biso   1.000  O
  C271     1.0000 0.84590  0.50075  0.44928  Biso   1.000  C
  C272     1.0000 0.95762  0.61110  0.42846  Biso   1.000  C
  C273     1.0000 0.78566  0.44269  0.45877  Biso   1.000  C
  C274     1.0000 0.90888  0.61315  0.45222  Biso   1.000  C
  H181     1.0000 0.91370  0.65200  0.46170  Biso   1.000  H
  C275     1.0000 0.85359  0.55828  0.46192  Biso   1.000  C
  H182     1.0000 0.82070  0.56030  0.47740  Biso   1.000  H
  C276     1.0000 0.95067  0.55327  0.41742  Biso   1.000  C
  H183     1.0000 0.98380  0.55110  0.40250  Biso   1.000  H
  C277     1.0000 0.89580  0.49873  0.42795  Biso   1.000  C
  H184     1.0000 0.89210  0.45970  0.42060  Biso   1.000  H
  C278     1.0000 0.08982  0.64881  0.45686  Biso   1.000  C
  H185     1.0000 0.06470  0.63680  0.48450  Biso   1.000  H
  O92      1.0000 0.74118  0.44675  0.47666  Biso   1.000  O
  C279     1.0000 0.14578  0.64836  0.45708  Biso   1.000  C
  H186     1.0000 0.15830  0.63560  0.48470  Biso   1.000  H
  O93      1.0000 0.25599  0.64411  0.45234  Biso   1.000  O
  O94      1.0000 0.44595  0.72311  0.78240  Biso   1.000  O
  C280     1.0000 0.51257  0.83408  0.78261  Biso   1.000  C
  C281     1.0000 0.62429  0.94443  0.76179  Biso   1.000  C
  C282     1.0000 0.45233  0.77602  0.79210  Biso   1.000  C
  C283     1.0000 0.57555  0.94648  0.78555  Biso   1.000  C
  H187     1.0000 0.58037  0.98533  0.79503  Biso   1.000  H
  C284     1.0000 0.52026  0.89161  0.79525  Biso   1.000  C
  H188     1.0000 0.48737  0.89363  0.81073  Biso   1.000  H
  C285     1.0000 0.61734  0.88660  0.75075  Biso   1.000  C
  H189     1.0000 0.65047  0.88443  0.73583  Biso   1.000  H
  C286     1.0000 0.56247  0.83206  0.76128  Biso   1.000  C
  H190     1.0000 0.55877  0.79303  0.75393  Biso   1.000  H
  C287     1.0000 0.75649  0.98214  0.79019  Biso   1.000  C
  H191     1.0000 0.73137  0.97013  0.81783  Biso   1.000  H
  O95      1.0000 0.40785  0.78008  0.80999  Biso   1.000  O
  C288     1.0000 0.81245  0.98169  0.79041  Biso   1.000  C
  H192     1.0000 0.82497  0.96893  0.81803  Biso   1.000  H
  O96      1.0000 0.92266  0.97744  0.78567  Biso   1.000  O
  O97      1.0000 0.11261  0.05645  0.11574  Biso   1.000  O
  C289     1.0000 0.17923  0.16742  0.11595  Biso   1.000  C
  C290     1.0000 0.29095  0.27777  0.09513  Biso   1.000  C
  C291     1.0000 0.11899  0.10936  0.12544  Biso   1.000  C
  C292     1.0000 0.24221  0.27982  0.11889  Biso   1.000  C
  H193     1.0000 0.24703  0.31867  0.12837  Biso   1.000  H
  C293     1.0000 0.18692  0.22495  0.12859  Biso   1.000  C
  H194     1.0000 0.15403  0.22697  0.14407  Biso   1.000  H
  C294     1.0000 0.28400  0.21994  0.08409  Biso   1.000  C
  H195     1.0000 0.31713  0.21777  0.06917  Biso   1.000  H
  C295     1.0000 0.22913  0.16540  0.09462  Biso   1.000  C
  H196     1.0000 0.22543  0.12637  0.08727  Biso   1.000  H
  C296     1.0000 0.42315  0.31548  0.12353  Biso   1.000  C
  H197     1.0000 0.39803  0.30347  0.15117  Biso   1.000  H
  O98      1.0000 0.07451  0.11342  0.14333  Biso   1.000  O
  C297     1.0000 0.47911  0.31503  0.12375  Biso   1.000  C
  H198     1.0000 0.49163  0.30227  0.15137  Biso   1.000  H
  O99      1.0000 0.58932  0.31078  0.11901  Biso   1.000  O
  O100     1.0000 0.61050  0.22072  0.44907  Biso   1.000  O
  C298     1.0000 0.65485  0.15410  0.44928  Biso   1.000  C
  C299     1.0000 0.65348  0.04238  0.42846  Biso   1.000  C
  C300     1.0000 0.65703  0.21434  0.45877  Biso   1.000  C
  C301     1.0000 0.70427  0.09112  0.45222  Biso   1.000  C
  H199     1.0000 0.73830  0.08630  0.46170  Biso   1.000  H
  C302     1.0000 0.70469  0.14641  0.46192  Biso   1.000  C
  H200     1.0000 0.73960  0.17930  0.47740  Biso   1.000  H
  C303     1.0000 0.60260  0.04933  0.41742  Biso   1.000  C
  H201     1.0000 0.56730  0.01620  0.40250  Biso   1.000  H
  C304     1.0000 0.60293  0.10420  0.42795  Biso   1.000  C
  H202     1.0000 0.56760  0.10790  0.42060  Biso   1.000  H
  C305     1.0000 0.55899  0.91018  0.45686  Biso   1.000  C
  H203     1.0000 0.57210  0.93530  0.48450  Biso   1.000  H
  O101     1.0000 0.70557  0.25882  0.47666  Biso   1.000  O
  C306     1.0000 0.50258  0.85422  0.45708  Biso   1.000  C
  H204     1.0000 0.47730  0.84170  0.48470  Biso   1.000  H
  O102     1.0000 0.38812  0.74401  0.45234  Biso   1.000  O
  O103     1.0000 0.27717  0.55405  0.78240  Biso   1.000  O
  C307     1.0000 0.32152  0.48743  0.78261  Biso   1.000  C
  C308     1.0000 0.32015  0.37571  0.76179  Biso   1.000  C
  C309     1.0000 0.32370  0.54767  0.79210  Biso   1.000  C
  C310     1.0000 0.37094  0.42445  0.78555  Biso   1.000  C
  H205     1.0000 0.40497  0.41963  0.79503  Biso   1.000  H
  C311     1.0000 0.37136  0.47974  0.79525  Biso   1.000  C
  H206     1.0000 0.40627  0.51263  0.81073  Biso   1.000  H
  C312     1.0000 0.26927  0.38266  0.75075  Biso   1.000  C
  H207     1.0000 0.23397  0.34953  0.73583  Biso   1.000  H
  C313     1.0000 0.26960  0.43753  0.76128  Biso   1.000  C
  H208     1.0000 0.23427  0.44123  0.75393  Biso   1.000  H
  C314     1.0000 0.22566  0.24351  0.79019  Biso   1.000  C
  H209     1.0000 0.23877  0.26863  0.81783  Biso   1.000  H
  O104     1.0000 0.37224  0.59215  0.80999  Biso   1.000  O
  C315     1.0000 0.16925  0.18755  0.79041  Biso   1.000  C
  H210     1.0000 0.14397  0.17503  0.81803  Biso   1.000  H
  O105     1.0000 0.05479  0.07734  0.78567  Biso   1.000  O
  O106     1.0000 0.94383  0.88739  0.11574  Biso   1.000  O
  C316     1.0000 0.98818  0.82077  0.11595  Biso   1.000  C
  C317     1.0000 0.98681  0.70905  0.09513  Biso   1.000  C
  C318     1.0000 0.99036  0.88101  0.12544  Biso   1.000  C
  C319     1.0000 0.03760  0.75779  0.11889  Biso   1.000  C
  H211     1.0000 0.07163  0.75297  0.12837  Biso   1.000  H
  C320     1.0000 0.03802  0.81308  0.12859  Biso   1.000  C
  H212     1.0000 0.07293  0.84597  0.14407  Biso   1.000  H
  C321     1.0000 0.93593  0.71600  0.08409  Biso   1.000  C
  H213     1.0000 0.90063  0.68287  0.06917  Biso   1.000  H
  C322     1.0000 0.93626  0.77087  0.09462  Biso   1.000  C
  H214     1.0000 0.90093  0.77457  0.08727  Biso   1.000  H
  C323     1.0000 0.89232  0.57685  0.12353  Biso   1.000  C
  H215     1.0000 0.90543  0.60197  0.15117  Biso   1.000  H
  O107     1.0000 0.03890  0.92549  0.14333  Biso   1.000  O
  C324     1.0000 0.83591  0.52089  0.12375  Biso   1.000  C
  H216     1.0000 0.81063  0.50837  0.15137  Biso   1.000  H
  O108     1.0000 0.72145  0.41068  0.11901  Biso   1.000  O
  Th1      1.0000 0.66667  0.33333  0.98777  Biso   1.000  Th
  Th2      1.0000 0.33333  0.66667  0.32110  Biso   1.000  Th
  Th3      1.0000 0.00000  0.00000  0.65444  Biso   1.000  Th
  Th4      1.0000 0.33333  0.66667  0.51223  Biso   1.000  Th
  Th5      1.0000 0.00000  0.00000  0.84556  Biso   1.000  Th
  Th6      1.0000 0.66667  0.33333  0.17890  Biso   1.000  Th
  Th7      1.0000 0.33333  0.66667  0.01223  Biso   1.000  Th
  Th8      1.0000 0.00000  0.00000  0.34556  Biso   1.000  Th
  Th9      1.0000 0.66667  0.33333  0.67890  Biso   1.000  Th
  Th10     1.0000 0.66667  0.33333  0.48777  Biso   1.000  Th
  Th11     1.0000 0.33333  0.66667  0.82110  Biso   1.000  Th
  Th12     1.0000 0.00000  0.00000  0.15444  Biso   1.000  Th
  N1       1.0000 0.65386  0.66667  0.91667  Biso   1.000  N
  C325     1.0000 0.59618  0.66667  0.91667  Biso   1.000  C
  C326     1.0000 0.48316  0.66667  0.91667  Biso   1.000  C
  C327     1.0000 0.42286  0.66667  0.91667  Biso   1.000  C
  N2       1.0000 0.32053  0.00000  0.25000  Biso   1.000  N
  C328     1.0000 0.26285  0.00000  0.25000  Biso   1.000  C
  C329     1.0000 0.14983  0.00000  0.25000  Biso   1.000  C
  C330     1.0000 0.08953  0.00000  0.25000  Biso   1.000  C
  N3       1.0000 0.33333  0.98720  0.91667  Biso   1.000  N
  C331     1.0000 0.33333  0.92952  0.91667  Biso   1.000  C
  C332     1.0000 0.33333  0.81650  0.91667  Biso   1.000  C
  C333     1.0000 0.33333  0.75620  0.91667  Biso   1.000  C
  N4       1.0000 0.00000  0.32053  0.25000  Biso   1.000  N
  C334     1.0000 0.00000  0.26285  0.25000  Biso   1.000  C
  C335     1.0000 0.00000  0.14983  0.25000  Biso   1.000  C
  C336     1.0000 0.00000  0.08953  0.25000  Biso   1.000  C
  N5       1.0000 0.01280  0.34614  0.91667  Biso   1.000  N
  C337     1.0000 0.07048  0.40382  0.91667  Biso   1.000  C
  C338     1.0000 0.18350  0.51684  0.91667  Biso   1.000  C
  C339     1.0000 0.24380  0.57714  0.91667  Biso   1.000  C
  N6       1.0000 0.67947  0.67947  0.25000  Biso   1.000  N
  C340     1.0000 0.73715  0.73715  0.25000  Biso   1.000  C
  C341     1.0000 0.85017  0.85017  0.25000  Biso   1.000  C
  C342     1.0000 0.91047  0.91047  0.25000  Biso   1.000  C
  N7       1.0000 0.66667  0.65386  0.58333  Biso   1.000  N
  C343     1.0000 0.66667  0.59618  0.58333  Biso   1.000  C
  C344     1.0000 0.66667  0.48316  0.58333  Biso   1.000  C
  C345     1.0000 0.66667  0.42286  0.58333  Biso   1.000  C
  N8       1.0000 0.98720  0.33333  0.58333  Biso   1.000  N
  C346     1.0000 0.92952  0.33333  0.58333  Biso   1.000  C
  C347     1.0000 0.81650  0.33333  0.58333  Biso   1.000  C
  C348     1.0000 0.75620  0.33333  0.58333  Biso   1.000  C
  N9       1.0000 0.34614  0.01280  0.58333  Biso   1.000  N
  C349     1.0000 0.40382  0.07048  0.58333  Biso   1.000  C
  C350     1.0000 0.51684  0.18350  0.58333  Biso   1.000  C
  C351     1.0000 0.57714  0.24380  0.58333  Biso   1.000  C
  N10      1.0000 0.34614  0.33333  0.08333  Biso   1.000  N
  C352     1.0000 0.40382  0.33333  0.08333  Biso   1.000  C
  C353     1.0000 0.51684  0.33333  0.08333  Biso   1.000  C
  C354     1.0000 0.57714  0.33333  0.08333  Biso   1.000  C
  N11      1.0000 0.66667  0.01280  0.08333  Biso   1.000  N
  C355     1.0000 0.66667  0.07048  0.08333  Biso   1.000  C
  C356     1.0000 0.66667  0.18350  0.08333  Biso   1.000  C
  C357     1.0000 0.66667  0.24380  0.08333  Biso   1.000  C
  N12      1.0000 0.98720  0.65386  0.08333  Biso   1.000  N
  C358     1.0000 0.92952  0.59618  0.08333  Biso   1.000  C
  C359     1.0000 0.81650  0.48316  0.08333  Biso   1.000  C
  C360     1.0000 0.75620  0.42286  0.08333  Biso   1.000  C
  N13      1.0000 0.33333  0.34614  0.41667  Biso   1.000  N
  C361     1.0000 0.33333  0.40382  0.41667  Biso   1.000  C
  C362     1.0000 0.33333  0.51684  0.41667  Biso   1.000  C
  C363     1.0000 0.33333  0.57714  0.41667  Biso   1.000  C
  N14      1.0000 0.00000  0.67947  0.75000  Biso   1.000  N
  C364     1.0000 0.00000  0.73715  0.75000  Biso   1.000  C
  C365     1.0000 0.00000  0.85017  0.75000  Biso   1.000  C
  C366     1.0000 0.00000  0.91047  0.75000  Biso   1.000  C
  N15      1.0000 0.01280  0.66667  0.41667  Biso   1.000  N
  C367     1.0000 0.07048  0.66667  0.41667  Biso   1.000  C
  C368     1.0000 0.18350  0.66667  0.41667  Biso   1.000  C
  C369     1.0000 0.24380  0.66667  0.41667  Biso   1.000  C
  N16      1.0000 0.67947  0.00000  0.75000  Biso   1.000  N
  C370     1.0000 0.73715  0.00000  0.75000  Biso   1.000  C
  C371     1.0000 0.85017  0.00000  0.75000  Biso   1.000  C
  C372     1.0000 0.91047  0.00000  0.75000  Biso   1.000  C
  N17      1.0000 0.65386  0.98720  0.41667  Biso   1.000  N
  C373     1.0000 0.59618  0.92952  0.41667  Biso   1.000  C
  C374     1.0000 0.48316  0.81650  0.41667  Biso   1.000  C
  C375     1.0000 0.42286  0.75620  0.41667  Biso   1.000  C
  N18      1.0000 0.32053  0.32053  0.75000  Biso   1.000  N
  C376     1.0000 0.26285  0.26285  0.75000  Biso   1.000  C
  C377     1.0000 0.14983  0.14983  0.75000  Biso   1.000  C
  C378     1.0000 0.08953  0.08953  0.75000  Biso   1.000  C
