data_PEVQOY_clean_h
_audit_creation_date              2014-07-02
_audit_creation_method            'Materials Studio'
_symmetry_space_group_name_H-M    'P1'
_symmetry_Int_Tables_number       1
_symmetry_cell_setting            triclinic
loop_
_symmetry_equiv_pos_as_xyz
  x,y,z
_cell_length_a                    25.5430
_cell_length_b                    25.5430
_cell_length_c                    25.5430
_cell_angle_alpha                 90.0000
_cell_angle_beta                  90.0000
_cell_angle_gamma                 90.0000
loop_
_atom_site_label
_atom_site_type_symbol
_atom_site_fract_x
_atom_site_fract_y
_atom_site_fract_z
_atom_site_U_iso_or_equiv
_atom_site_adp_type
_atom_site_occupancy
Zn1    Zn    0.79368   0.70632   0.29368   0.00000  Uiso   1.00
Zn2    Zn    0.79368   0.20632   0.79368   0.00000  Uiso   1.00
Zn3    Zn    0.20632   0.29368   0.29368   0.00000  Uiso   1.00
Zn4    Zn    0.20632   0.79368   0.79368   0.00000  Uiso   1.00
Zn5    Zn    0.20632   0.70632   0.70632   0.00000  Uiso   1.00
Zn6    Zn    0.20632   0.20632   0.20632   0.00000  Uiso   1.00
Zn7    Zn    0.79368   0.29368   0.70632   0.00000  Uiso   1.00
Zn8    Zn    0.79368   0.79368   0.20632   0.00000  Uiso   1.00
Zn9    Zn    0.29368   0.79368   0.70632   0.00000  Uiso   1.00
Zn10   Zn    0.29368   0.20632   0.29368   0.00000  Uiso   1.00
Zn11   Zn    0.70632   0.20632   0.70632   0.00000  Uiso   1.00
Zn12   Zn    0.70632   0.79368   0.29368   0.00000  Uiso   1.00
Zn13   Zn    0.70632   0.29368   0.79368   0.00000  Uiso   1.00
Zn14   Zn    0.29368   0.29368   0.20632   0.00000  Uiso   1.00
Zn15   Zn    0.70632   0.70632   0.20632   0.00000  Uiso   1.00
Zn16   Zn    0.29368   0.70632   0.79368   0.00000  Uiso   1.00
Zn17   Zn    0.70632   0.79368   0.70632   0.00000  Uiso   1.00
Zn18   Zn    0.29368   0.20632   0.70632   0.00000  Uiso   1.00
Zn19   Zn    0.70632   0.20632   0.29368   0.00000  Uiso   1.00
Zn20   Zn    0.29368   0.79368   0.29368   0.00000  Uiso   1.00
Zn21   Zn    0.79368   0.29368   0.29368   0.00000  Uiso   1.00
Zn22   Zn    0.79368   0.79368   0.79368   0.00000  Uiso   1.00
Zn23   Zn    0.20632   0.29368   0.70632   0.00000  Uiso   1.00
Zn24   Zn    0.20632   0.79368   0.20632   0.00000  Uiso   1.00
Zn25   Zn    0.20632   0.70632   0.29368   0.00000  Uiso   1.00
Zn26   Zn    0.20632   0.20632   0.79368   0.00000  Uiso   1.00
Zn27   Zn    0.79368   0.70632   0.70632   0.00000  Uiso   1.00
Zn28   Zn    0.79368   0.20632   0.20632   0.00000  Uiso   1.00
Zn29   Zn    0.29368   0.70632   0.20632   0.00000  Uiso   1.00
Zn30   Zn    0.29368   0.29368   0.79368   0.00000  Uiso   1.00
Zn31   Zn    0.70632   0.70632   0.79368   0.00000  Uiso   1.00
Zn32   Zn    0.70632   0.29368   0.20632   0.00000  Uiso   1.00
O33    O     0.78240   0.63430   0.28240   0.00000  Uiso   1.00
C34    C     0.72230   0.52380   0.22230   0.00000  Uiso   1.00
O35    O     0.78240   0.13430   0.78240   0.00000  Uiso   1.00
C36    C     0.72230   0.02380   0.72230   0.00000  Uiso   1.00
O37    O     0.21760   0.36570   0.28240   0.00000  Uiso   1.00
C38    C     0.27770   0.47620   0.22230   0.00000  Uiso   1.00
O39    O     0.21760   0.86570   0.78240   0.00000  Uiso   1.00
C40    C     0.27770   0.97620   0.72230   0.00000  Uiso   1.00
O41    O     0.71760   0.36570   0.78240   0.00000  Uiso   1.00
C42    C     0.77770   0.47620   0.72230   0.00000  Uiso   1.00
O43    O     0.21760   0.63430   0.71760   0.00000  Uiso   1.00
C44    C     0.27770   0.52380   0.77770   0.00000  Uiso   1.00
O45    O     0.21760   0.13430   0.21760   0.00000  Uiso   1.00
C46    C     0.27770   0.02380   0.27770   0.00000  Uiso   1.00
O47    O     0.71760   0.13430   0.71760   0.00000  Uiso   1.00
C48    C     0.77770   0.02380   0.77770   0.00000  Uiso   1.00
O49    O     0.78240   0.36570   0.71760   0.00000  Uiso   1.00
C50    C     0.72230   0.47620   0.77770   0.00000  Uiso   1.00
O51    O     0.78240   0.86570   0.21760   0.00000  Uiso   1.00
C52    C     0.72230   0.97620   0.27770   0.00000  Uiso   1.00
O53    O     0.28240   0.78240   0.63430   0.00000  Uiso   1.00
C54    C     0.22230   0.72230   0.52380   0.00000  Uiso   1.00
O55    O     0.28240   0.28240   0.13430   0.00000  Uiso   1.00
C56    C     0.22230   0.22230   0.02380   0.00000  Uiso   1.00
O57    O     0.78240   0.78240   0.13430   0.00000  Uiso   1.00
C58    C     0.72230   0.72230   0.02380   0.00000  Uiso   1.00
O59    O     0.28240   0.21760   0.36570   0.00000  Uiso   1.00
C60    C     0.22230   0.27770   0.47620   0.00000  Uiso   1.00
O61    O     0.28240   0.71760   0.86570   0.00000  Uiso   1.00
C62    C     0.22230   0.77770   0.97620   0.00000  Uiso   1.00
O63    O     0.78240   0.71760   0.36570   0.00000  Uiso   1.00
C64    C     0.72230   0.77770   0.47620   0.00000  Uiso   1.00
O65    O     0.71760   0.21760   0.63430   0.00000  Uiso   1.00
C66    C     0.77770   0.27770   0.52380   0.00000  Uiso   1.00
O67    O     0.71760   0.71760   0.13430   0.00000  Uiso   1.00
C68    C     0.77770   0.77770   0.02380   0.00000  Uiso   1.00
O69    O     0.71760   0.78240   0.36570   0.00000  Uiso   1.00
C70    C     0.77770   0.72230   0.47620   0.00000  Uiso   1.00
O71    O     0.71760   0.28240   0.86570   0.00000  Uiso   1.00
C72    C     0.77770   0.22230   0.97620   0.00000  Uiso   1.00
O73    O     0.63430   0.28240   0.78240   0.00000  Uiso   1.00
C74    C     0.52380   0.22230   0.72230   0.00000  Uiso   1.00
O75    O     0.13430   0.28240   0.28240   0.00000  Uiso   1.00
C76    C     0.02380   0.22230   0.22230   0.00000  Uiso   1.00
O77    O     0.13430   0.78240   0.78240   0.00000  Uiso   1.00
C78    C     0.02380   0.72230   0.72230   0.00000  Uiso   1.00
O79    O     0.36570   0.28240   0.21760   0.00000  Uiso   1.00
C80    C     0.47620   0.22230   0.27770   0.00000  Uiso   1.00
O81    O     0.36570   0.78240   0.71760   0.00000  Uiso   1.00
C82    C     0.47620   0.72230   0.77770   0.00000  Uiso   1.00
O83    O     0.86570   0.28240   0.71760   0.00000  Uiso   1.00
C84    C     0.97620   0.22230   0.77770   0.00000  Uiso   1.00
O85    O     0.63430   0.71760   0.21760   0.00000  Uiso   1.00
C86    C     0.52380   0.77770   0.27770   0.00000  Uiso   1.00
O87    O     0.13430   0.71760   0.71760   0.00000  Uiso   1.00
C88    C     0.02380   0.77770   0.77770   0.00000  Uiso   1.00
O89    O     0.36570   0.71760   0.78240   0.00000  Uiso   1.00
C90    C     0.47620   0.77770   0.72230   0.00000  Uiso   1.00
O91    O     0.86570   0.71760   0.28240   0.00000  Uiso   1.00
C92    C     0.97620   0.77770   0.22230   0.00000  Uiso   1.00
O93    O     0.63430   0.78240   0.71760   0.00000  Uiso   1.00
C94    C     0.52380   0.72230   0.77770   0.00000  Uiso   1.00
O95    O     0.13430   0.78240   0.21760   0.00000  Uiso   1.00
C96    C     0.02380   0.72230   0.27770   0.00000  Uiso   1.00
O97    O     0.36570   0.21760   0.71760   0.00000  Uiso   1.00
C98    C     0.47620   0.27770   0.77770   0.00000  Uiso   1.00
O99    O     0.86570   0.21760   0.21760   0.00000  Uiso   1.00
C100   C     0.97620   0.27770   0.27770   0.00000  Uiso   1.00
O101   O     0.86570   0.71760   0.71760   0.00000  Uiso   1.00
C102   C     0.97620   0.77770   0.77770   0.00000  Uiso   1.00
O103   O     0.63430   0.21760   0.28240   0.00000  Uiso   1.00
C104   C     0.52380   0.27770   0.22230   0.00000  Uiso   1.00
O105   O     0.63430   0.71760   0.78240   0.00000  Uiso   1.00
C106   C     0.52380   0.77770   0.72230   0.00000  Uiso   1.00
O107   O     0.13430   0.21760   0.78240   0.00000  Uiso   1.00
C108   C     0.02380   0.27770   0.72230   0.00000  Uiso   1.00
O109   O     0.36570   0.78240   0.28240   0.00000  Uiso   1.00
C110   C     0.47620   0.72230   0.22230   0.00000  Uiso   1.00
O111   O     0.86570   0.78240   0.78240   0.00000  Uiso   1.00
C112   C     0.97620   0.72230   0.72230   0.00000  Uiso   1.00
O113   O     0.78240   0.28240   0.36570   0.00000  Uiso   1.00
C114   C     0.72230   0.22230   0.47620   0.00000  Uiso   1.00
O115   O     0.78240   0.78240   0.86570   0.00000  Uiso   1.00
C116   C     0.72230   0.72230   0.97620   0.00000  Uiso   1.00
O117   O     0.21760   0.28240   0.63430   0.00000  Uiso   1.00
C118   C     0.27770   0.22230   0.52380   0.00000  Uiso   1.00
O119   O     0.21760   0.78240   0.13430   0.00000  Uiso   1.00
C120   C     0.27770   0.72230   0.02380   0.00000  Uiso   1.00
O121   O     0.71760   0.78240   0.63430   0.00000  Uiso   1.00
C122   C     0.77770   0.72230   0.52380   0.00000  Uiso   1.00
O123   O     0.21760   0.71760   0.36570   0.00000  Uiso   1.00
C124   C     0.27770   0.77770   0.47620   0.00000  Uiso   1.00
O125   O     0.21760   0.21760   0.86570   0.00000  Uiso   1.00
C126   C     0.27770   0.27770   0.97620   0.00000  Uiso   1.00
O127   O     0.71760   0.71760   0.86570   0.00000  Uiso   1.00
C128   C     0.77770   0.77770   0.97620   0.00000  Uiso   1.00
O129   O     0.78240   0.71760   0.63430   0.00000  Uiso   1.00
C130   C     0.72230   0.77770   0.52380   0.00000  Uiso   1.00
O131   O     0.78240   0.21760   0.13430   0.00000  Uiso   1.00
C132   C     0.72230   0.27770   0.02380   0.00000  Uiso   1.00
O133   O     0.28240   0.63430   0.21760   0.00000  Uiso   1.00
C134   C     0.22230   0.52380   0.27770   0.00000  Uiso   1.00
O135   O     0.28240   0.13430   0.71760   0.00000  Uiso   1.00
C136   C     0.22230   0.02380   0.77770   0.00000  Uiso   1.00
O137   O     0.78240   0.63430   0.71760   0.00000  Uiso   1.00
C138   C     0.72230   0.52380   0.77770   0.00000  Uiso   1.00
O139   O     0.28240   0.36570   0.78240   0.00000  Uiso   1.00
C140   C     0.22230   0.47620   0.72230   0.00000  Uiso   1.00
O141   O     0.28240   0.86570   0.28240   0.00000  Uiso   1.00
C142   C     0.22230   0.97620   0.22230   0.00000  Uiso   1.00
O143   O     0.78240   0.86570   0.78240   0.00000  Uiso   1.00
C144   C     0.72230   0.97620   0.72230   0.00000  Uiso   1.00
O145   O     0.71760   0.63430   0.78240   0.00000  Uiso   1.00
C146   C     0.77770   0.52380   0.72230   0.00000  Uiso   1.00
O147   O     0.71760   0.13430   0.28240   0.00000  Uiso   1.00
C148   C     0.77770   0.02380   0.22230   0.00000  Uiso   1.00
O149   O     0.71760   0.36570   0.21760   0.00000  Uiso   1.00
C150   C     0.77770   0.47620   0.27770   0.00000  Uiso   1.00
O151   O     0.71760   0.86570   0.71760   0.00000  Uiso   1.00
C152   C     0.77770   0.97620   0.77770   0.00000  Uiso   1.00
O153   O     0.21760   0.36570   0.71760   0.00000  Uiso   1.00
C154   C     0.27770   0.47620   0.77770   0.00000  Uiso   1.00
O155   O     0.21760   0.86570   0.21760   0.00000  Uiso   1.00
C156   C     0.27770   0.97620   0.27770   0.00000  Uiso   1.00
O157   O     0.78240   0.13430   0.21760   0.00000  Uiso   1.00
C158   C     0.72230   0.02380   0.27770   0.00000  Uiso   1.00
O159   O     0.78240   0.36570   0.28240   0.00000  Uiso   1.00
C160   C     0.72230   0.47620   0.22230   0.00000  Uiso   1.00
O161   O     0.21760   0.63430   0.28240   0.00000  Uiso   1.00
C162   C     0.27770   0.52380   0.22230   0.00000  Uiso   1.00
O163   O     0.21760   0.13430   0.78240   0.00000  Uiso   1.00
C164   C     0.27770   0.02380   0.72230   0.00000  Uiso   1.00
O165   O     0.71760   0.21760   0.36570   0.00000  Uiso   1.00
C166   C     0.77770   0.27770   0.47620   0.00000  Uiso   1.00
O167   O     0.71760   0.28240   0.13430   0.00000  Uiso   1.00
C168   C     0.77770   0.22230   0.02380   0.00000  Uiso   1.00
O169   O     0.28240   0.78240   0.36570   0.00000  Uiso   1.00
C170   C     0.22230   0.72230   0.47620   0.00000  Uiso   1.00
O171   O     0.28240   0.28240   0.86570   0.00000  Uiso   1.00
C172   C     0.22230   0.22230   0.97620   0.00000  Uiso   1.00
O173   O     0.28240   0.21760   0.63430   0.00000  Uiso   1.00
C174   C     0.22230   0.27770   0.52380   0.00000  Uiso   1.00
O175   O     0.28240   0.71760   0.13430   0.00000  Uiso   1.00
C176   C     0.22230   0.77770   0.02380   0.00000  Uiso   1.00
O177   O     0.36570   0.71760   0.21760   0.00000  Uiso   1.00
C178   C     0.47620   0.77770   0.27770   0.00000  Uiso   1.00
O179   O     0.13430   0.71760   0.28240   0.00000  Uiso   1.00
C180   C     0.02380   0.77770   0.22230   0.00000  Uiso   1.00
O181   O     0.36570   0.28240   0.78240   0.00000  Uiso   1.00
C182   C     0.47620   0.22230   0.72230   0.00000  Uiso   1.00
O183   O     0.86570   0.28240   0.28240   0.00000  Uiso   1.00
C184   C     0.97620   0.22230   0.22230   0.00000  Uiso   1.00
O185   O     0.63430   0.28240   0.21760   0.00000  Uiso   1.00
C186   C     0.52380   0.22230   0.27770   0.00000  Uiso   1.00
O187   O     0.13430   0.28240   0.71760   0.00000  Uiso   1.00
C188   C     0.02380   0.22230   0.77770   0.00000  Uiso   1.00
O189   O     0.36570   0.21760   0.28240   0.00000  Uiso   1.00
C190   C     0.47620   0.27770   0.22230   0.00000  Uiso   1.00
O191   O     0.86570   0.21760   0.78240   0.00000  Uiso   1.00
C192   C     0.97620   0.27770   0.72230   0.00000  Uiso   1.00
O193   O     0.63430   0.78240   0.28240   0.00000  Uiso   1.00
C194   C     0.52380   0.72230   0.22230   0.00000  Uiso   1.00
O195   O     0.86570   0.78240   0.21760   0.00000  Uiso   1.00
C196   C     0.97620   0.72230   0.27770   0.00000  Uiso   1.00
O197   O     0.63430   0.21760   0.71760   0.00000  Uiso   1.00
C198   C     0.52380   0.27770   0.77770   0.00000  Uiso   1.00
O199   O     0.13430   0.21760   0.21760   0.00000  Uiso   1.00
C200   C     0.02380   0.27770   0.27770   0.00000  Uiso   1.00
O201   O     0.21760   0.71760   0.63430   0.00000  Uiso   1.00
C202   C     0.27770   0.77770   0.52380   0.00000  Uiso   1.00
O203   O     0.21760   0.21760   0.13430   0.00000  Uiso   1.00
C204   C     0.27770   0.27770   0.02380   0.00000  Uiso   1.00
O205   O     0.78240   0.21760   0.86570   0.00000  Uiso   1.00
C206   C     0.72230   0.27770   0.97620   0.00000  Uiso   1.00
O207   O     0.78240   0.28240   0.63430   0.00000  Uiso   1.00
C208   C     0.72230   0.22230   0.52380   0.00000  Uiso   1.00
O209   O     0.21760   0.28240   0.36570   0.00000  Uiso   1.00
C210   C     0.27770   0.22230   0.47620   0.00000  Uiso   1.00
O211   O     0.21760   0.78240   0.86570   0.00000  Uiso   1.00
C212   C     0.27770   0.72230   0.97620   0.00000  Uiso   1.00
O213   O     0.71760   0.86570   0.28240   0.00000  Uiso   1.00
C214   C     0.77770   0.97620   0.22230   0.00000  Uiso   1.00
O215   O     0.71760   0.63430   0.21760   0.00000  Uiso   1.00
C216   C     0.77770   0.52380   0.27770   0.00000  Uiso   1.00
O217   O     0.28240   0.36570   0.21760   0.00000  Uiso   1.00
C218   C     0.22230   0.47620   0.27770   0.00000  Uiso   1.00
O219   O     0.28240   0.86570   0.71760   0.00000  Uiso   1.00
C220   C     0.22230   0.97620   0.77770   0.00000  Uiso   1.00
O221   O     0.28240   0.63430   0.78240   0.00000  Uiso   1.00
C222   C     0.22230   0.52380   0.72230   0.00000  Uiso   1.00
O223   O     0.28240   0.13430   0.28240   0.00000  Uiso   1.00
C224   C     0.22230   0.02380   0.22230   0.00000  Uiso   1.00
O225   O     0.75000   0.75000   0.25000   0.00000  Uiso   1.00
O226   O     0.25000   0.25000   0.25000   0.00000  Uiso   1.00
O227   O     0.25000   0.75000   0.75000   0.00000  Uiso   1.00
O228   O     0.75000   0.25000   0.75000   0.00000  Uiso   1.00
O229   O     0.75000   0.75000   0.75000   0.00000  Uiso   1.00
O230   O     0.25000   0.25000   0.75000   0.00000  Uiso   1.00
O231   O     0.75000   0.25000   0.25000   0.00000  Uiso   1.00
O232   O     0.25000   0.75000   0.25000   0.00000  Uiso   1.00
C233   C     0.75000   0.61260   0.25000   0.00000  Uiso   1.00
C234   C     0.75000   0.55520   0.25000   0.00000  Uiso   1.00
C235   C     0.75000   0.11260   0.75000   0.00000  Uiso   1.00
C236   C     0.75000   0.05520   0.75000   0.00000  Uiso   1.00
C237   C     0.25000   0.38740   0.25000   0.00000  Uiso   1.00
C238   C     0.25000   0.44480   0.25000   0.00000  Uiso   1.00
C239   C     0.25000   0.88740   0.75000   0.00000  Uiso   1.00
C240   C     0.25000   0.94480   0.75000   0.00000  Uiso   1.00
C241   C     0.25000   0.61260   0.75000   0.00000  Uiso   1.00
C242   C     0.25000   0.55520   0.75000   0.00000  Uiso   1.00
C243   C     0.25000   0.11260   0.25000   0.00000  Uiso   1.00
C244   C     0.25000   0.05520   0.25000   0.00000  Uiso   1.00
C245   C     0.75000   0.38740   0.75000   0.00000  Uiso   1.00
C246   C     0.75000   0.44480   0.75000   0.00000  Uiso   1.00
C247   C     0.75000   0.88740   0.25000   0.00000  Uiso   1.00
C248   C     0.75000   0.94480   0.25000   0.00000  Uiso   1.00
C249   C     0.25000   0.75000   0.61260   0.00000  Uiso   1.00
C250   C     0.25000   0.75000   0.55520   0.00000  Uiso   1.00
C251   C     0.25000   0.25000   0.11260   0.00000  Uiso   1.00
C252   C     0.25000   0.25000   0.05520   0.00000  Uiso   1.00
C253   C     0.25000   0.25000   0.38740   0.00000  Uiso   1.00
C254   C     0.25000   0.25000   0.44480   0.00000  Uiso   1.00
C255   C     0.25000   0.75000   0.88740   0.00000  Uiso   1.00
C256   C     0.25000   0.75000   0.94480   0.00000  Uiso   1.00
C257   C     0.75000   0.25000   0.61260   0.00000  Uiso   1.00
C258   C     0.75000   0.25000   0.55520   0.00000  Uiso   1.00
C259   C     0.75000   0.75000   0.11260   0.00000  Uiso   1.00
C260   C     0.75000   0.75000   0.05520   0.00000  Uiso   1.00
C261   C     0.75000   0.75000   0.38740   0.00000  Uiso   1.00
C262   C     0.75000   0.75000   0.44480   0.00000  Uiso   1.00
C263   C     0.75000   0.25000   0.88740   0.00000  Uiso   1.00
C264   C     0.75000   0.25000   0.94480   0.00000  Uiso   1.00
C265   C     0.61260   0.25000   0.75000   0.00000  Uiso   1.00
C266   C     0.55520   0.25000   0.75000   0.00000  Uiso   1.00
C267   C     0.11260   0.25000   0.25000   0.00000  Uiso   1.00
C268   C     0.05520   0.25000   0.25000   0.00000  Uiso   1.00
C269   C     0.38740   0.25000   0.25000   0.00000  Uiso   1.00
C270   C     0.44480   0.25000   0.25000   0.00000  Uiso   1.00
C271   C     0.88740   0.25000   0.75000   0.00000  Uiso   1.00
C272   C     0.94480   0.25000   0.75000   0.00000  Uiso   1.00
C273   C     0.61260   0.75000   0.25000   0.00000  Uiso   1.00
C274   C     0.55520   0.75000   0.25000   0.00000  Uiso   1.00
C275   C     0.11260   0.75000   0.75000   0.00000  Uiso   1.00
C276   C     0.05520   0.75000   0.75000   0.00000  Uiso   1.00
C277   C     0.38740   0.75000   0.75000   0.00000  Uiso   1.00
C278   C     0.44480   0.75000   0.75000   0.00000  Uiso   1.00
C279   C     0.88740   0.75000   0.25000   0.00000  Uiso   1.00
C280   C     0.94480   0.75000   0.25000   0.00000  Uiso   1.00
C281   C     0.61260   0.75000   0.75000   0.00000  Uiso   1.00
C282   C     0.55520   0.75000   0.75000   0.00000  Uiso   1.00
C283   C     0.11260   0.75000   0.25000   0.00000  Uiso   1.00
C284   C     0.05520   0.75000   0.25000   0.00000  Uiso   1.00
C285   C     0.38740   0.25000   0.75000   0.00000  Uiso   1.00
C286   C     0.44480   0.25000   0.75000   0.00000  Uiso   1.00
C287   C     0.88740   0.25000   0.25000   0.00000  Uiso   1.00
C288   C     0.94480   0.25000   0.25000   0.00000  Uiso   1.00
C289   C     0.61260   0.25000   0.25000   0.00000  Uiso   1.00
C290   C     0.55520   0.25000   0.25000   0.00000  Uiso   1.00
C291   C     0.11260   0.25000   0.75000   0.00000  Uiso   1.00
C292   C     0.05520   0.25000   0.75000   0.00000  Uiso   1.00
C293   C     0.38740   0.75000   0.25000   0.00000  Uiso   1.00
C294   C     0.44480   0.75000   0.25000   0.00000  Uiso   1.00
C295   C     0.88740   0.75000   0.75000   0.00000  Uiso   1.00
C296   C     0.94480   0.75000   0.75000   0.00000  Uiso   1.00
C297   C     0.75000   0.25000   0.38740   0.00000  Uiso   1.00
C298   C     0.75000   0.25000   0.44480   0.00000  Uiso   1.00
C299   C     0.75000   0.75000   0.88740   0.00000  Uiso   1.00
C300   C     0.75000   0.75000   0.94480   0.00000  Uiso   1.00
C301   C     0.25000   0.25000   0.61260   0.00000  Uiso   1.00
C302   C     0.25000   0.25000   0.55520   0.00000  Uiso   1.00
C303   C     0.25000   0.75000   0.11260   0.00000  Uiso   1.00
C304   C     0.25000   0.75000   0.05520   0.00000  Uiso   1.00
C305   C     0.25000   0.75000   0.38740   0.00000  Uiso   1.00
C306   C     0.25000   0.75000   0.44480   0.00000  Uiso   1.00
C307   C     0.25000   0.25000   0.88740   0.00000  Uiso   1.00
C308   C     0.25000   0.25000   0.94480   0.00000  Uiso   1.00
C309   C     0.75000   0.75000   0.61260   0.00000  Uiso   1.00
C310   C     0.75000   0.75000   0.55520   0.00000  Uiso   1.00
C311   C     0.75000   0.25000   0.11260   0.00000  Uiso   1.00
C312   C     0.75000   0.25000   0.05520   0.00000  Uiso   1.00
C313   C     0.25000   0.61260   0.25000   0.00000  Uiso   1.00
C314   C     0.25000   0.55520   0.25000   0.00000  Uiso   1.00
C315   C     0.25000   0.11260   0.75000   0.00000  Uiso   1.00
C316   C     0.25000   0.05520   0.75000   0.00000  Uiso   1.00
C317   C     0.25000   0.38740   0.75000   0.00000  Uiso   1.00
C318   C     0.25000   0.44480   0.75000   0.00000  Uiso   1.00
C319   C     0.25000   0.88740   0.25000   0.00000  Uiso   1.00
C320   C     0.25000   0.94480   0.25000   0.00000  Uiso   1.00
C321   C     0.75000   0.61260   0.75000   0.00000  Uiso   1.00
C322   C     0.75000   0.55520   0.75000   0.00000  Uiso   1.00
C323   C     0.75000   0.11260   0.25000   0.00000  Uiso   1.00
C324   C     0.75000   0.05520   0.25000   0.00000  Uiso   1.00
C325   C     0.75000   0.38740   0.25000   0.00000  Uiso   1.00
C326   C     0.75000   0.44480   0.25000   0.00000  Uiso   1.00
C327   C     0.75000   0.88740   0.75000   0.00000  Uiso   1.00
C328   C     0.75000   0.94480   0.75000   0.00000  Uiso   1.00
H329   H     0.69289   0.54000   0.19289   0.00000  Uiso   1.00
H330   H     0.69289   0.04000   0.69289   0.00000  Uiso   1.00
H331   H     0.30711   0.46000   0.19289   0.00000  Uiso   1.00
H332   H     0.30711   0.96000   0.69289   0.00000  Uiso   1.00
H333   H     0.80711   0.46000   0.69289   0.00000  Uiso   1.00
H334   H     0.30711   0.54000   0.80711   0.00000  Uiso   1.00
H335   H     0.30711   0.04000   0.30711   0.00000  Uiso   1.00
H336   H     0.80711   0.04000   0.80711   0.00000  Uiso   1.00
H337   H     0.69289   0.46000   0.80711   0.00000  Uiso   1.00
H338   H     0.69289   0.96000   0.30711   0.00000  Uiso   1.00
H339   H     0.19289   0.69289   0.54000   0.00000  Uiso   1.00
H340   H     0.19289   0.19289   0.04000   0.00000  Uiso   1.00
H341   H     0.69289   0.69289   0.04000   0.00000  Uiso   1.00
H342   H     0.19289   0.30711   0.46000   0.00000  Uiso   1.00
H343   H     0.19289   0.80711   0.96000   0.00000  Uiso   1.00
H344   H     0.69289   0.80711   0.46000   0.00000  Uiso   1.00
H345   H     0.80711   0.30711   0.54000   0.00000  Uiso   1.00
H346   H     0.80711   0.80711   0.04000   0.00000  Uiso   1.00
H347   H     0.80711   0.69289   0.46000   0.00000  Uiso   1.00
H348   H     0.80711   0.19289   0.96000   0.00000  Uiso   1.00
H349   H     0.54000   0.19289   0.69289   0.00000  Uiso   1.00
H350   H     0.04000   0.19289   0.19289   0.00000  Uiso   1.00
H351   H     0.04000   0.69289   0.69289   0.00000  Uiso   1.00
H352   H     0.46000   0.19289   0.30711   0.00000  Uiso   1.00
H353   H     0.46000   0.69289   0.80711   0.00000  Uiso   1.00
H354   H     0.96000   0.19289   0.80711   0.00000  Uiso   1.00
H355   H     0.54000   0.80711   0.30711   0.00000  Uiso   1.00
H356   H     0.04000   0.80711   0.80711   0.00000  Uiso   1.00
H357   H     0.46000   0.80711   0.69289   0.00000  Uiso   1.00
H358   H     0.96000   0.80711   0.19289   0.00000  Uiso   1.00
H359   H     0.54000   0.69289   0.80711   0.00000  Uiso   1.00
H360   H     0.04000   0.69289   0.30711   0.00000  Uiso   1.00
H361   H     0.46000   0.30711   0.80711   0.00000  Uiso   1.00
H362   H     0.96000   0.30711   0.30711   0.00000  Uiso   1.00
H363   H     0.96000   0.80711   0.80711   0.00000  Uiso   1.00
H364   H     0.54000   0.30711   0.19289   0.00000  Uiso   1.00
H365   H     0.54000   0.80711   0.69289   0.00000  Uiso   1.00
H366   H     0.04000   0.30711   0.69289   0.00000  Uiso   1.00
H367   H     0.46000   0.69289   0.19289   0.00000  Uiso   1.00
H368   H     0.96000   0.69289   0.69289   0.00000  Uiso   1.00
H369   H     0.69289   0.19289   0.46000   0.00000  Uiso   1.00
H370   H     0.69289   0.69289   0.96000   0.00000  Uiso   1.00
H371   H     0.30711   0.19289   0.54000   0.00000  Uiso   1.00
H372   H     0.30711   0.69289   0.04000   0.00000  Uiso   1.00
H373   H     0.80711   0.69289   0.54000   0.00000  Uiso   1.00
H374   H     0.30711   0.80711   0.46000   0.00000  Uiso   1.00
H375   H     0.30711   0.30711   0.96000   0.00000  Uiso   1.00
H376   H     0.80711   0.80711   0.96000   0.00000  Uiso   1.00
H377   H     0.69289   0.80711   0.54000   0.00000  Uiso   1.00
H378   H     0.69289   0.30711   0.04000   0.00000  Uiso   1.00
H379   H     0.19289   0.54000   0.30711   0.00000  Uiso   1.00
H380   H     0.19289   0.04000   0.80711   0.00000  Uiso   1.00
H381   H     0.69289   0.54000   0.80711   0.00000  Uiso   1.00
H382   H     0.19289   0.46000   0.69289   0.00000  Uiso   1.00
H383   H     0.19289   0.96000   0.19289   0.00000  Uiso   1.00
H384   H     0.69289   0.96000   0.69289   0.00000  Uiso   1.00
H385   H     0.80711   0.54000   0.69289   0.00000  Uiso   1.00
H386   H     0.80711   0.04000   0.19289   0.00000  Uiso   1.00
H387   H     0.80711   0.46000   0.30711   0.00000  Uiso   1.00
H388   H     0.80711   0.96000   0.80711   0.00000  Uiso   1.00
H389   H     0.30711   0.46000   0.80711   0.00000  Uiso   1.00
H390   H     0.30711   0.96000   0.30711   0.00000  Uiso   1.00
H391   H     0.69289   0.04000   0.30711   0.00000  Uiso   1.00
H392   H     0.69289   0.46000   0.19289   0.00000  Uiso   1.00
H393   H     0.30711   0.54000   0.19289   0.00000  Uiso   1.00
H394   H     0.30711   0.04000   0.69289   0.00000  Uiso   1.00
H395   H     0.80711   0.30711   0.46000   0.00000  Uiso   1.00
H396   H     0.80711   0.19289   0.04000   0.00000  Uiso   1.00
H397   H     0.19289   0.69289   0.46000   0.00000  Uiso   1.00
H398   H     0.19289   0.19289   0.96000   0.00000  Uiso   1.00
H399   H     0.19289   0.30711   0.54000   0.00000  Uiso   1.00
H400   H     0.19289   0.80711   0.04000   0.00000  Uiso   1.00
H401   H     0.46000   0.80711   0.30711   0.00000  Uiso   1.00
H402   H     0.04000   0.80711   0.19289   0.00000  Uiso   1.00
H403   H     0.46000   0.19289   0.69289   0.00000  Uiso   1.00
H404   H     0.96000   0.19289   0.19289   0.00000  Uiso   1.00
H405   H     0.54000   0.19289   0.30711   0.00000  Uiso   1.00
H406   H     0.04000   0.19289   0.80711   0.00000  Uiso   1.00
H407   H     0.46000   0.30711   0.19289   0.00000  Uiso   1.00
H408   H     0.96000   0.30711   0.69289   0.00000  Uiso   1.00
H409   H     0.54000   0.69289   0.19289   0.00000  Uiso   1.00
H410   H     0.96000   0.69289   0.30711   0.00000  Uiso   1.00
H411   H     0.54000   0.30711   0.80711   0.00000  Uiso   1.00
H412   H     0.04000   0.30711   0.30711   0.00000  Uiso   1.00
H413   H     0.30711   0.80711   0.54000   0.00000  Uiso   1.00
H414   H     0.30711   0.30711   0.04000   0.00000  Uiso   1.00
H415   H     0.69289   0.30711   0.96000   0.00000  Uiso   1.00
H416   H     0.69289   0.19289   0.54000   0.00000  Uiso   1.00
H417   H     0.30711   0.19289   0.46000   0.00000  Uiso   1.00
H418   H     0.30711   0.69289   0.96000   0.00000  Uiso   1.00
H419   H     0.80711   0.96000   0.19289   0.00000  Uiso   1.00
H420   H     0.80711   0.54000   0.30711   0.00000  Uiso   1.00
H421   H     0.19289   0.46000   0.30711   0.00000  Uiso   1.00
H422   H     0.19289   0.96000   0.80711   0.00000  Uiso   1.00
H423   H     0.19289   0.54000   0.69289   0.00000  Uiso   1.00
H424   H     0.19289   0.04000   0.19289   0.00000  Uiso   1.00
loop_
_geom_bond_atom_site_label_1
_geom_bond_atom_site_label_2
_geom_bond_distance
_geom_bond_site_symmetry_2
_ccdc_geom_bond_type
Zn1    O33     1.884   .     S
Zn1    O63     1.884   .     S
Zn1    O91     1.884   .     S
Zn1    O225    1.932   .     S
Zn2    O35     1.884   .     S
Zn2    O205    1.884   .     S
Zn2    O191    1.884   .     S
Zn2    O228    1.932   .     S
Zn3    O37     1.884   .     S
Zn3    O209    1.884   .     S
Zn3    O75     1.884   .     S
Zn3    O226    1.932   .     S
Zn4    O39     1.884   .     S
Zn4    O211    1.884   .     S
Zn4    O77     1.884   .     S
Zn4    O227    1.932   .     S
Zn5    O43     1.884   .     S
Zn5    O201    1.884   .     S
Zn5    O87     1.884   .     S
Zn5    O227    1.932   .     S
Zn6    O45     1.884   .     S
Zn6    O203    1.884   .     S
Zn6    O199    1.884   .     S
Zn6    O226    1.932   .     S
Zn7    O49     1.884   .     S
Zn7    O207    1.884   .     S
Zn7    O83     1.884   .     S
Zn7    O228    1.932   .     S
Zn8    O51     1.884   .     S
Zn8    O57     1.884   .     S
Zn8    O195    1.884   .     S
Zn8    O225    1.932   .     S
Zn9    O53     1.884   .     S
Zn9    O81     1.884   .     S
Zn9    O219    1.884   .     S
Zn9    O227    1.932   .     S
Zn10   O59     1.884   .     S
Zn10   O189    1.884   .     S
Zn10   O223    1.884   .     S
Zn10   O226    1.932   .     S
Zn11   O65     1.884   .     S
Zn11   O197    1.884   .     S
Zn11   O47     1.884   .     S
Zn11   O228    1.932   .     S
Zn12   O69     1.884   .     S
Zn12   O193    1.884   .     S
Zn12   O213    1.884   .     S
Zn12   O225    1.932   .     S
Zn13   O73     1.884   .     S
Zn13   O41     1.884   .     S
Zn13   O71     1.884   .     S
Zn13   O228    1.932   .     S
Zn14   O79     1.884   .     S
Zn14   O217    1.884   .     S
Zn14   O55     1.884   .     S
Zn14   O226    1.932   .     S
Zn15   O85     1.884   .     S
Zn15   O215    1.884   .     S
Zn15   O67     1.884   .     S
Zn15   O225    1.932   .     S
Zn16   O89     1.884   .     S
Zn16   O221    1.884   .     S
Zn16   O61     1.884   .     S
Zn16   O227    1.932   .     S
Zn17   O93     1.884   .     S
Zn17   O121    1.884   .     S
Zn17   O151    1.884   .     S
Zn17   O229    1.932   .     S
Zn18   O97     1.884   .     S
Zn18   O173    1.884   .     S
Zn18   O135    1.884   .     S
Zn18   O230    1.932   .     S
Zn19   O103    1.884   .     S
Zn19   O165    1.884   .     S
Zn19   O147    1.884   .     S
Zn19   O231    1.932   .     S
Zn20   O109    1.884   .     S
Zn20   O169    1.884   .     S
Zn20   O141    1.884   .     S
Zn20   O232    1.932   .     S
Zn21   O113    1.884   .     S
Zn21   O159    1.884   .     S
Zn21   O183    1.884   .     S
Zn21   O231    1.932   .     S
Zn22   O115    1.884   .     S
Zn22   O143    1.884   .     S
Zn22   O111    1.884   .     S
Zn22   O229    1.932   .     S
Zn23   O117    1.884   .     S
Zn23   O153    1.884   .     S
Zn23   O187    1.884   .     S
Zn23   O230    1.932   .     S
Zn24   O119    1.884   .     S
Zn24   O155    1.884   .     S
Zn24   O95     1.884   .     S
Zn24   O232    1.932   .     S
Zn25   O123    1.884   .     S
Zn25   O161    1.884   .     S
Zn25   O179    1.884   .     S
Zn25   O232    1.932   .     S
Zn26   O125    1.884   .     S
Zn26   O163    1.884   .     S
Zn26   O107    1.884   .     S
Zn26   O230    1.932   .     S
Zn27   O129    1.884   .     S
Zn27   O137    1.884   .     S
Zn27   O101    1.884   .     S
Zn27   O229    1.932   .     S
Zn28   O131    1.884   .     S
Zn28   O157    1.884   .     S
Zn28   O99     1.884   .     S
Zn28   O231    1.932   .     S
Zn29   O133    1.884   .     S
Zn29   O177    1.884   .     S
Zn29   O175    1.884   .     S
Zn29   O232    1.932   .     S
Zn30   O139    1.884   .     S
Zn30   O181    1.884   .     S
Zn30   O171    1.884   .     S
Zn30   O230    1.932   .     S
Zn31   O145    1.884   .     S
Zn31   O105    1.884   .     S
Zn31   O127    1.884   .     S
Zn31   O229    1.932   .     S
Zn32   O149    1.884   .     S
Zn32   O185    1.884   .     S
Zn32   O167    1.884   .     S
Zn32   O231    1.932   .     S
O33    C233    1.295   .     A
C34    C234    1.282   .     A
C34    C160    1.216   .     A
C34    H329    1.140   .     S
O35    C235    1.295   .     A
C36    C236    1.282   .     A
C36    H330    1.140   .     S
C36    C144    1.216   1_545 S
O37    C237    1.295   .     A
C38    C238    1.282   .     A
C38    C162    1.216   .     A
C38    H331    1.140   .     S
O39    C239    1.295   .     A
C40    C240    1.282   .     A
C40    H332    1.140   .     S
C40    C164    1.216   1_565 S
O41    C245    1.295   .     A
C42    C246    1.282   .     A
C42    C146    1.216   .     A
C42    H333    1.140   .     S
O43    C241    1.295   .     A
C44    C242    1.282   .     A
C44    C154    1.216   .     A
C44    H334    1.140   .     S
O45    C243    1.295   .     A
C46    C244    1.282   .     A
C46    H335    1.140   .     S
C46    C156    1.216   1_545 S
O47    C235    1.295   .     A
C48    C236    1.282   .     A
C48    H336    1.140   .     S
C48    C152    1.216   1_545 S
O49    C245    1.295   .     A
C50    C246    1.282   .     A
C50    C138    1.216   .     A
C50    H337    1.140   .     S
O51    C247    1.295   .     A
C52    C248    1.282   .     A
C52    H338    1.140   .     S
C52    C158    1.216   1_565 S
O53    C249    1.295   .     A
C54    C250    1.282   .     A
C54    C170    1.216   .     A
C54    H339    1.140   .     S
O55    C251    1.295   .     A
C56    C252    1.282   .     A
C56    H340    1.140   .     S
C56    C172    1.216   1_554 S
O57    C259    1.295   .     A
C58    C260    1.282   .     A
C58    H341    1.140   .     S
C58    C116    1.216   1_554 S
O59    C253    1.295   .     A
C60    C254    1.282   .     A
C60    C174    1.216   .     A
C60    H342    1.140   .     S
O61    C255    1.295   .     A
C62    C256    1.282   .     A
C62    H343    1.140   .     S
C62    C176    1.216   1_556 S
O63    C261    1.295   .     A
C64    C262    1.282   .     A
C64    C130    1.216   .     A
C64    H344    1.140   .     S
O65    C257    1.295   .     A
C66    C258    1.282   .     A
C66    C166    1.216   .     A
C66    H345    1.140   .     S
O67    C259    1.295   .     A
C68    C260    1.282   .     A
C68    H346    1.140   .     S
C68    C128    1.216   1_554 S
O69    C261    1.295   .     A
C70    C262    1.282   .     A
C70    C122    1.216   .     A
C70    H347    1.140   .     S
O71    C263    1.295   .     A
C72    C264    1.282   .     A
C72    H348    1.140   .     S
C72    C168    1.216   1_556 S
O73    C265    1.295   .     A
C74    C266    1.282   .     A
C74    C182    1.216   .     A
C74    H349    1.140   .     S
O75    C267    1.295   .     A
C76    C268    1.282   .     A
C76    H350    1.140   .     S
C76    C184    1.216   1_455 S
O77    C275    1.295   .     A
C78    C276    1.282   .     A
C78    H351    1.140   .     S
C78    C112    1.216   1_455 S
O79    C269    1.295   .     A
C80    C270    1.282   .     A
C80    C186    1.216   .     A
C80    H352    1.140   .     S
O81    C277    1.295   .     A
C82    C278    1.282   .     A
C82    C94     1.216   .     A
C82    H353    1.140   .     S
O83    C271    1.295   .     A
C84    C272    1.282   .     A
C84    H354    1.140   .     S
C84    C188    1.216   1_655 S
O85    C273    1.295   .     A
C86    C274    1.282   .     A
C86    C178    1.216   .     A
C86    H355    1.140   .     S
O87    C275    1.295   .     A
C88    C276    1.282   .     A
C88    H356    1.140   .     S
C88    C102    1.216   1_455 S
O89    C277    1.295   .     A
C90    C278    1.282   .     A
C90    C106    1.216   .     A
C90    H357    1.140   .     S
O91    C279    1.295   .     A
C92    C280    1.282   .     A
C92    H358    1.140   .     S
C92    C180    1.216   1_655 S
O93    C281    1.295   .     A
C94    C282    1.282   .     A
C94    H359    1.140   .     S
O95    C283    1.295   .     A
C96    C284    1.282   .     A
C96    H360    1.140   .     S
C96    C196    1.216   1_455 S
O97    C285    1.295   .     A
C98    C286    1.282   .     A
C98    C198    1.216   .     A
C98    H361    1.140   .     S
O99    C287    1.295   .     A
C100   C288    1.282   .     A
C100   H362    1.140   .     S
C100   C200    1.216   1_655 S
O101   C295    1.295   .     A
C102   C296    1.282   .     A
C102   H363    1.140   .     S
C102   C88     1.216   1_655 S
O103   C289    1.295   .     A
C104   C290    1.282   .     A
C104   C190    1.216   .     A
C104   H364    1.140   .     S
O105   C281    1.295   .     A
C106   C282    1.282   .     A
C106   H365    1.140   .     S
O107   C291    1.295   .     A
C108   C292    1.282   .     A
C108   H366    1.140   .     S
C108   C192    1.216   1_455 S
O109   C293    1.295   .     A
C110   C294    1.282   .     A
C110   C194    1.216   .     A
C110   H367    1.140   .     S
O111   C295    1.295   .     A
C112   C296    1.282   .     A
C112   H368    1.140   .     S
C112   C78     1.216   1_655 S
O113   C297    1.295   .     A
C114   C298    1.282   .     A
C114   C208    1.216   .     A
C114   H369    1.140   .     S
O115   C299    1.295   .     A
C116   C300    1.282   .     A
C116   H370    1.140   .     S
C116   C58     1.216   1_556 S
O117   C301    1.295   .     A
C118   C302    1.282   .     A
C118   C210    1.216   .     A
C118   H371    1.140   .     S
O119   C303    1.295   .     A
C120   C304    1.282   .     A
C120   H372    1.140   .     S
C120   C212    1.216   1_554 S
O121   C309    1.295   .     A
C122   C310    1.282   .     A
C122   H373    1.140   .     S
O123   C305    1.295   .     A
C124   C306    1.282   .     A
C124   C202    1.216   .     A
C124   H374    1.140   .     S
O125   C307    1.295   .     A
C126   C308    1.282   .     A
C126   H375    1.140   .     S
C126   C204    1.216   1_556 S
O127   C299    1.295   .     A
C128   C300    1.282   .     A
C128   H376    1.140   .     S
C128   C68     1.216   1_556 S
O129   C309    1.295   .     A
C130   C310    1.282   .     A
C130   H377    1.140   .     S
O131   C311    1.295   .     A
C132   C312    1.282   .     A
C132   H378    1.140   .     S
C132   C206    1.216   1_554 S
O133   C313    1.295   .     A
C134   C314    1.282   .     A
C134   C218    1.216   .     A
C134   H379    1.140   .     S
O135   C315    1.295   .     A
C136   C316    1.282   .     A
C136   H380    1.140   .     S
C136   C220    1.216   1_545 S
O137   C321    1.295   .     A
C138   C322    1.282   .     A
C138   H381    1.140   .     S
O139   C317    1.295   .     A
C140   C318    1.282   .     A
C140   C222    1.216   .     A
C140   H382    1.140   .     S
O141   C319    1.295   .     A
C142   C320    1.282   .     A
C142   H383    1.140   .     S
C142   C224    1.216   1_565 S
O143   C327    1.295   .     A
C144   C328    1.282   .     A
C144   H384    1.140   .     S
C144   C36     1.216   1_565 S
O145   C321    1.295   .     A
C146   C322    1.282   .     A
C146   H385    1.140   .     S
O147   C323    1.295   .     A
C148   C324    1.282   .     A
C148   H386    1.140   .     S
C148   C214    1.216   1_545 S
O149   C325    1.295   .     A
C150   C326    1.282   .     A
C150   C216    1.216   .     A
C150   H387    1.140   .     S
O151   C327    1.295   .     A
C152   C328    1.282   .     A
C152   H388    1.140   .     S
C152   C48     1.216   1_565 S
O153   C317    1.295   .     A
C154   C318    1.282   .     A
C154   H389    1.140   .     S
O155   C319    1.295   .     A
C156   C320    1.282   .     A
C156   H390    1.140   .     S
C156   C46     1.216   1_565 S
O157   C323    1.295   .     A
C158   C324    1.282   .     A
C158   H391    1.140   .     S
C158   C52     1.216   1_545 S
O159   C325    1.295   .     A
C160   C326    1.282   .     A
C160   H392    1.140   .     S
O161   C313    1.295   .     A
C162   C314    1.282   .     A
C162   H393    1.140   .     S
O163   C315    1.295   .     A
C164   C316    1.282   .     A
C164   H394    1.140   .     S
C164   C40     1.216   1_545 S
O165   C297    1.295   .     A
C166   C298    1.282   .     A
C166   H395    1.140   .     S
O167   C311    1.295   .     A
C168   C312    1.282   .     A
C168   H396    1.140   .     S
C168   C72     1.216   1_554 S
O169   C305    1.295   .     A
C170   C306    1.282   .     A
C170   H397    1.140   .     S
O171   C307    1.295   .     A
C172   C308    1.282   .     A
C172   H398    1.140   .     S
C172   C56     1.216   1_556 S
O173   C301    1.295   .     A
C174   C302    1.282   .     A
C174   H399    1.140   .     S
O175   C303    1.295   .     A
C176   C304    1.282   .     A
C176   H400    1.140   .     S
C176   C62     1.216   1_554 S
O177   C293    1.295   .     A
C178   C294    1.282   .     A
C178   H401    1.140   .     S
O179   C283    1.295   .     A
C180   C284    1.282   .     A
C180   H402    1.140   .     S
C180   C92     1.216   1_455 S
O181   C285    1.295   .     A
C182   C286    1.282   .     A
C182   H403    1.140   .     S
O183   C287    1.295   .     A
C184   C288    1.282   .     A
C184   H404    1.140   .     S
C184   C76     1.216   1_655 S
O185   C289    1.295   .     A
C186   C290    1.282   .     A
C186   H405    1.140   .     S
O187   C291    1.295   .     A
C188   C292    1.282   .     A
C188   H406    1.140   .     S
C188   C84     1.216   1_455 S
O189   C269    1.295   .     A
C190   C270    1.282   .     A
C190   H407    1.140   .     S
O191   C271    1.295   .     A
C192   C272    1.282   .     A
C192   H408    1.140   .     S
C192   C108    1.216   1_655 S
O193   C273    1.295   .     A
C194   C274    1.282   .     A
C194   H409    1.140   .     S
O195   C279    1.295   .     A
C196   C280    1.282   .     A
C196   H410    1.140   .     S
C196   C96     1.216   1_655 S
O197   C265    1.295   .     A
C198   C266    1.282   .     A
C198   H411    1.140   .     S
O199   C267    1.295   .     A
C200   C268    1.282   .     A
C200   H412    1.140   .     S
C200   C100    1.216   1_455 S
O201   C249    1.295   .     A
C202   C250    1.282   .     A
C202   H413    1.140   .     S
O203   C251    1.295   .     A
C204   C252    1.282   .     A
C204   H414    1.140   .     S
C204   C126    1.216   1_554 S
O205   C263    1.295   .     A
C206   C264    1.282   .     A
C206   H415    1.140   .     S
C206   C132    1.216   1_556 S
O207   C257    1.295   .     A
C208   C258    1.282   .     A
C208   H416    1.140   .     S
O209   C253    1.295   .     A
C210   C254    1.282   .     A
C210   H417    1.140   .     S
O211   C255    1.295   .     A
C212   C256    1.282   .     A
C212   H418    1.140   .     S
C212   C120    1.216   1_556 S
O213   C247    1.295   .     A
C214   C248    1.282   .     A
C214   H419    1.140   .     S
C214   C148    1.216   1_565 S
O215   C233    1.295   .     A
C216   C234    1.282   .     A
C216   H420    1.140   .     S
O217   C237    1.295   .     A
C218   C238    1.282   .     A
C218   H421    1.140   .     S
O219   C239    1.295   .     A
C220   C240    1.282   .     A
C220   H422    1.140   .     S
C220   C136    1.216   1_565 S
O221   C241    1.295   .     A
C222   C242    1.282   .     A
C222   H423    1.140   .     S
O223   C243    1.295   .     A
C224   C244    1.282   .     A
C224   H424    1.140   .     S
C224   C142    1.216   1_545 S
C233   C234    1.466   .     S
C235   C236    1.466   .     S
C237   C238    1.466   .     S
C239   C240    1.466   .     S
C241   C242    1.466   .     S
C243   C244    1.466   .     S
C245   C246    1.466   .     S
C247   C248    1.466   .     S
C249   C250    1.466   .     S
C251   C252    1.466   .     S
C253   C254    1.466   .     S
C255   C256    1.466   .     S
C257   C258    1.466   .     S
C259   C260    1.466   .     S
C261   C262    1.466   .     S
C263   C264    1.466   .     S
C265   C266    1.466   .     S
C267   C268    1.466   .     S
C269   C270    1.466   .     S
C271   C272    1.466   .     S
C273   C274    1.466   .     S
C275   C276    1.466   .     S
C277   C278    1.466   .     S
C279   C280    1.466   .     S
C281   C282    1.466   .     S
C283   C284    1.466   .     S
C285   C286    1.466   .     S
C287   C288    1.466   .     S
C289   C290    1.466   .     S
C291   C292    1.466   .     S
C293   C294    1.466   .     S
C295   C296    1.466   .     S
C297   C298    1.466   .     S
C299   C300    1.466   .     S
C301   C302    1.466   .     S
C303   C304    1.466   .     S
C305   C306    1.466   .     S
C307   C308    1.466   .     S
C309   C310    1.466   .     S
C311   C312    1.466   .     S
C313   C314    1.466   .     S
C315   C316    1.466   .     S
C317   C318    1.466   .     S
C319   C320    1.466   .     S
C321   C322    1.466   .     S
C323   C324    1.466   .     S
C325   C326    1.466   .     S
C327   C328    1.466   .     S
