data_PEVQIS_clean_h
_audit_creation_date              2014-07-02
_audit_creation_method            'Materials Studio'
_symmetry_space_group_name_H-M    'P1'
_symmetry_Int_Tables_number       1
_symmetry_cell_setting            triclinic
loop_
_symmetry_equiv_pos_as_xyz
  x,y,z
_cell_length_a                    25.6540
_cell_length_b                    25.6540
_cell_length_c                    25.6540
_cell_angle_alpha                 90.0000
_cell_angle_beta                  90.0000
_cell_angle_gamma                 90.0000
loop_
_atom_site_label
_atom_site_type_symbol
_atom_site_fract_x
_atom_site_fract_y
_atom_site_fract_z
_atom_site_U_iso_or_equiv
_atom_site_adp_type
_atom_site_occupancy
O1     O     0.21460   0.13340   0.21460   0.00000  Uiso   1.00
C2     C     0.21890   0.02300   0.21890   0.00000  Uiso   1.00
O3     O     0.21460   0.63340   0.71460   0.00000  Uiso   1.00
C4     C     0.21890   0.52300   0.71890   0.00000  Uiso   1.00
O5     O     0.71460   0.13340   0.71460   0.00000  Uiso   1.00
C6     C     0.71890   0.02300   0.71890   0.00000  Uiso   1.00
O7     O     0.71460   0.63340   0.21460   0.00000  Uiso   1.00
C8     C     0.71890   0.52300   0.21890   0.00000  Uiso   1.00
O9     O     0.78540   0.86660   0.21460   0.00000  Uiso   1.00
C10    C     0.78110   0.97700   0.21890   0.00000  Uiso   1.00
O11    O     0.78540   0.36660   0.71460   0.00000  Uiso   1.00
C12    C     0.78110   0.47700   0.71890   0.00000  Uiso   1.00
O13    O     0.28540   0.86660   0.71460   0.00000  Uiso   1.00
C14    C     0.28110   0.97700   0.71890   0.00000  Uiso   1.00
O15    O     0.28540   0.36660   0.21460   0.00000  Uiso   1.00
C16    C     0.28110   0.47700   0.21890   0.00000  Uiso   1.00
O17    O     0.78540   0.13340   0.78540   0.00000  Uiso   1.00
C18    C     0.78110   0.02300   0.78110   0.00000  Uiso   1.00
O19    O     0.78540   0.63340   0.28540   0.00000  Uiso   1.00
C20    C     0.78110   0.52300   0.28110   0.00000  Uiso   1.00
O21    O     0.28540   0.13340   0.28540   0.00000  Uiso   1.00
C22    C     0.28110   0.02300   0.28110   0.00000  Uiso   1.00
O23    O     0.28540   0.63340   0.78540   0.00000  Uiso   1.00
C24    C     0.28110   0.52300   0.78110   0.00000  Uiso   1.00
O25    O     0.21460   0.86660   0.78540   0.00000  Uiso   1.00
C26    C     0.21890   0.97700   0.78110   0.00000  Uiso   1.00
O27    O     0.21460   0.36660   0.28540   0.00000  Uiso   1.00
C28    C     0.21890   0.47700   0.28110   0.00000  Uiso   1.00
O29    O     0.71460   0.86660   0.28540   0.00000  Uiso   1.00
C30    C     0.71890   0.97700   0.28110   0.00000  Uiso   1.00
O31    O     0.71460   0.36660   0.78540   0.00000  Uiso   1.00
C32    C     0.71890   0.47700   0.78110   0.00000  Uiso   1.00
O33    O     0.21460   0.21460   0.13340   0.00000  Uiso   1.00
C34    C     0.21890   0.21890   0.02300   0.00000  Uiso   1.00
O35    O     0.21460   0.71460   0.63340   0.00000  Uiso   1.00
C36    C     0.21890   0.71890   0.52300   0.00000  Uiso   1.00
O37    O     0.71460   0.21460   0.63340   0.00000  Uiso   1.00
C38    C     0.71890   0.21890   0.52300   0.00000  Uiso   1.00
O39    O     0.71460   0.71460   0.13340   0.00000  Uiso   1.00
C40    C     0.71890   0.71890   0.02300   0.00000  Uiso   1.00
O41    O     0.21460   0.78540   0.86660   0.00000  Uiso   1.00
C42    C     0.21890   0.78110   0.97700   0.00000  Uiso   1.00
O43    O     0.21460   0.28540   0.36660   0.00000  Uiso   1.00
C44    C     0.21890   0.28110   0.47700   0.00000  Uiso   1.00
O45    O     0.71460   0.78540   0.36660   0.00000  Uiso   1.00
C46    C     0.71890   0.78110   0.47700   0.00000  Uiso   1.00
O47    O     0.71460   0.28540   0.86660   0.00000  Uiso   1.00
C48    C     0.71890   0.28110   0.97700   0.00000  Uiso   1.00
O49    O     0.78540   0.78540   0.13340   0.00000  Uiso   1.00
C50    C     0.78110   0.78110   0.02300   0.00000  Uiso   1.00
O51    O     0.78540   0.28540   0.63340   0.00000  Uiso   1.00
C52    C     0.78110   0.28110   0.52300   0.00000  Uiso   1.00
O53    O     0.28540   0.78540   0.63340   0.00000  Uiso   1.00
C54    C     0.28110   0.78110   0.52300   0.00000  Uiso   1.00
O55    O     0.28540   0.28540   0.13340   0.00000  Uiso   1.00
C56    C     0.28110   0.28110   0.02300   0.00000  Uiso   1.00
O57    O     0.78540   0.21460   0.86660   0.00000  Uiso   1.00
C58    C     0.78110   0.21890   0.97700   0.00000  Uiso   1.00
O59    O     0.78540   0.71460   0.36660   0.00000  Uiso   1.00
C60    C     0.78110   0.71890   0.47700   0.00000  Uiso   1.00
O61    O     0.28540   0.21460   0.36660   0.00000  Uiso   1.00
C62    C     0.28110   0.21890   0.47700   0.00000  Uiso   1.00
O63    O     0.28540   0.71460   0.86660   0.00000  Uiso   1.00
C64    C     0.28110   0.71890   0.97700   0.00000  Uiso   1.00
O65    O     0.13340   0.21460   0.21460   0.00000  Uiso   1.00
C66    C     0.02300   0.21890   0.21890   0.00000  Uiso   1.00
O67    O     0.13340   0.71460   0.71460   0.00000  Uiso   1.00
C68    C     0.02300   0.71890   0.71890   0.00000  Uiso   1.00
O69    O     0.63340   0.21460   0.71460   0.00000  Uiso   1.00
C70    C     0.52300   0.21890   0.71890   0.00000  Uiso   1.00
O71    O     0.63340   0.71460   0.21460   0.00000  Uiso   1.00
C72    C     0.52300   0.71890   0.21890   0.00000  Uiso   1.00
O73    O     0.86660   0.21460   0.78540   0.00000  Uiso   1.00
C74    C     0.97700   0.21890   0.78110   0.00000  Uiso   1.00
O75    O     0.86660   0.71460   0.28540   0.00000  Uiso   1.00
C76    C     0.97700   0.71890   0.28110   0.00000  Uiso   1.00
O77    O     0.36660   0.21460   0.28540   0.00000  Uiso   1.00
C78    C     0.47700   0.21890   0.28110   0.00000  Uiso   1.00
O79    O     0.36660   0.71460   0.78540   0.00000  Uiso   1.00
C80    C     0.47700   0.71890   0.78110   0.00000  Uiso   1.00
O81    O     0.13340   0.78540   0.78540   0.00000  Uiso   1.00
C82    C     0.02300   0.78110   0.78110   0.00000  Uiso   1.00
O83    O     0.13340   0.28540   0.28540   0.00000  Uiso   1.00
C84    C     0.02300   0.28110   0.28110   0.00000  Uiso   1.00
O85    O     0.63340   0.78540   0.28540   0.00000  Uiso   1.00
C86    C     0.52300   0.78110   0.28110   0.00000  Uiso   1.00
O87    O     0.63340   0.28540   0.78540   0.00000  Uiso   1.00
C88    C     0.52300   0.28110   0.78110   0.00000  Uiso   1.00
O89    O     0.86660   0.78540   0.21460   0.00000  Uiso   1.00
C90    C     0.97700   0.78110   0.21890   0.00000  Uiso   1.00
O91    O     0.86660   0.28540   0.71460   0.00000  Uiso   1.00
C92    C     0.97700   0.28110   0.71890   0.00000  Uiso   1.00
O93    O     0.36660   0.78540   0.71460   0.00000  Uiso   1.00
C94    C     0.47700   0.78110   0.71890   0.00000  Uiso   1.00
O95    O     0.36660   0.28540   0.21460   0.00000  Uiso   1.00
C96    C     0.47700   0.28110   0.21890   0.00000  Uiso   1.00
O97    O     0.13340   0.21460   0.78540   0.00000  Uiso   1.00
C98    C     0.02300   0.21890   0.78110   0.00000  Uiso   1.00
O99    O     0.13340   0.71460   0.28540   0.00000  Uiso   1.00
C100   C     0.02300   0.71890   0.28110   0.00000  Uiso   1.00
O101   O     0.63340   0.21460   0.28540   0.00000  Uiso   1.00
C102   C     0.52300   0.21890   0.28110   0.00000  Uiso   1.00
O103   O     0.63340   0.71460   0.78540   0.00000  Uiso   1.00
C104   C     0.52300   0.71890   0.78110   0.00000  Uiso   1.00
O105   O     0.86660   0.78540   0.78540   0.00000  Uiso   1.00
C106   C     0.97700   0.78110   0.78110   0.00000  Uiso   1.00
O107   O     0.86660   0.28540   0.28540   0.00000  Uiso   1.00
C108   C     0.97700   0.28110   0.28110   0.00000  Uiso   1.00
O109   O     0.36660   0.78540   0.28540   0.00000  Uiso   1.00
C110   C     0.47700   0.78110   0.28110   0.00000  Uiso   1.00
O111   O     0.36660   0.28540   0.78540   0.00000  Uiso   1.00
C112   C     0.47700   0.28110   0.78110   0.00000  Uiso   1.00
O113   O     0.13340   0.78540   0.21460   0.00000  Uiso   1.00
C114   C     0.02300   0.78110   0.21890   0.00000  Uiso   1.00
O115   O     0.13340   0.28540   0.71460   0.00000  Uiso   1.00
C116   C     0.02300   0.28110   0.71890   0.00000  Uiso   1.00
O117   O     0.63340   0.78540   0.71460   0.00000  Uiso   1.00
C118   C     0.52300   0.78110   0.71890   0.00000  Uiso   1.00
O119   O     0.63340   0.28540   0.21460   0.00000  Uiso   1.00
C120   C     0.52300   0.28110   0.21890   0.00000  Uiso   1.00
O121   O     0.86660   0.21460   0.21460   0.00000  Uiso   1.00
C122   C     0.97700   0.21890   0.21890   0.00000  Uiso   1.00
O123   O     0.86660   0.71460   0.71460   0.00000  Uiso   1.00
C124   C     0.97700   0.71890   0.71890   0.00000  Uiso   1.00
O125   O     0.36660   0.21460   0.71460   0.00000  Uiso   1.00
C126   C     0.47700   0.21890   0.71890   0.00000  Uiso   1.00
O127   O     0.36660   0.71460   0.21460   0.00000  Uiso   1.00
C128   C     0.47700   0.71890   0.21890   0.00000  Uiso   1.00
O129   O     0.21460   0.21460   0.86660   0.00000  Uiso   1.00
C130   C     0.21890   0.21890   0.97700   0.00000  Uiso   1.00
O131   O     0.21460   0.71460   0.36660   0.00000  Uiso   1.00
C132   C     0.21890   0.71890   0.47700   0.00000  Uiso   1.00
O133   O     0.71460   0.21460   0.36660   0.00000  Uiso   1.00
C134   C     0.71890   0.21890   0.47700   0.00000  Uiso   1.00
O135   O     0.71460   0.71460   0.86660   0.00000  Uiso   1.00
C136   C     0.71890   0.71890   0.97700   0.00000  Uiso   1.00
O137   O     0.78540   0.21460   0.13340   0.00000  Uiso   1.00
C138   C     0.78110   0.21890   0.02300   0.00000  Uiso   1.00
O139   O     0.78540   0.71460   0.63340   0.00000  Uiso   1.00
C140   C     0.78110   0.71890   0.52300   0.00000  Uiso   1.00
O141   O     0.28540   0.21460   0.63340   0.00000  Uiso   1.00
C142   C     0.28110   0.21890   0.52300   0.00000  Uiso   1.00
O143   O     0.28540   0.71460   0.13340   0.00000  Uiso   1.00
C144   C     0.28110   0.71890   0.02300   0.00000  Uiso   1.00
O145   O     0.78540   0.78540   0.86660   0.00000  Uiso   1.00
C146   C     0.78110   0.78110   0.97700   0.00000  Uiso   1.00
O147   O     0.78540   0.28540   0.36660   0.00000  Uiso   1.00
C148   C     0.78110   0.28110   0.47700   0.00000  Uiso   1.00
O149   O     0.28540   0.78540   0.36660   0.00000  Uiso   1.00
C150   C     0.28110   0.78110   0.47700   0.00000  Uiso   1.00
O151   O     0.28540   0.28540   0.86660   0.00000  Uiso   1.00
C152   C     0.28110   0.28110   0.97700   0.00000  Uiso   1.00
O153   O     0.21460   0.78540   0.13340   0.00000  Uiso   1.00
C154   C     0.21890   0.78110   0.02300   0.00000  Uiso   1.00
O155   O     0.21460   0.28540   0.63340   0.00000  Uiso   1.00
C156   C     0.21890   0.28110   0.52300   0.00000  Uiso   1.00
O157   O     0.71460   0.78540   0.63340   0.00000  Uiso   1.00
C158   C     0.71890   0.78110   0.52300   0.00000  Uiso   1.00
O159   O     0.71460   0.28540   0.13340   0.00000  Uiso   1.00
C160   C     0.71890   0.28110   0.02300   0.00000  Uiso   1.00
O161   O     0.21460   0.13340   0.78540   0.00000  Uiso   1.00
C162   C     0.21890   0.02300   0.78110   0.00000  Uiso   1.00
O163   O     0.21460   0.63340   0.28540   0.00000  Uiso   1.00
C164   C     0.21890   0.52300   0.28110   0.00000  Uiso   1.00
O165   O     0.71460   0.13340   0.28540   0.00000  Uiso   1.00
C166   C     0.71890   0.02300   0.28110   0.00000  Uiso   1.00
O167   O     0.71460   0.63340   0.78540   0.00000  Uiso   1.00
C168   C     0.71890   0.52300   0.78110   0.00000  Uiso   1.00
O169   O     0.21460   0.86660   0.21460   0.00000  Uiso   1.00
C170   C     0.21890   0.97700   0.21890   0.00000  Uiso   1.00
O171   O     0.21460   0.36660   0.71460   0.00000  Uiso   1.00
C172   C     0.21890   0.47700   0.71890   0.00000  Uiso   1.00
O173   O     0.71460   0.86660   0.71460   0.00000  Uiso   1.00
C174   C     0.71890   0.97700   0.71890   0.00000  Uiso   1.00
O175   O     0.71460   0.36660   0.21460   0.00000  Uiso   1.00
C176   C     0.71890   0.47700   0.21890   0.00000  Uiso   1.00
O177   O     0.78540   0.13340   0.21460   0.00000  Uiso   1.00
C178   C     0.78110   0.02300   0.21890   0.00000  Uiso   1.00
O179   O     0.78540   0.63340   0.71460   0.00000  Uiso   1.00
C180   C     0.78110   0.52300   0.71890   0.00000  Uiso   1.00
O181   O     0.28540   0.13340   0.71460   0.00000  Uiso   1.00
C182   C     0.28110   0.02300   0.71890   0.00000  Uiso   1.00
O183   O     0.28540   0.63340   0.21460   0.00000  Uiso   1.00
C184   C     0.28110   0.52300   0.21890   0.00000  Uiso   1.00
O185   O     0.78540   0.86660   0.78540   0.00000  Uiso   1.00
C186   C     0.78110   0.97700   0.78110   0.00000  Uiso   1.00
O187   O     0.78540   0.36660   0.28540   0.00000  Uiso   1.00
C188   C     0.78110   0.47700   0.28110   0.00000  Uiso   1.00
O189   O     0.28540   0.86660   0.28540   0.00000  Uiso   1.00
C190   C     0.28110   0.97700   0.28110   0.00000  Uiso   1.00
O191   O     0.28540   0.36660   0.78540   0.00000  Uiso   1.00
C192   C     0.28110   0.47700   0.78110   0.00000  Uiso   1.00
O193   O     0.25000   0.25000   0.25000   0.00000  Uiso   1.00
O194   O     0.75000   0.75000   0.25000   0.00000  Uiso   1.00
O195   O     0.75000   0.25000   0.75000   0.00000  Uiso   1.00
O196   O     0.25000   0.75000   0.75000   0.00000  Uiso   1.00
O197   O     0.25000   0.25000   0.75000   0.00000  Uiso   1.00
O198   O     0.75000   0.75000   0.75000   0.00000  Uiso   1.00
O199   O     0.75000   0.25000   0.25000   0.00000  Uiso   1.00
O200   O     0.25000   0.75000   0.25000   0.00000  Uiso   1.00
C201   C     0.25000   0.11520   0.25000   0.00000  Uiso   1.00
C202   C     0.25000   0.05620   0.25000   0.00000  Uiso   1.00
C203   C     0.25000   0.61520   0.75000   0.00000  Uiso   1.00
C204   C     0.25000   0.55620   0.75000   0.00000  Uiso   1.00
C205   C     0.75000   0.88480   0.25000   0.00000  Uiso   1.00
C206   C     0.75000   0.94380   0.25000   0.00000  Uiso   1.00
C207   C     0.75000   0.38480   0.75000   0.00000  Uiso   1.00
C208   C     0.75000   0.44380   0.75000   0.00000  Uiso   1.00
C209   C     0.25000   0.38480   0.25000   0.00000  Uiso   1.00
C210   C     0.25000   0.44380   0.25000   0.00000  Uiso   1.00
C211   C     0.75000   0.11520   0.75000   0.00000  Uiso   1.00
C212   C     0.75000   0.05620   0.75000   0.00000  Uiso   1.00
C213   C     0.75000   0.61520   0.25000   0.00000  Uiso   1.00
C214   C     0.75000   0.55620   0.25000   0.00000  Uiso   1.00
C215   C     0.25000   0.88480   0.75000   0.00000  Uiso   1.00
C216   C     0.25000   0.94380   0.75000   0.00000  Uiso   1.00
C217   C     0.25000   0.25000   0.11520   0.00000  Uiso   1.00
C218   C     0.25000   0.25000   0.05620   0.00000  Uiso   1.00
C219   C     0.25000   0.75000   0.61520   0.00000  Uiso   1.00
C220   C     0.25000   0.75000   0.55620   0.00000  Uiso   1.00
C221   C     0.25000   0.75000   0.88480   0.00000  Uiso   1.00
C222   C     0.25000   0.75000   0.94380   0.00000  Uiso   1.00
C223   C     0.25000   0.25000   0.38480   0.00000  Uiso   1.00
C224   C     0.25000   0.25000   0.44380   0.00000  Uiso   1.00
C225   C     0.75000   0.75000   0.11520   0.00000  Uiso   1.00
C226   C     0.75000   0.75000   0.05620   0.00000  Uiso   1.00
C227   C     0.75000   0.25000   0.61520   0.00000  Uiso   1.00
C228   C     0.75000   0.25000   0.55620   0.00000  Uiso   1.00
C229   C     0.75000   0.25000   0.88480   0.00000  Uiso   1.00
C230   C     0.75000   0.25000   0.94380   0.00000  Uiso   1.00
C231   C     0.75000   0.75000   0.38480   0.00000  Uiso   1.00
C232   C     0.75000   0.75000   0.44380   0.00000  Uiso   1.00
C233   C     0.11520   0.25000   0.25000   0.00000  Uiso   1.00
C234   C     0.05620   0.25000   0.25000   0.00000  Uiso   1.00
C235   C     0.61520   0.25000   0.75000   0.00000  Uiso   1.00
C236   C     0.55620   0.25000   0.75000   0.00000  Uiso   1.00
C237   C     0.88480   0.25000   0.75000   0.00000  Uiso   1.00
C238   C     0.94380   0.25000   0.75000   0.00000  Uiso   1.00
C239   C     0.38480   0.25000   0.25000   0.00000  Uiso   1.00
C240   C     0.44380   0.25000   0.25000   0.00000  Uiso   1.00
C241   C     0.11520   0.75000   0.75000   0.00000  Uiso   1.00
C242   C     0.05620   0.75000   0.75000   0.00000  Uiso   1.00
C243   C     0.61520   0.75000   0.25000   0.00000  Uiso   1.00
C244   C     0.55620   0.75000   0.25000   0.00000  Uiso   1.00
C245   C     0.88480   0.75000   0.25000   0.00000  Uiso   1.00
C246   C     0.94380   0.75000   0.25000   0.00000  Uiso   1.00
C247   C     0.38480   0.75000   0.75000   0.00000  Uiso   1.00
C248   C     0.44380   0.75000   0.75000   0.00000  Uiso   1.00
C249   C     0.11520   0.25000   0.75000   0.00000  Uiso   1.00
C250   C     0.05620   0.25000   0.75000   0.00000  Uiso   1.00
C251   C     0.61520   0.25000   0.25000   0.00000  Uiso   1.00
C252   C     0.55620   0.25000   0.25000   0.00000  Uiso   1.00
C253   C     0.88480   0.75000   0.75000   0.00000  Uiso   1.00
C254   C     0.94380   0.75000   0.75000   0.00000  Uiso   1.00
C255   C     0.88480   0.25000   0.25000   0.00000  Uiso   1.00
C256   C     0.94380   0.25000   0.25000   0.00000  Uiso   1.00
C257   C     0.38480   0.75000   0.25000   0.00000  Uiso   1.00
C258   C     0.44380   0.75000   0.25000   0.00000  Uiso   1.00
C259   C     0.11520   0.75000   0.25000   0.00000  Uiso   1.00
C260   C     0.05620   0.75000   0.25000   0.00000  Uiso   1.00
C261   C     0.61520   0.75000   0.75000   0.00000  Uiso   1.00
C262   C     0.55620   0.75000   0.75000   0.00000  Uiso   1.00
C263   C     0.38480   0.25000   0.75000   0.00000  Uiso   1.00
C264   C     0.44380   0.25000   0.75000   0.00000  Uiso   1.00
C265   C     0.25000   0.25000   0.88480   0.00000  Uiso   1.00
C266   C     0.25000   0.25000   0.94380   0.00000  Uiso   1.00
C267   C     0.25000   0.75000   0.38480   0.00000  Uiso   1.00
C268   C     0.25000   0.75000   0.44380   0.00000  Uiso   1.00
C269   C     0.75000   0.25000   0.11520   0.00000  Uiso   1.00
C270   C     0.75000   0.25000   0.05620   0.00000  Uiso   1.00
C271   C     0.75000   0.75000   0.61520   0.00000  Uiso   1.00
C272   C     0.75000   0.75000   0.55620   0.00000  Uiso   1.00
C273   C     0.25000   0.25000   0.61520   0.00000  Uiso   1.00
C274   C     0.25000   0.25000   0.55620   0.00000  Uiso   1.00
C275   C     0.75000   0.75000   0.88480   0.00000  Uiso   1.00
C276   C     0.75000   0.75000   0.94380   0.00000  Uiso   1.00
C277   C     0.75000   0.25000   0.38480   0.00000  Uiso   1.00
C278   C     0.75000   0.25000   0.44380   0.00000  Uiso   1.00
C279   C     0.25000   0.75000   0.11520   0.00000  Uiso   1.00
C280   C     0.25000   0.75000   0.05620   0.00000  Uiso   1.00
C281   C     0.25000   0.11520   0.75000   0.00000  Uiso   1.00
C282   C     0.25000   0.05620   0.75000   0.00000  Uiso   1.00
C283   C     0.25000   0.61520   0.25000   0.00000  Uiso   1.00
C284   C     0.25000   0.55620   0.25000   0.00000  Uiso   1.00
C285   C     0.25000   0.88480   0.25000   0.00000  Uiso   1.00
C286   C     0.25000   0.94380   0.25000   0.00000  Uiso   1.00
C287   C     0.25000   0.38480   0.75000   0.00000  Uiso   1.00
C288   C     0.25000   0.44380   0.75000   0.00000  Uiso   1.00
C289   C     0.75000   0.11520   0.25000   0.00000  Uiso   1.00
C290   C     0.75000   0.05620   0.25000   0.00000  Uiso   1.00
C291   C     0.75000   0.61520   0.75000   0.00000  Uiso   1.00
C292   C     0.75000   0.55620   0.75000   0.00000  Uiso   1.00
C293   C     0.75000   0.88480   0.75000   0.00000  Uiso   1.00
C294   C     0.75000   0.94380   0.75000   0.00000  Uiso   1.00
C295   C     0.75000   0.38480   0.25000   0.00000  Uiso   1.00
C296   C     0.75000   0.44380   0.25000   0.00000  Uiso   1.00
Zn297  Zn    0.20639   0.20639   0.20639   0.00000  Uiso   1.00
Zn298  Zn    0.20639   0.70639   0.70639   0.00000  Uiso   1.00
Zn299  Zn    0.70639   0.20639   0.70639   0.00000  Uiso   1.00
Zn300  Zn    0.70639   0.70639   0.20639   0.00000  Uiso   1.00
Zn301  Zn    0.79361   0.79361   0.20639   0.00000  Uiso   1.00
Zn302  Zn    0.79361   0.29361   0.70639   0.00000  Uiso   1.00
Zn303  Zn    0.29361   0.79361   0.70639   0.00000  Uiso   1.00
Zn304  Zn    0.29361   0.29361   0.20639   0.00000  Uiso   1.00
Zn305  Zn    0.79361   0.20639   0.79361   0.00000  Uiso   1.00
Zn306  Zn    0.79361   0.70639   0.29361   0.00000  Uiso   1.00
Zn307  Zn    0.29361   0.20639   0.29361   0.00000  Uiso   1.00
Zn308  Zn    0.29361   0.70639   0.79361   0.00000  Uiso   1.00
Zn309  Zn    0.20639   0.79361   0.79361   0.00000  Uiso   1.00
Zn310  Zn    0.20639   0.29361   0.29361   0.00000  Uiso   1.00
Zn311  Zn    0.70639   0.79361   0.29361   0.00000  Uiso   1.00
Zn312  Zn    0.70639   0.29361   0.79361   0.00000  Uiso   1.00
Zn313  Zn    0.20639   0.20639   0.79361   0.00000  Uiso   1.00
Zn314  Zn    0.20639   0.70639   0.29361   0.00000  Uiso   1.00
Zn315  Zn    0.70639   0.20639   0.29361   0.00000  Uiso   1.00
Zn316  Zn    0.70639   0.70639   0.79361   0.00000  Uiso   1.00
Zn317  Zn    0.79361   0.79361   0.79361   0.00000  Uiso   1.00
Zn318  Zn    0.79361   0.29361   0.29361   0.00000  Uiso   1.00
Zn319  Zn    0.29361   0.79361   0.29361   0.00000  Uiso   1.00
Zn320  Zn    0.29361   0.29361   0.79361   0.00000  Uiso   1.00
Zn321  Zn    0.20639   0.79361   0.20639   0.00000  Uiso   1.00
Zn322  Zn    0.20639   0.29361   0.70639   0.00000  Uiso   1.00
Zn323  Zn    0.70639   0.79361   0.70639   0.00000  Uiso   1.00
Zn324  Zn    0.70639   0.29361   0.20639   0.00000  Uiso   1.00
Zn325  Zn    0.79361   0.20639   0.20639   0.00000  Uiso   1.00
Zn326  Zn    0.79361   0.70639   0.70639   0.00000  Uiso   1.00
Zn327  Zn    0.29361   0.20639   0.70639   0.00000  Uiso   1.00
Zn328  Zn    0.29361   0.70639   0.20639   0.00000  Uiso   1.00
H329   H     0.18997   0.04033   0.18997   0.00000  Uiso   1.00
H330   H     0.18997   0.54033   0.68997   0.00000  Uiso   1.00
H331   H     0.68997   0.04033   0.68997   0.00000  Uiso   1.00
H332   H     0.68997   0.54033   0.18997   0.00000  Uiso   1.00
H333   H     0.81003   0.95967   0.18997   0.00000  Uiso   1.00
H334   H     0.81003   0.45967   0.68997   0.00000  Uiso   1.00
H335   H     0.31003   0.95967   0.68997   0.00000  Uiso   1.00
H336   H     0.31003   0.45967   0.18997   0.00000  Uiso   1.00
H337   H     0.81003   0.04033   0.81003   0.00000  Uiso   1.00
H338   H     0.81003   0.54033   0.31003   0.00000  Uiso   1.00
H339   H     0.31003   0.04033   0.31003   0.00000  Uiso   1.00
H340   H     0.31003   0.54033   0.81003   0.00000  Uiso   1.00
H341   H     0.18997   0.95967   0.81003   0.00000  Uiso   1.00
H342   H     0.18997   0.45967   0.31003   0.00000  Uiso   1.00
H343   H     0.68997   0.95967   0.31003   0.00000  Uiso   1.00
H344   H     0.68997   0.45967   0.81003   0.00000  Uiso   1.00
H345   H     0.18997   0.18997   0.04033   0.00000  Uiso   1.00
H346   H     0.18997   0.68997   0.54033   0.00000  Uiso   1.00
H347   H     0.68997   0.18997   0.54033   0.00000  Uiso   1.00
H348   H     0.68997   0.68997   0.04033   0.00000  Uiso   1.00
H349   H     0.18997   0.81003   0.95967   0.00000  Uiso   1.00
H350   H     0.18997   0.31003   0.45967   0.00000  Uiso   1.00
H351   H     0.68997   0.81003   0.45967   0.00000  Uiso   1.00
H352   H     0.68997   0.31003   0.95967   0.00000  Uiso   1.00
H353   H     0.81003   0.81003   0.04033   0.00000  Uiso   1.00
H354   H     0.81003   0.31003   0.54033   0.00000  Uiso   1.00
H355   H     0.31003   0.81003   0.54033   0.00000  Uiso   1.00
H356   H     0.31003   0.31003   0.04033   0.00000  Uiso   1.00
H357   H     0.81003   0.18997   0.95967   0.00000  Uiso   1.00
H358   H     0.81003   0.68997   0.45967   0.00000  Uiso   1.00
H359   H     0.31003   0.18997   0.45967   0.00000  Uiso   1.00
H360   H     0.31003   0.68997   0.95967   0.00000  Uiso   1.00
H361   H     0.04033   0.18997   0.18997   0.00000  Uiso   1.00
H362   H     0.04033   0.68997   0.68997   0.00000  Uiso   1.00
H363   H     0.54033   0.18997   0.68997   0.00000  Uiso   1.00
H364   H     0.54033   0.68997   0.18997   0.00000  Uiso   1.00
H365   H     0.95967   0.18997   0.81003   0.00000  Uiso   1.00
H366   H     0.95967   0.68997   0.31003   0.00000  Uiso   1.00
H367   H     0.45967   0.18997   0.31003   0.00000  Uiso   1.00
H368   H     0.45967   0.68997   0.81003   0.00000  Uiso   1.00
H369   H     0.04033   0.81003   0.81003   0.00000  Uiso   1.00
H370   H     0.04033   0.31003   0.31003   0.00000  Uiso   1.00
H371   H     0.54033   0.81003   0.31003   0.00000  Uiso   1.00
H372   H     0.54033   0.31003   0.81003   0.00000  Uiso   1.00
H373   H     0.95967   0.81003   0.18997   0.00000  Uiso   1.00
H374   H     0.95967   0.31003   0.68997   0.00000  Uiso   1.00
H375   H     0.45967   0.81003   0.68997   0.00000  Uiso   1.00
H376   H     0.45967   0.31003   0.18997   0.00000  Uiso   1.00
H377   H     0.04033   0.18997   0.81003   0.00000  Uiso   1.00
H378   H     0.04033   0.68997   0.31003   0.00000  Uiso   1.00
H379   H     0.54033   0.18997   0.31003   0.00000  Uiso   1.00
H380   H     0.54033   0.68997   0.81003   0.00000  Uiso   1.00
H381   H     0.95967   0.81003   0.81003   0.00000  Uiso   1.00
H382   H     0.95967   0.31003   0.31003   0.00000  Uiso   1.00
H383   H     0.45967   0.81003   0.31003   0.00000  Uiso   1.00
H384   H     0.45967   0.31003   0.81003   0.00000  Uiso   1.00
H385   H     0.04033   0.81003   0.18997   0.00000  Uiso   1.00
H386   H     0.04033   0.31003   0.68997   0.00000  Uiso   1.00
H387   H     0.54033   0.81003   0.68997   0.00000  Uiso   1.00
H388   H     0.54033   0.31003   0.18997   0.00000  Uiso   1.00
H389   H     0.95967   0.18997   0.18997   0.00000  Uiso   1.00
H390   H     0.95967   0.68997   0.68997   0.00000  Uiso   1.00
H391   H     0.45967   0.18997   0.68997   0.00000  Uiso   1.00
H392   H     0.45967   0.68997   0.18997   0.00000  Uiso   1.00
H393   H     0.18997   0.18997   0.95967   0.00000  Uiso   1.00
H394   H     0.18997   0.68997   0.45967   0.00000  Uiso   1.00
H395   H     0.68997   0.18997   0.45967   0.00000  Uiso   1.00
H396   H     0.68997   0.68997   0.95967   0.00000  Uiso   1.00
H397   H     0.81003   0.18997   0.04033   0.00000  Uiso   1.00
H398   H     0.81003   0.68997   0.54033   0.00000  Uiso   1.00
H399   H     0.31003   0.18997   0.54033   0.00000  Uiso   1.00
H400   H     0.31003   0.68997   0.04033   0.00000  Uiso   1.00
H401   H     0.81003   0.81003   0.95967   0.00000  Uiso   1.00
H402   H     0.81003   0.31003   0.45967   0.00000  Uiso   1.00
H403   H     0.31003   0.81003   0.45967   0.00000  Uiso   1.00
H404   H     0.31003   0.31003   0.95967   0.00000  Uiso   1.00
H405   H     0.18997   0.81003   0.04033   0.00000  Uiso   1.00
H406   H     0.18997   0.31003   0.54033   0.00000  Uiso   1.00
H407   H     0.68997   0.81003   0.54033   0.00000  Uiso   1.00
H408   H     0.68997   0.31003   0.04033   0.00000  Uiso   1.00
H409   H     0.18997   0.04033   0.81003   0.00000  Uiso   1.00
H410   H     0.18997   0.54033   0.31003   0.00000  Uiso   1.00
H411   H     0.68997   0.04033   0.31003   0.00000  Uiso   1.00
H412   H     0.68997   0.54033   0.81003   0.00000  Uiso   1.00
H413   H     0.18997   0.95967   0.18997   0.00000  Uiso   1.00
H414   H     0.18997   0.45967   0.68997   0.00000  Uiso   1.00
H415   H     0.68997   0.95967   0.68997   0.00000  Uiso   1.00
H416   H     0.68997   0.45967   0.18997   0.00000  Uiso   1.00
H417   H     0.81003   0.04033   0.18997   0.00000  Uiso   1.00
H418   H     0.81003   0.54033   0.68997   0.00000  Uiso   1.00
H419   H     0.31003   0.04033   0.68997   0.00000  Uiso   1.00
H420   H     0.31003   0.54033   0.18997   0.00000  Uiso   1.00
H421   H     0.81003   0.95967   0.81003   0.00000  Uiso   1.00
H422   H     0.81003   0.45967   0.31003   0.00000  Uiso   1.00
H423   H     0.31003   0.95967   0.31003   0.00000  Uiso   1.00
H424   H     0.31003   0.45967   0.81003   0.00000  Uiso   1.00
loop_
_geom_bond_atom_site_label_1
_geom_bond_atom_site_label_2
_geom_bond_distance
_geom_bond_site_symmetry_2
_ccdc_geom_bond_type
O1     C201    1.367   .     A
O1     Zn297   1.896   .     S
C2     C202    1.414   .     A
C2     H329    1.140   .     S
C2     C170    1.180   1_545 A
O3     C203    1.367   .     A
O3     Zn298   1.896   .     S
C4     C204    1.414   .     A
C4     C172    1.180   .     A
C4     H330    1.140   .     S
O5     C211    1.367   .     A
O5     Zn299   1.896   .     S
C6     C212    1.414   .     A
C6     H331    1.140   .     S
C6     C174    1.180   1_545 S
O7     C213    1.367   .     A
O7     Zn300   1.896   .     S
C8     C214    1.414   .     A
C8     C176    1.180   .     A
C8     H332    1.140   .     S
O9     C205    1.367   .     A
O9     Zn301   1.896   .     S
C10    C206    1.414   .     A
C10    H333    1.140   .     S
C10    C178    1.180   1_565 A
O11    C207    1.367   .     A
O11    Zn302   1.896   .     S
C12    C208    1.414   .     A
C12    C180    1.180   .     A
C12    H334    1.140   .     S
O13    C215    1.367   .     A
O13    Zn303   1.896   .     S
C14    C216    1.414   .     A
C14    H335    1.140   .     S
C14    C182    1.180   1_565 S
O15    C209    1.367   .     A
O15    Zn304   1.896   .     S
C16    C210    1.414   .     A
C16    C184    1.180   .     A
C16    H336    1.140   .     S
O17    C211    1.367   .     A
O17    Zn305   1.896   .     S
C18    C212    1.414   .     A
C18    H337    1.140   .     S
C18    C186    1.180   1_545 A
O19    C213    1.367   .     A
O19    Zn306   1.896   .     S
C20    C214    1.414   .     A
C20    C188    1.180   .     A
C20    H338    1.140   .     S
O21    C201    1.367   .     A
O21    Zn307   1.896   .     S
C22    C202    1.414   .     A
C22    H339    1.140   .     S
C22    C190    1.180   1_545 S
O23    C203    1.367   .     A
O23    Zn308   1.896   .     S
C24    C204    1.414   .     A
C24    C192    1.180   .     A
C24    H340    1.140   .     S
O25    C215    1.367   .     A
O25    Zn309   1.896   .     S
C26    C216    1.414   .     A
C26    H341    1.140   .     S
C26    C162    1.180   1_565 A
O27    C209    1.367   .     A
O27    Zn310   1.896   .     S
C28    C210    1.414   .     A
C28    C164    1.180   .     A
C28    H342    1.140   .     S
O29    C205    1.367   .     A
O29    Zn311   1.896   .     S
C30    C206    1.414   .     A
C30    H343    1.140   .     S
C30    C166    1.180   1_565 A
O31    C207    1.367   .     A
O31    Zn312   1.896   .     S
C32    C208    1.414   .     A
C32    C168    1.180   .     A
C32    H344    1.140   .     S
O33    C217    1.367   .     A
O33    Zn297   1.896   .     S
C34    C218    1.414   .     A
C34    H345    1.140   .     S
C34    C130    1.180   1_554 S
O35    C219    1.367   .     A
O35    Zn298   1.896   .     S
C36    C220    1.414   .     A
C36    C132    1.180   .     A
C36    H346    1.140   .     S
O37    C227    1.367   .     A
O37    Zn299   1.896   .     S
C38    C228    1.414   .     A
C38    C134    1.180   .     A
C38    H347    1.140   .     S
O39    C225    1.367   .     A
O39    Zn300   1.896   .     S
C40    C226    1.414   .     A
C40    H348    1.140   .     S
C40    C136    1.180   1_554 A
O41    C221    1.367   .     A
O41    Zn309   1.896   .     S
C42    C222    1.414   .     A
C42    H349    1.140   .     S
C42    C154    1.180   1_556 S
O43    C223    1.367   .     A
O43    Zn310   1.896   .     S
C44    C224    1.414   .     A
C44    C156    1.180   .     A
C44    H350    1.140   .     S
O45    C231    1.367   .     A
O45    Zn311   1.896   .     S
C46    C232    1.414   .     A
C46    C158    1.180   .     A
C46    H351    1.140   .     S
O47    C229    1.367   .     A
O47    Zn312   1.896   .     S
C48    C230    1.414   .     A
C48    H352    1.140   .     S
C48    C160    1.180   1_556 A
O49    C225    1.367   .     A
O49    Zn301   1.896   .     S
C50    C226    1.414   .     A
C50    H353    1.140   .     S
C50    C146    1.180   1_554 S
O51    C227    1.367   .     A
O51    Zn302   1.896   .     S
C52    C228    1.414   .     A
C52    C148    1.180   .     A
C52    H354    1.140   .     S
O53    C219    1.367   .     A
O53    Zn303   1.896   .     S
C54    C220    1.414   .     A
C54    C150    1.180   .     A
C54    H355    1.140   .     S
O55    C217    1.367   .     A
O55    Zn304   1.896   .     S
C56    C218    1.414   .     A
C56    H356    1.140   .     S
C56    C152    1.180   1_554 A
O57    C229    1.367   .     A
O57    Zn305   1.896   .     S
C58    C230    1.414   .     A
C58    H357    1.140   .     S
C58    C138    1.180   1_556 S
O59    C231    1.367   .     A
O59    Zn306   1.896   .     S
C60    C232    1.414   .     A
C60    C140    1.180   .     A
C60    H358    1.140   .     S
O61    C223    1.367   .     A
O61    Zn307   1.896   .     S
C62    C224    1.414   .     A
C62    C142    1.180   .     A
C62    H359    1.140   .     S
O63    C221    1.367   .     A
O63    Zn308   1.896   .     S
C64    C222    1.414   .     A
C64    H360    1.140   .     S
C64    C144    1.180   1_556 A
O65    C233    1.367   .     A
O65    Zn297   1.896   .     S
C66    C234    1.414   .     A
C66    H361    1.140   .     S
C66    C122    1.180   1_455 A
O67    C241    1.367   .     A
O67    Zn298   1.896   .     S
C68    C242    1.414   .     A
C68    H362    1.140   .     S
C68    C124    1.180   1_455 S
O69    C235    1.367   .     A
O69    Zn299   1.896   .     S
C70    C236    1.414   .     A
C70    C126    1.180   .     A
C70    H363    1.140   .     S
O71    C243    1.367   .     A
O71    Zn300   1.896   .     S
C72    C244    1.414   .     A
C72    C128    1.180   .     A
C72    H364    1.140   .     S
O73    C237    1.367   .     A
O73    Zn305   1.896   .     S
C74    C238    1.414   .     A
C74    H365    1.140   .     S
C74    C98     1.180   1_655 A
O75    C245    1.367   .     A
O75    Zn306   1.896   .     S
C76    C246    1.414   .     A
C76    H366    1.140   .     S
C76    C100    1.180   1_655 S
O77    C239    1.367   .     A
O77    Zn307   1.896   .     S
C78    C240    1.414   .     A
C78    C102    1.180   .     A
C78    H367    1.140   .     S
O79    C247    1.367   .     A
O79    Zn308   1.896   .     S
C80    C248    1.414   .     A
C80    C104    1.180   .     A
C80    H368    1.140   .     S
O81    C241    1.367   .     A
O81    Zn309   1.896   .     S
C82    C242    1.414   .     A
C82    H369    1.140   .     S
C82    C106    1.180   1_455 A
O83    C233    1.367   .     A
O83    Zn310   1.896   .     S
C84    C234    1.414   .     A
C84    H370    1.140   .     S
C84    C108    1.180   1_455 S
O85    C243    1.367   .     A
O85    Zn311   1.896   .     S
C86    C244    1.414   .     A
C86    C110    1.180   .     A
C86    H371    1.140   .     S
O87    C235    1.367   .     A
O87    Zn312   1.896   .     S
C88    C236    1.414   .     A
C88    C112    1.180   .     A
C88    H372    1.140   .     S
O89    C245    1.367   .     A
O89    Zn301   1.896   .     S
C90    C246    1.414   .     A
C90    H373    1.140   .     S
C90    C114    1.180   1_655 A
O91    C237    1.367   .     A
O91    Zn302   1.896   .     S
C92    C238    1.414   .     A
C92    H374    1.140   .     S
C92    C116    1.180   1_655 S
O93    C247    1.367   .     A
O93    Zn303   1.896   .     S
C94    C248    1.414   .     A
C94    C118    1.180   .     A
C94    H375    1.140   .     S
O95    C239    1.367   .     A
O95    Zn304   1.896   .     S
C96    C240    1.414   .     A
C96    C120    1.180   .     A
C96    H376    1.140   .     S
O97    C249    1.367   .     A
O97    Zn313   1.896   .     S
C98    C250    1.414   .     A
C98    H377    1.140   .     S
C98    C74     1.180   1_455 A
O99    C259    1.367   .     A
O99    Zn314   1.896   .     S
C100   C260    1.414   .     A
C100   H378    1.140   .     S
C100   C76     1.180   1_455 S
O101   C251    1.367   .     A
O101   Zn315   1.896   .     S
C102   C252    1.414   .     A
C102   H379    1.140   .     S
O103   C261    1.367   .     A
O103   Zn316   1.896   .     S
C104   C262    1.414   .     A
C104   H380    1.140   .     S
O105   C253    1.367   .     A
O105   Zn317   1.896   .     S
C106   C254    1.414   .     A
C106   H381    1.140   .     S
C106   C82     1.180   1_655 A
O107   C255    1.367   .     A
O107   Zn318   1.896   .     S
C108   C256    1.414   .     A
C108   H382    1.140   .     S
C108   C84     1.180   1_655 S
O109   C257    1.367   .     A
O109   Zn319   1.896   .     S
C110   C258    1.414   .     A
C110   H383    1.140   .     S
O111   C263    1.367   .     A
O111   Zn320   1.896   .     S
C112   C264    1.414   .     A
C112   H384    1.140   .     S
O113   C259    1.367   .     A
O113   Zn321   1.896   .     S
C114   C260    1.414   .     A
C114   H385    1.140   .     S
C114   C90     1.180   1_455 A
O115   C249    1.367   .     A
O115   Zn322   1.896   .     S
C116   C250    1.414   .     A
C116   H386    1.140   .     S
C116   C92     1.180   1_455 S
O117   C261    1.367   .     A
O117   Zn323   1.896   .     S
C118   C262    1.414   .     A
C118   H387    1.140   .     S
O119   C251    1.367   .     A
O119   Zn324   1.896   .     S
C120   C252    1.414   .     A
C120   H388    1.140   .     S
O121   C255    1.367   .     A
O121   Zn325   1.896   .     S
C122   C256    1.414   .     A
C122   H389    1.140   .     S
C122   C66     1.180   1_655 A
O123   C253    1.367   .     A
O123   Zn326   1.896   .     S
C124   C254    1.414   .     A
C124   H390    1.140   .     S
C124   C68     1.180   1_655 S
O125   C263    1.367   .     A
O125   Zn327   1.896   .     S
C126   C264    1.414   .     A
C126   H391    1.140   .     S
O127   C257    1.367   .     A
O127   Zn328   1.896   .     S
C128   C258    1.414   .     A
C128   H392    1.140   .     S
O129   C265    1.367   .     A
O129   Zn313   1.896   .     S
C130   C266    1.414   .     A
C130   H393    1.140   .     S
C130   C34     1.180   1_556 S
O131   C267    1.367   .     A
O131   Zn314   1.896   .     S
C132   C268    1.414   .     A
C132   H394    1.140   .     S
O133   C277    1.367   .     A
O133   Zn315   1.896   .     S
C134   C278    1.414   .     A
C134   H395    1.140   .     S
O135   C275    1.367   .     A
O135   Zn316   1.896   .     S
C136   C276    1.414   .     A
C136   H396    1.140   .     S
C136   C40     1.180   1_556 A
O137   C269    1.367   .     A
O137   Zn325   1.896   .     S
C138   C270    1.414   .     A
C138   H397    1.140   .     S
C138   C58     1.180   1_554 S
O139   C271    1.367   .     A
O139   Zn326   1.896   .     S
C140   C272    1.414   .     A
C140   H398    1.140   .     S
O141   C273    1.367   .     A
O141   Zn327   1.896   .     S
C142   C274    1.414   .     A
C142   H399    1.140   .     S
O143   C279    1.367   .     A
O143   Zn328   1.896   .     S
C144   C280    1.414   .     A
C144   H400    1.140   .     S
C144   C64     1.180   1_554 A
O145   C275    1.367   .     A
O145   Zn317   1.896   .     S
C146   C276    1.414   .     A
C146   H401    1.140   .     S
C146   C50     1.180   1_556 S
O147   C277    1.367   .     A
O147   Zn318   1.896   .     S
C148   C278    1.414   .     A
C148   H402    1.140   .     S
O149   C267    1.367   .     A
O149   Zn319   1.896   .     S
C150   C268    1.414   .     A
C150   H403    1.140   .     S
O151   C265    1.367   .     A
O151   Zn320   1.896   .     S
C152   C266    1.414   .     A
C152   H404    1.140   .     S
C152   C56     1.180   1_556 A
O153   C279    1.367   .     A
O153   Zn321   1.896   .     S
C154   C280    1.414   .     A
C154   H405    1.140   .     S
C154   C42     1.180   1_554 S
O155   C273    1.367   .     A
O155   Zn322   1.896   .     S
C156   C274    1.414   .     A
C156   H406    1.140   .     S
O157   C271    1.367   .     A
O157   Zn323   1.896   .     S
C158   C272    1.414   .     A
C158   H407    1.140   .     S
O159   C269    1.367   .     A
O159   Zn324   1.896   .     S
C160   C270    1.414   .     A
C160   H408    1.140   .     S
C160   C48     1.180   1_554 A
O161   C281    1.367   .     A
O161   Zn313   1.896   .     S
C162   C282    1.414   .     A
C162   H409    1.140   .     S
C162   C26     1.180   1_545 A
O163   C283    1.367   .     A
O163   Zn314   1.896   .     S
C164   C284    1.414   .     A
C164   H410    1.140   .     S
O165   C289    1.367   .     A
O165   Zn315   1.896   .     S
C166   C290    1.414   .     A
C166   H411    1.140   .     S
C166   C30     1.180   1_545 A
O167   C291    1.367   .     A
O167   Zn316   1.896   .     S
C168   C292    1.414   .     A
C168   H412    1.140   .     S
O169   C285    1.367   .     A
O169   Zn321   1.896   .     S
C170   C286    1.414   .     A
C170   H413    1.140   .     S
C170   C2      1.180   1_565 A
O171   C287    1.367   .     A
O171   Zn322   1.896   .     S
C172   C288    1.414   .     A
C172   H414    1.140   .     S
O173   C293    1.367   .     A
O173   Zn323   1.896   .     S
C174   C294    1.414   .     A
C174   H415    1.140   .     S
C174   C6      1.180   1_565 S
O175   C295    1.367   .     A
O175   Zn324   1.896   .     S
C176   C296    1.414   .     A
C176   H416    1.140   .     S
O177   C289    1.367   .     A
O177   Zn325   1.896   .     S
C178   C290    1.414   .     A
C178   H417    1.140   .     S
C178   C10     1.180   1_545 A
O179   C291    1.367   .     A
O179   Zn326   1.896   .     S
C180   C292    1.414   .     A
C180   H418    1.140   .     S
O181   C281    1.367   .     A
O181   Zn327   1.896   .     S
C182   C282    1.414   .     A
C182   H419    1.140   .     S
C182   C14     1.180   1_545 S
O183   C283    1.367   .     A
O183   Zn328   1.896   .     S
C184   C284    1.414   .     A
C184   H420    1.140   .     S
O185   C293    1.367   .     A
O185   Zn317   1.896   .     S
C186   C294    1.414   .     A
C186   H421    1.140   .     S
C186   C18     1.180   1_565 A
O187   C295    1.367   .     A
O187   Zn318   1.896   .     S
C188   C296    1.414   .     A
C188   H422    1.140   .     S
O189   C285    1.367   .     A
O189   Zn319   1.896   .     S
C190   C286    1.414   .     A
C190   H423    1.140   .     S
C190   C22     1.180   1_565 S
O191   C287    1.367   .     A
O191   Zn320   1.896   .     S
C192   C288    1.414   .     A
C192   H424    1.140   .     S
O193   Zn297   1.938   .     S
O193   Zn310   1.938   .     S
O193   Zn307   1.938   .     S
O193   Zn304   1.938   .     S
O194   Zn301   1.938   .     S
O194   Zn306   1.938   .     S
O194   Zn311   1.938   .     S
O194   Zn300   1.938   .     S
O195   Zn305   1.938   .     S
O195   Zn302   1.938   .     S
O195   Zn299   1.938   .     S
O195   Zn312   1.938   .     S
O196   Zn309   1.938   .     S
O196   Zn298   1.938   .     S
O196   Zn303   1.938   .     S
O196   Zn308   1.938   .     S
O197   Zn313   1.938   .     S
O197   Zn327   1.938   .     S
O197   Zn322   1.938   .     S
O197   Zn320   1.938   .     S
O198   Zn317   1.938   .     S
O198   Zn323   1.938   .     S
O198   Zn326   1.938   .     S
O198   Zn316   1.938   .     S
O199   Zn325   1.938   .     S
O199   Zn315   1.938   .     S
O199   Zn318   1.938   .     S
O199   Zn324   1.938   .     S
O200   Zn321   1.938   .     S
O200   Zn319   1.938   .     S
O200   Zn314   1.938   .     S
O200   Zn328   1.938   .     S
C201   C202    1.514   .     S
C203   C204    1.514   .     S
C205   C206    1.514   .     S
C207   C208    1.514   .     S
C209   C210    1.514   .     S
C211   C212    1.514   .     S
C213   C214    1.514   .     S
C215   C216    1.514   .     S
C217   C218    1.514   .     S
C219   C220    1.514   .     S
C221   C222    1.514   .     S
C223   C224    1.514   .     S
C225   C226    1.514   .     S
C227   C228    1.514   .     S
C229   C230    1.514   .     S
C231   C232    1.514   .     S
C233   C234    1.514   .     S
C235   C236    1.514   .     S
C237   C238    1.514   .     S
C239   C240    1.514   .     S
C241   C242    1.514   .     S
C243   C244    1.514   .     S
C245   C246    1.514   .     S
C247   C248    1.514   .     S
C249   C250    1.514   .     S
C251   C252    1.514   .     S
C253   C254    1.514   .     S
C255   C256    1.514   .     S
C257   C258    1.514   .     S
C259   C260    1.514   .     S
C261   C262    1.514   .     S
C263   C264    1.514   .     S
C265   C266    1.514   .     S
C267   C268    1.514   .     S
C269   C270    1.514   .     S
C271   C272    1.514   .     S
C273   C274    1.514   .     S
C275   C276    1.514   .     S
C277   C278    1.514   .     S
C279   C280    1.514   .     S
C281   C282    1.514   .     S
C283   C284    1.514   .     S
C285   C286    1.514   .     S
C287   C288    1.514   .     S
C289   C290    1.514   .     S
C291   C292    1.514   .     S
C293   C294    1.514   .     S
C295   C296    1.514   .     S
