data_image0
_cell_length_a       26.5879
_cell_length_b       26.5879
_cell_length_c       67.331
_cell_angle_alpha    90
_cell_angle_beta     90
_cell_angle_gamma    120

_symmetry_space_group_name_H-M    "P 1"
_symmetry_int_tables_number       1

loop_
  _symmetry_equiv_pos_as_xyz
  'x, y, z'

loop_
  _atom_site_label
  _atom_site_occupancy
  _atom_site_fract_x
  _atom_site_fract_y
  _atom_site_fract_z
  _atom_site_thermal_displace_type
  _atom_site_B_iso_or_equiv
  _atom_site_type_symbol
  Cd1      1.0000 0.81427  0.67095  0.61426  Biso   1.000  Cd
  O1       1.0000 0.74820  0.64410  0.58810  Biso   1.000  O
  O2       1.0000 0.83100  0.64880  0.58233  Biso   1.000  O
  C1       1.0000 0.78210  0.63880  0.57691  Biso   1.000  C
  C2       1.0000 0.79440  0.60640  0.52235  Biso   1.000  C
  C3       1.0000 0.80770  0.62380  0.54210  Biso   1.000  C
  H1       1.0000 0.84550  0.63770  0.54660  Biso   1.000  H
  C4       1.0000 0.70990  0.60110  0.54897  Biso   1.000  C
  H2       1.0000 0.68160  0.59830  0.55770  Biso   1.000  H
  C5       1.0000 0.69650  0.58500  0.52916  Biso   1.000  C
  H3       1.0000 0.65890  0.57270  0.52480  Biso   1.000  H
  C6       1.0000 0.76570  0.62100  0.55533  Biso   1.000  C
  C7       1.0000 0.83670  0.60430  0.50927  Biso   1.000  C
  C8       1.0000 0.82020  0.58130  0.49034  Biso   1.000  C
  C9       1.0000 0.72130  0.56770  0.49536  Biso   1.000  C
  C10      1.0000 0.66600  0.55120  0.48792  Biso   1.000  C
  H4       1.0000 0.63890  0.55300  0.49620  Biso   1.000  H
  C11      1.0000 0.73700  0.58640  0.51563  Biso   1.000  C
  C12      1.0000 0.76230  0.56380  0.48244  Biso   1.000  C
  C13      1.0000 0.85850  0.57150  0.47858  Biso   1.000  C
  H5       1.0000 0.84770  0.55660  0.46580  Biso   1.000  H
  C14      1.0000 0.65050  0.53200  0.46818  Biso   1.000  C
  C15      1.0000 0.74540  0.54540  0.46269  Biso   1.000  C
  H6       1.0000 0.77180  0.54400  0.45400  Biso   1.000  H
  C16      1.0000 0.69090  0.52960  0.45614  Biso   1.000  C
  H7       1.0000 0.68080  0.51670  0.44310  Biso   1.000  H
  C17      1.0000 0.91250  0.58400  0.48607  Biso   1.000  C
  C18      1.0000 0.92990  0.61000  0.50445  Biso   1.000  C
  H8       1.0000 0.96660  0.62020  0.50930  Biso   1.000  H
  C19      1.0000 0.89330  0.62060  0.51559  Biso   1.000  C
  H9       1.0000 0.90620  0.63930  0.52780  Biso   1.000  H
  O3       1.0000 0.78010  0.58030  0.62259  Biso   1.000  O
  C20      1.0000 0.78450  0.55730  0.63823  Biso   1.000  C
  C21      1.0000 0.94860  0.56620  0.47427  Biso   1.000  C
  O4       1.0000 0.80050  0.57840  0.65507  Biso   1.000  O
  C22      1.0000 0.59050  0.51350  0.46094  Biso   1.000  C
  C23      1.0000 0.76460  0.49350  0.63745  Biso   1.000  C
  O5       1.0000 0.55630  0.52110  0.47182  Biso   1.000  O
  O6       1.0000 0.99298  0.56943  0.48175  Biso   1.000  O
  O7       1.0000 0.93350  0.54990  0.45627  Biso   1.000  O
  O8       1.0000 0.57640  0.49080  0.44403  Biso   1.000  O
  C24      1.0000 0.68640  0.39320  0.63625  Biso   1.000  C
  C25      1.0000 0.72630  0.37440  0.63577  Biso   1.000  C
  C26      1.0000 0.70700  0.45400  0.63664  Biso   1.000  C
  H10      1.0000 0.68040  0.46700  0.63630  Biso   1.000  H
  C27      1.0000 0.78570  0.41500  0.63710  Biso   1.000  C
  H11      1.0000 0.81280  0.40260  0.63750  Biso   1.000  H
  C28      1.0000 0.80410  0.47470  0.63780  Biso   1.000  C
  H12      1.0000 0.84350  0.50170  0.63850  Biso   1.000  H
  Cd2      1.0000 0.48094  0.00428  0.94760  Biso   1.000  Cd
  O9       1.0000 0.41487  0.97743  0.92143  Biso   1.000  O
  O10      1.0000 0.49767  0.98213  0.91566  Biso   1.000  O
  C29      1.0000 0.44877  0.97213  0.91024  Biso   1.000  C
  C30      1.0000 0.46107  0.93973  0.85568  Biso   1.000  C
  C31      1.0000 0.47437  0.95713  0.87543  Biso   1.000  C
  H13      1.0000 0.51217  0.97103  0.87993  Biso   1.000  H
  C32      1.0000 0.37657  0.93443  0.88230  Biso   1.000  C
  H14      1.0000 0.34827  0.93163  0.89103  Biso   1.000  H
  C33      1.0000 0.36317  0.91833  0.86249  Biso   1.000  C
  H15      1.0000 0.32557  0.90603  0.85813  Biso   1.000  H
  C34      1.0000 0.43237  0.95433  0.88866  Biso   1.000  C
  C35      1.0000 0.50337  0.93763  0.84260  Biso   1.000  C
  C36      1.0000 0.48687  0.91463  0.82367  Biso   1.000  C
  C37      1.0000 0.38797  0.90103  0.82869  Biso   1.000  C
  C38      1.0000 0.33267  0.88453  0.82125  Biso   1.000  C
  H16      1.0000 0.30557  0.88633  0.82953  Biso   1.000  H
  C39      1.0000 0.40367  0.91973  0.84896  Biso   1.000  C
  C40      1.0000 0.42897  0.89713  0.81577  Biso   1.000  C
  C41      1.0000 0.52517  0.90483  0.81191  Biso   1.000  C
  H17      1.0000 0.51437  0.88993  0.79913  Biso   1.000  H
  C42      1.0000 0.31717  0.86533  0.80151  Biso   1.000  C
  C43      1.0000 0.41207  0.87873  0.79602  Biso   1.000  C
  H18      1.0000 0.43847  0.87733  0.78733  Biso   1.000  H
  C44      1.0000 0.35757  0.86293  0.78947  Biso   1.000  C
  H19      1.0000 0.34747  0.85003  0.77643  Biso   1.000  H
  C45      1.0000 0.57917  0.91733  0.81940  Biso   1.000  C
  C46      1.0000 0.59657  0.94333  0.83778  Biso   1.000  C
  H20      1.0000 0.63327  0.95353  0.84263  Biso   1.000  H
  C47      1.0000 0.55997  0.95393  0.84892  Biso   1.000  C
  H21      1.0000 0.57287  0.97263  0.86113  Biso   1.000  H
  O11      1.0000 0.44677  0.91363  0.95592  Biso   1.000  O
  C48      1.0000 0.45117  0.89063  0.97156  Biso   1.000  C
  C49      1.0000 0.61527  0.89953  0.80760  Biso   1.000  C
  O12      1.0000 0.46717  0.91173  0.98840  Biso   1.000  O
  C50      1.0000 0.25717  0.84683  0.79427  Biso   1.000  C
  C51      1.0000 0.43127  0.82683  0.97078  Biso   1.000  C
  O13      1.0000 0.22297  0.85443  0.80515  Biso   1.000  O
  O14      1.0000 0.65965  0.90276  0.81508  Biso   1.000  O
  O15      1.0000 0.60017  0.88323  0.78960  Biso   1.000  O
  O16      1.0000 0.24307  0.82413  0.77736  Biso   1.000  O
  C52      1.0000 0.35307  0.72653  0.96958  Biso   1.000  C
  C53      1.0000 0.39297  0.70773  0.96910  Biso   1.000  C
  C54      1.0000 0.37367  0.78733  0.96997  Biso   1.000  C
  H22      1.0000 0.34707  0.80033  0.96963  Biso   1.000  H
  C55      1.0000 0.45237  0.74833  0.97043  Biso   1.000  C
  H23      1.0000 0.47947  0.73593  0.97083  Biso   1.000  H
  C56      1.0000 0.47077  0.80803  0.97113  Biso   1.000  C
  H24      1.0000 0.51017  0.83503  0.97183  Biso   1.000  H
  Cd3      1.0000 0.14760  0.33762  0.28093  Biso   1.000  Cd
  O17      1.0000 0.08153  0.31077  0.25477  Biso   1.000  O
  O18      1.0000 0.16433  0.31547  0.24900  Biso   1.000  O
  C57      1.0000 0.11543  0.30547  0.24358  Biso   1.000  C
  C58      1.0000 0.12773  0.27307  0.18902  Biso   1.000  C
  C59      1.0000 0.14103  0.29047  0.20877  Biso   1.000  C
  H25      1.0000 0.17883  0.30437  0.21327  Biso   1.000  H
  C60      1.0000 0.04323  0.26777  0.21564  Biso   1.000  C
  H26      1.0000 0.01493  0.26497  0.22437  Biso   1.000  H
  C61      1.0000 0.02983  0.25167  0.19583  Biso   1.000  C
  H27      1.0000 0.99223  0.23937  0.19147  Biso   1.000  H
  C62      1.0000 0.09903  0.28767  0.22200  Biso   1.000  C
  C63      1.0000 0.17003  0.27097  0.17594  Biso   1.000  C
  C64      1.0000 0.15353  0.24797  0.15701  Biso   1.000  C
  C65      1.0000 0.05463  0.23437  0.16203  Biso   1.000  C
  C66      1.0000 0.99933  0.21787  0.15459  Biso   1.000  C
  H28      1.0000 0.97223  0.21967  0.16287  Biso   1.000  H
  C67      1.0000 0.07033  0.25307  0.18230  Biso   1.000  C
  C68      1.0000 0.09563  0.23047  0.14911  Biso   1.000  C
  C69      1.0000 0.19183  0.23817  0.14525  Biso   1.000  C
  H29      1.0000 0.18103  0.22327  0.13247  Biso   1.000  H
  C70      1.0000 0.98383  0.19867  0.13485  Biso   1.000  C
  C71      1.0000 0.07873  0.21207  0.12936  Biso   1.000  C
  H30      1.0000 0.10513  0.21067  0.12067  Biso   1.000  H
  C72      1.0000 0.02423  0.19627  0.12281  Biso   1.000  C
  H31      1.0000 0.01413  0.18337  0.10977  Biso   1.000  H
  C73      1.0000 0.24583  0.25067  0.15274  Biso   1.000  C
  C74      1.0000 0.26323  0.27667  0.17112  Biso   1.000  C
  H32      1.0000 0.29993  0.28687  0.17597  Biso   1.000  H
  C75      1.0000 0.22663  0.28727  0.18226  Biso   1.000  C
  H33      1.0000 0.23953  0.30597  0.19447  Biso   1.000  H
  O19      1.0000 0.11343  0.24697  0.28926  Biso   1.000  O
  C76      1.0000 0.11783  0.22397  0.30490  Biso   1.000  C
  C77      1.0000 0.28193  0.23287  0.14094  Biso   1.000  C
  O20      1.0000 0.13383  0.24507  0.32174  Biso   1.000  O
  C78      1.0000 0.92383  0.18017  0.12761  Biso   1.000  C
  C79      1.0000 0.09793  0.16017  0.30412  Biso   1.000  C
  O21      1.0000 0.88963  0.18777  0.13849  Biso   1.000  O
  O22      1.0000 0.32631  0.23610  0.14842  Biso   1.000  O
  O23      1.0000 0.26683  0.21657  0.12294  Biso   1.000  O
  O24      1.0000 0.90973  0.15747  0.11070  Biso   1.000  O
  C80      1.0000 0.01973  0.05987  0.30292  Biso   1.000  C
  C81      1.0000 0.05963  0.04107  0.30244  Biso   1.000  C
  C82      1.0000 0.04033  0.12067  0.30331  Biso   1.000  C
  H34      1.0000 0.01373  0.13367  0.30297  Biso   1.000  H
  C83      1.0000 0.11903  0.08167  0.30377  Biso   1.000  C
  H35      1.0000 0.14613  0.06927  0.30417  Biso   1.000  H
  C84      1.0000 0.13743  0.14137  0.30447  Biso   1.000  C
  H36      1.0000 0.17683  0.16837  0.30517  Biso   1.000  H
  Cd4      1.0000 0.32905  0.14332  0.61426  Biso   1.000  Cd
  O25      1.0000 0.35590  0.10410  0.58810  Biso   1.000  O
  O26      1.0000 0.35120  0.18220  0.58233  Biso   1.000  O
  C85      1.0000 0.36120  0.14330  0.57691  Biso   1.000  C
  C86      1.0000 0.39360  0.18800  0.52235  Biso   1.000  C
  C87      1.0000 0.37620  0.18390  0.54210  Biso   1.000  C
  H37      1.0000 0.36230  0.20780  0.54660  Biso   1.000  H
  C88      1.0000 0.39890  0.10880  0.54897  Biso   1.000  C
  H38      1.0000 0.40170  0.08330  0.55770  Biso   1.000  H
  C89      1.0000 0.41500  0.11150  0.52916  Biso   1.000  C
  H39      1.0000 0.42730  0.08620  0.52480  Biso   1.000  H
  C90      1.0000 0.37900  0.14470  0.55533  Biso   1.000  C
  C91      1.0000 0.39570  0.23240  0.50927  Biso   1.000  C
  C92      1.0000 0.41870  0.23890  0.49034  Biso   1.000  C
  C93      1.0000 0.43230  0.15360  0.49536  Biso   1.000  C
  C94      1.0000 0.44880  0.11480  0.48792  Biso   1.000  C
  H40      1.0000 0.44700  0.08590  0.49620  Biso   1.000  H
  C95      1.0000 0.41360  0.15060  0.51563  Biso   1.000  C
  C96      1.0000 0.43620  0.19850  0.48244  Biso   1.000  C
  C97      1.0000 0.42850  0.28700  0.47858  Biso   1.000  C
  H41      1.0000 0.44340  0.29110  0.46580  Biso   1.000  H
  C98      1.0000 0.46800  0.11850  0.46818  Biso   1.000  C
  C99      1.0000 0.45460  0.20000  0.46269  Biso   1.000  C
  H42      1.0000 0.45600  0.22780  0.45400  Biso   1.000  H
  C100     1.0000 0.47040  0.16130  0.45614  Biso   1.000  C
  H43      1.0000 0.48330  0.16410  0.44310  Biso   1.000  H
  C101     1.0000 0.41600  0.32850  0.48607  Biso   1.000  C
  C102     1.0000 0.39000  0.31990  0.50445  Biso   1.000  C
  H44      1.0000 0.37980  0.34640  0.50930  Biso   1.000  H
  C103     1.0000 0.37940  0.27270  0.51559  Biso   1.000  C
  H45      1.0000 0.36070  0.26690  0.52780  Biso   1.000  H
  O27      1.0000 0.41970  0.19980  0.62259  Biso   1.000  O
  C104     1.0000 0.44270  0.22720  0.63823  Biso   1.000  C
  C105     1.0000 0.43380  0.38240  0.47427  Biso   1.000  C
  O28      1.0000 0.42160  0.22210  0.65507  Biso   1.000  O
  C106     1.0000 0.48650  0.07700  0.46094  Biso   1.000  C
  C107     1.0000 0.50650  0.27110  0.63745  Biso   1.000  C
  O29      1.0000 0.47890  0.03520  0.47182  Biso   1.000  O
  O30      1.0000 0.43057  0.42355  0.48175  Biso   1.000  O
  O31      1.0000 0.45010  0.38360  0.45627  Biso   1.000  O
  O32      1.0000 0.50920  0.08560  0.44403  Biso   1.000  O
  C108     1.0000 0.60680  0.29320  0.63625  Biso   1.000  C
  C109     1.0000 0.62560  0.35190  0.63577  Biso   1.000  C
  C110     1.0000 0.54600  0.25300  0.63664  Biso   1.000  C
  H46      1.0000 0.53300  0.21340  0.63630  Biso   1.000  H
  C111     1.0000 0.58500  0.37070  0.63710  Biso   1.000  C
  H47      1.0000 0.59740  0.41020  0.63750  Biso   1.000  H
  C112     1.0000 0.52530  0.32940  0.63780  Biso   1.000  C
  H48      1.0000 0.49830  0.34180  0.63850  Biso   1.000  H
  Cd5      1.0000 0.99572  0.47665  0.94760  Biso   1.000  Cd
  O33      1.0000 0.02257  0.43743  0.92143  Biso   1.000  O
  O34      1.0000 0.01787  0.51553  0.91566  Biso   1.000  O
  C113     1.0000 0.02787  0.47663  0.91024  Biso   1.000  C
  C114     1.0000 0.06027  0.52133  0.85568  Biso   1.000  C
  C115     1.0000 0.04287  0.51723  0.87543  Biso   1.000  C
  H49      1.0000 0.02897  0.54113  0.87993  Biso   1.000  H
  C116     1.0000 0.06557  0.44213  0.88230  Biso   1.000  C
  H50      1.0000 0.06837  0.41663  0.89103  Biso   1.000  H
  C117     1.0000 0.08167  0.44483  0.86249  Biso   1.000  C
  H51      1.0000 0.09397  0.41953  0.85813  Biso   1.000  H
  C118     1.0000 0.04567  0.47803  0.88866  Biso   1.000  C
  C119     1.0000 0.06237  0.56573  0.84260  Biso   1.000  C
  C120     1.0000 0.08537  0.57223  0.82367  Biso   1.000  C
  C121     1.0000 0.09897  0.48693  0.82869  Biso   1.000  C
  C122     1.0000 0.11547  0.44813  0.82125  Biso   1.000  C
  H52      1.0000 0.11367  0.41923  0.82953  Biso   1.000  H
  C123     1.0000 0.08027  0.48393  0.84896  Biso   1.000  C
  C124     1.0000 0.10287  0.53183  0.81577  Biso   1.000  C
  C125     1.0000 0.09517  0.62033  0.81191  Biso   1.000  C
  H53      1.0000 0.11007  0.62443  0.79913  Biso   1.000  H
  C126     1.0000 0.13467  0.45183  0.80151  Biso   1.000  C
  C127     1.0000 0.12127  0.53333  0.79602  Biso   1.000  C
  H54      1.0000 0.12267  0.56113  0.78733  Biso   1.000  H
  C128     1.0000 0.13707  0.49463  0.78947  Biso   1.000  C
  H55      1.0000 0.14997  0.49743  0.77643  Biso   1.000  H
  C129     1.0000 0.08267  0.66183  0.81940  Biso   1.000  C
  C130     1.0000 0.05667  0.65323  0.83778  Biso   1.000  C
  H56      1.0000 0.04647  0.67973  0.84263  Biso   1.000  H
  C131     1.0000 0.04607  0.60603  0.84892  Biso   1.000  C
  H57      1.0000 0.02737  0.60023  0.86113  Biso   1.000  H
  O35      1.0000 0.08637  0.53313  0.95592  Biso   1.000  O
  C132     1.0000 0.10937  0.56053  0.97156  Biso   1.000  C
  C133     1.0000 0.10047  0.71573  0.80760  Biso   1.000  C
  O36      1.0000 0.08827  0.55543  0.98840  Biso   1.000  O
  C134     1.0000 0.15317  0.41033  0.79427  Biso   1.000  C
  C135     1.0000 0.17317  0.60443  0.97078  Biso   1.000  C
  O37      1.0000 0.14557  0.36853  0.80515  Biso   1.000  O
  O38      1.0000 0.09724  0.75688  0.81508  Biso   1.000  O
  O39      1.0000 0.11677  0.71693  0.78960  Biso   1.000  O
  O40      1.0000 0.17587  0.41893  0.77736  Biso   1.000  O
  C136     1.0000 0.27347  0.62653  0.96958  Biso   1.000  C
  C137     1.0000 0.29227  0.68523  0.96910  Biso   1.000  C
  C138     1.0000 0.21267  0.58633  0.96997  Biso   1.000  C
  H58      1.0000 0.19967  0.54673  0.96963  Biso   1.000  H
  C139     1.0000 0.25167  0.70403  0.97043  Biso   1.000  C
  H59      1.0000 0.26407  0.74353  0.97083  Biso   1.000  H
  C140     1.0000 0.19197  0.66273  0.97113  Biso   1.000  C
  H60      1.0000 0.16497  0.67513  0.97183  Biso   1.000  H
  Cd6      1.0000 0.66238  0.80999  0.28093  Biso   1.000  Cd
  O41      1.0000 0.68923  0.77077  0.25477  Biso   1.000  O
  O42      1.0000 0.68453  0.84887  0.24900  Biso   1.000  O
  C141     1.0000 0.69453  0.80997  0.24358  Biso   1.000  C
  C142     1.0000 0.72693  0.85467  0.18902  Biso   1.000  C
  C143     1.0000 0.70953  0.85057  0.20877  Biso   1.000  C
  H61      1.0000 0.69563  0.87447  0.21327  Biso   1.000  H
  C144     1.0000 0.73223  0.77547  0.21564  Biso   1.000  C
  H62      1.0000 0.73503  0.74997  0.22437  Biso   1.000  H
  C145     1.0000 0.74833  0.77817  0.19583  Biso   1.000  C
  H63      1.0000 0.76063  0.75287  0.19147  Biso   1.000  H
  C146     1.0000 0.71233  0.81137  0.22200  Biso   1.000  C
  C147     1.0000 0.72903  0.89907  0.17594  Biso   1.000  C
  C148     1.0000 0.75203  0.90557  0.15701  Biso   1.000  C
  C149     1.0000 0.76563  0.82027  0.16203  Biso   1.000  C
  C150     1.0000 0.78213  0.78147  0.15459  Biso   1.000  C
  H64      1.0000 0.78033  0.75257  0.16287  Biso   1.000  H
  C151     1.0000 0.74693  0.81727  0.18230  Biso   1.000  C
  C152     1.0000 0.76953  0.86517  0.14911  Biso   1.000  C
  C153     1.0000 0.76183  0.95367  0.14525  Biso   1.000  C
  H65      1.0000 0.77673  0.95777  0.13247  Biso   1.000  H
  C154     1.0000 0.80133  0.78517  0.13485  Biso   1.000  C
  C155     1.0000 0.78793  0.86667  0.12936  Biso   1.000  C
  H66      1.0000 0.78933  0.89447  0.12067  Biso   1.000  H
  C156     1.0000 0.80373  0.82797  0.12281  Biso   1.000  C
  H67      1.0000 0.81663  0.83077  0.10977  Biso   1.000  H
  C157     1.0000 0.74933  0.99517  0.15274  Biso   1.000  C
  C158     1.0000 0.72333  0.98657  0.17112  Biso   1.000  C
  H68      1.0000 0.71313  0.01307  0.17597  Biso   1.000  H
  C159     1.0000 0.71273  0.93937  0.18226  Biso   1.000  C
  H69      1.0000 0.69403  0.93357  0.19447  Biso   1.000  H
  O43      1.0000 0.75303  0.86647  0.28926  Biso   1.000  O
  C160     1.0000 0.77603  0.89387  0.30490  Biso   1.000  C
  C161     1.0000 0.76713  0.04907  0.14094  Biso   1.000  C
  O44      1.0000 0.75493  0.88877  0.32174  Biso   1.000  O
  C162     1.0000 0.81983  0.74367  0.12761  Biso   1.000  C
  C163     1.0000 0.83983  0.93777  0.30412  Biso   1.000  C
  O45      1.0000 0.81223  0.70187  0.13849  Biso   1.000  O
  O46      1.0000 0.76390  0.09022  0.14842  Biso   1.000  O
  O47      1.0000 0.78343  0.05027  0.12294  Biso   1.000  O
  O48      1.0000 0.84253  0.75227  0.11070  Biso   1.000  O
  C164     1.0000 0.94013  0.95987  0.30292  Biso   1.000  C
  C165     1.0000 0.95893  0.01857  0.30244  Biso   1.000  C
  C166     1.0000 0.87933  0.91967  0.30331  Biso   1.000  C
  H70      1.0000 0.86633  0.88007  0.30297  Biso   1.000  H
  C167     1.0000 0.91833  0.03737  0.30377  Biso   1.000  C
  H71      1.0000 0.93073  0.07687  0.30417  Biso   1.000  H
  C168     1.0000 0.85863  0.99607  0.30447  Biso   1.000  C
  H72      1.0000 0.83163  0.00847  0.30517  Biso   1.000  H
  Cd7      1.0000 0.85668  0.18573  0.61426  Biso   1.000  Cd
  O49      1.0000 0.89590  0.25180  0.58810  Biso   1.000  O
  O50      1.0000 0.81780  0.16900  0.58233  Biso   1.000  O
  C169     1.0000 0.85670  0.21790  0.57691  Biso   1.000  C
  C170     1.0000 0.81200  0.20560  0.52235  Biso   1.000  C
  C171     1.0000 0.81610  0.19230  0.54210  Biso   1.000  C
  H73      1.0000 0.79220  0.15450  0.54660  Biso   1.000  H
  C172     1.0000 0.89120  0.29010  0.54897  Biso   1.000  C
  H74      1.0000 0.91670  0.31840  0.55770  Biso   1.000  H
  C173     1.0000 0.88850  0.30350  0.52916  Biso   1.000  C
  H75      1.0000 0.91380  0.34110  0.52480  Biso   1.000  H
  C174     1.0000 0.85530  0.23430  0.55533  Biso   1.000  C
  C175     1.0000 0.76760  0.16330  0.50927  Biso   1.000  C
  C176     1.0000 0.76110  0.17980  0.49034  Biso   1.000  C
  C177     1.0000 0.84640  0.27870  0.49536  Biso   1.000  C
  C178     1.0000 0.88520  0.33400  0.48792  Biso   1.000  C
  H76      1.0000 0.91410  0.36110  0.49620  Biso   1.000  H
  C179     1.0000 0.84940  0.26300  0.51563  Biso   1.000  C
  C180     1.0000 0.80150  0.23770  0.48244  Biso   1.000  C
  C181     1.0000 0.71300  0.14150  0.47858  Biso   1.000  C
  H77      1.0000 0.70890  0.15230  0.46580  Biso   1.000  H
  C182     1.0000 0.88150  0.34950  0.46818  Biso   1.000  C
  C183     1.0000 0.80000  0.25460  0.46269  Biso   1.000  C
  H78      1.0000 0.77220  0.22820  0.45400  Biso   1.000  H
  C184     1.0000 0.83870  0.30910  0.45614  Biso   1.000  C
  H79      1.0000 0.83590  0.31920  0.44310  Biso   1.000  H
  C185     1.0000 0.67150  0.08750  0.48607  Biso   1.000  C
  C186     1.0000 0.68010  0.07010  0.50445  Biso   1.000  C
  H80      1.0000 0.65360  0.03340  0.50930  Biso   1.000  H
  C187     1.0000 0.72730  0.10670  0.51559  Biso   1.000  C
  H81      1.0000 0.73310  0.09380  0.52780  Biso   1.000  H
  O51      1.0000 0.80020  0.21990  0.62259  Biso   1.000  O
  C188     1.0000 0.77280  0.21550  0.63823  Biso   1.000  C
  C189     1.0000 0.61760  0.05140  0.47427  Biso   1.000  C
  O52      1.0000 0.77790  0.19950  0.65507  Biso   1.000  O
  C190     1.0000 0.92300  0.40950  0.46094  Biso   1.000  C
  C191     1.0000 0.72890  0.23540  0.63745  Biso   1.000  C
  O53      1.0000 0.96480  0.44370  0.47182  Biso   1.000  O
  O54      1.0000 0.57645  0.00702  0.48175  Biso   1.000  O
  O55      1.0000 0.61640  0.06650  0.45627  Biso   1.000  O
  O56      1.0000 0.91440  0.42360  0.44403  Biso   1.000  O
  C192     1.0000 0.70680  0.31360  0.63625  Biso   1.000  C
  C193     1.0000 0.64810  0.27370  0.63577  Biso   1.000  C
  C194     1.0000 0.74700  0.29300  0.63664  Biso   1.000  C
  H82      1.0000 0.78660  0.31960  0.63630  Biso   1.000  H
  C195     1.0000 0.62930  0.21430  0.63710  Biso   1.000  C
  H83      1.0000 0.58980  0.18720  0.63750  Biso   1.000  H
  C196     1.0000 0.67060  0.19590  0.63780  Biso   1.000  C
  H84      1.0000 0.65820  0.15650  0.63850  Biso   1.000  H
  Cd8      1.0000 0.52335  0.51906  0.94760  Biso   1.000  Cd
  O57      1.0000 0.56257  0.58513  0.92143  Biso   1.000  O
  O58      1.0000 0.48447  0.50233  0.91566  Biso   1.000  O
  C197     1.0000 0.52337  0.55123  0.91024  Biso   1.000  C
  C198     1.0000 0.47867  0.53893  0.85568  Biso   1.000  C
  C199     1.0000 0.48277  0.52563  0.87543  Biso   1.000  C
  H85      1.0000 0.45887  0.48783  0.87993  Biso   1.000  H
  C200     1.0000 0.55787  0.62343  0.88230  Biso   1.000  C
  H86      1.0000 0.58337  0.65173  0.89103  Biso   1.000  H
  C201     1.0000 0.55517  0.63683  0.86249  Biso   1.000  C
  H87      1.0000 0.58047  0.67443  0.85813  Biso   1.000  H
  C202     1.0000 0.52197  0.56763  0.88866  Biso   1.000  C
  C203     1.0000 0.43427  0.49663  0.84260  Biso   1.000  C
  C204     1.0000 0.42777  0.51313  0.82367  Biso   1.000  C
  C205     1.0000 0.51307  0.61203  0.82869  Biso   1.000  C
  C206     1.0000 0.55187  0.66733  0.82125  Biso   1.000  C
  H88      1.0000 0.58077  0.69443  0.82953  Biso   1.000  H
  C207     1.0000 0.51607  0.59633  0.84896  Biso   1.000  C
  C208     1.0000 0.46817  0.57103  0.81577  Biso   1.000  C
  C209     1.0000 0.37967  0.47483  0.81191  Biso   1.000  C
  H89      1.0000 0.37557  0.48563  0.79913  Biso   1.000  H
  C210     1.0000 0.54817  0.68283  0.80151  Biso   1.000  C
  C211     1.0000 0.46667  0.58793  0.79602  Biso   1.000  C
  H90      1.0000 0.43887  0.56153  0.78733  Biso   1.000  H
  C212     1.0000 0.50537  0.64243  0.78947  Biso   1.000  C
  H91      1.0000 0.50257  0.65253  0.77643  Biso   1.000  H
  C213     1.0000 0.33817  0.42083  0.81940  Biso   1.000  C
  C214     1.0000 0.34677  0.40343  0.83778  Biso   1.000  C
  H92      1.0000 0.32027  0.36673  0.84263  Biso   1.000  H
  C215     1.0000 0.39397  0.44003  0.84892  Biso   1.000  C
  H93      1.0000 0.39977  0.42713  0.86113  Biso   1.000  H
  O59      1.0000 0.46687  0.55323  0.95592  Biso   1.000  O
  C216     1.0000 0.43947  0.54883  0.97156  Biso   1.000  C
  C217     1.0000 0.28427  0.38473  0.80760  Biso   1.000  C
  O60      1.0000 0.44457  0.53283  0.98840  Biso   1.000  O
  C218     1.0000 0.58967  0.74283  0.79427  Biso   1.000  C
  C219     1.0000 0.39557  0.56873  0.97078  Biso   1.000  C
  O61      1.0000 0.63147  0.77703  0.80515  Biso   1.000  O
  O62      1.0000 0.24312  0.34035  0.81508  Biso   1.000  O
  O63      1.0000 0.28307  0.39983  0.78960  Biso   1.000  O
  O64      1.0000 0.58107  0.75693  0.77736  Biso   1.000  O
  C220     1.0000 0.37347  0.64693  0.96958  Biso   1.000  C
  C221     1.0000 0.31477  0.60703  0.96910  Biso   1.000  C
  C222     1.0000 0.41367  0.62633  0.96997  Biso   1.000  C
  H94      1.0000 0.45327  0.65293  0.96963  Biso   1.000  H
  C223     1.0000 0.29597  0.54763  0.97043  Biso   1.000  C
  H95      1.0000 0.25647  0.52053  0.97083  Biso   1.000  H
  C224     1.0000 0.33727  0.52923  0.97113  Biso   1.000  C
  H96      1.0000 0.32487  0.48983  0.97183  Biso   1.000  H
  Cd9      1.0000 0.19001  0.85240  0.28093  Biso   1.000  Cd
  O65      1.0000 0.22923  0.91847  0.25477  Biso   1.000  O
  O66      1.0000 0.15113  0.83567  0.24900  Biso   1.000  O
  C225     1.0000 0.19003  0.88457  0.24358  Biso   1.000  C
  C226     1.0000 0.14533  0.87227  0.18902  Biso   1.000  C
  C227     1.0000 0.14943  0.85897  0.20877  Biso   1.000  C
  H97      1.0000 0.12553  0.82117  0.21327  Biso   1.000  H
  C228     1.0000 0.22453  0.95677  0.21564  Biso   1.000  C
  H98      1.0000 0.25003  0.98507  0.22437  Biso   1.000  H
  C229     1.0000 0.22183  0.97017  0.19583  Biso   1.000  C
  H99      1.0000 0.24713  0.00777  0.19147  Biso   1.000  H
  C230     1.0000 0.18863  0.90097  0.22200  Biso   1.000  C
  C231     1.0000 0.10093  0.82997  0.17594  Biso   1.000  C
  C232     1.0000 0.09443  0.84647  0.15701  Biso   1.000  C
  C233     1.0000 0.17973  0.94537  0.16203  Biso   1.000  C
  C234     1.0000 0.21853  0.00067  0.15459  Biso   1.000  C
  H100     1.0000 0.24743  0.02777  0.16287  Biso   1.000  H
  C235     1.0000 0.18273  0.92967  0.18230  Biso   1.000  C
  C236     1.0000 0.13483  0.90437  0.14911  Biso   1.000  C
  C237     1.0000 0.04633  0.80817  0.14525  Biso   1.000  C
  H101     1.0000 0.04223  0.81897  0.13247  Biso   1.000  H
  C238     1.0000 0.21483  0.01617  0.13485  Biso   1.000  C
  C239     1.0000 0.13333  0.92127  0.12936  Biso   1.000  C
  H102     1.0000 0.10553  0.89487  0.12067  Biso   1.000  H
  C240     1.0000 0.17203  0.97577  0.12281  Biso   1.000  C
  H103     1.0000 0.16923  0.98587  0.10977  Biso   1.000  H
  C241     1.0000 0.00483  0.75417  0.15274  Biso   1.000  C
  C242     1.0000 0.01343  0.73677  0.17112  Biso   1.000  C
  H104     1.0000 0.98693  0.70007  0.17597  Biso   1.000  H
  C243     1.0000 0.06063  0.77337  0.18226  Biso   1.000  C
  H105     1.0000 0.06643  0.76047  0.19447  Biso   1.000  H
  O67      1.0000 0.13353  0.88657  0.28926  Biso   1.000  O
  C244     1.0000 0.10613  0.88217  0.30490  Biso   1.000  C
  C245     1.0000 0.95093  0.71807  0.14094  Biso   1.000  C
  O68      1.0000 0.11123  0.86617  0.32174  Biso   1.000  O
  C246     1.0000 0.25633  0.07617  0.12761  Biso   1.000  C
  C247     1.0000 0.06223  0.90207  0.30412  Biso   1.000  C
  O69      1.0000 0.29813  0.11037  0.13849  Biso   1.000  O
  O70      1.0000 0.90978  0.67369  0.14842  Biso   1.000  O
  O71      1.0000 0.94973  0.73317  0.12294  Biso   1.000  O
  O72      1.0000 0.24773  0.09027  0.11070  Biso   1.000  O
  C248     1.0000 0.04013  0.98027  0.30292  Biso   1.000  C
  C249     1.0000 0.98143  0.94037  0.30244  Biso   1.000  C
  C250     1.0000 0.08033  0.95967  0.30331  Biso   1.000  C
  H106     1.0000 0.11993  0.98627  0.30297  Biso   1.000  H
  C251     1.0000 0.96263  0.88097  0.30377  Biso   1.000  C
  H107     1.0000 0.92313  0.85387  0.30417  Biso   1.000  H
  C252     1.0000 0.00393  0.86257  0.30447  Biso   1.000  C
  H108     1.0000 0.99153  0.82317  0.30517  Biso   1.000  H
  Cd10     1.0000 0.67095  0.81427  0.88574  Biso   1.000  Cd
  O73      1.0000 0.64410  0.74820  0.91190  Biso   1.000  O
  O74      1.0000 0.64880  0.83100  0.91767  Biso   1.000  O
  C253     1.0000 0.63880  0.78210  0.92309  Biso   1.000  C
  C254     1.0000 0.60640  0.79440  0.97765  Biso   1.000  C
  C255     1.0000 0.62380  0.80770  0.95790  Biso   1.000  C
  H109     1.0000 0.63770  0.84550  0.95340  Biso   1.000  H
  C256     1.0000 0.60110  0.70990  0.95103  Biso   1.000  C
  H110     1.0000 0.59830  0.68160  0.94230  Biso   1.000  H
  C257     1.0000 0.58500  0.69650  0.97084  Biso   1.000  C
  H111     1.0000 0.57270  0.65890  0.97520  Biso   1.000  H
  C258     1.0000 0.62100  0.76570  0.94467  Biso   1.000  C
  C259     1.0000 0.60430  0.83670  0.99073  Biso   1.000  C
  C260     1.0000 0.58130  0.82020  0.00966  Biso   1.000  C
  C261     1.0000 0.56770  0.72130  0.00464  Biso   1.000  C
  C262     1.0000 0.55120  0.66600  0.01208  Biso   1.000  C
  H112     1.0000 0.55300  0.63890  0.00380  Biso   1.000  H
  C263     1.0000 0.58640  0.73700  0.98437  Biso   1.000  C
  C264     1.0000 0.56380  0.76230  0.01756  Biso   1.000  C
  C265     1.0000 0.57150  0.85850  0.02142  Biso   1.000  C
  H113     1.0000 0.55660  0.84770  0.03420  Biso   1.000  H
  C266     1.0000 0.53200  0.65050  0.03182  Biso   1.000  C
  C267     1.0000 0.54540  0.74540  0.03731  Biso   1.000  C
  H114     1.0000 0.54400  0.77180  0.04600  Biso   1.000  H
  C268     1.0000 0.52960  0.69090  0.04386  Biso   1.000  C
  H115     1.0000 0.51670  0.68080  0.05690  Biso   1.000  H
  C269     1.0000 0.58400  0.91250  0.01393  Biso   1.000  C
  C270     1.0000 0.61000  0.92990  0.99555  Biso   1.000  C
  H116     1.0000 0.62020  0.96660  0.99070  Biso   1.000  H
  C271     1.0000 0.62060  0.89330  0.98441  Biso   1.000  C
  H117     1.0000 0.63930  0.90620  0.97220  Biso   1.000  H
  O75      1.0000 0.58030  0.78010  0.87741  Biso   1.000  O
  C272     1.0000 0.55730  0.78450  0.86177  Biso   1.000  C
  C273     1.0000 0.56620  0.94860  0.02573  Biso   1.000  C
  O76      1.0000 0.57840  0.80050  0.84493  Biso   1.000  O
  C274     1.0000 0.51350  0.59050  0.03906  Biso   1.000  C
  C275     1.0000 0.49350  0.76460  0.86255  Biso   1.000  C
  O77      1.0000 0.52110  0.55630  0.02818  Biso   1.000  O
  O78      1.0000 0.56943  0.99298  0.01825  Biso   1.000  O
  O79      1.0000 0.54990  0.93350  0.04373  Biso   1.000  O
  O80      1.0000 0.49080  0.57640  0.05597  Biso   1.000  O
  C276     1.0000 0.39320  0.68640  0.86375  Biso   1.000  C
  C277     1.0000 0.37440  0.72630  0.86423  Biso   1.000  C
  C278     1.0000 0.45400  0.70700  0.86336  Biso   1.000  C
  H118     1.0000 0.46700  0.68040  0.86370  Biso   1.000  H
  C279     1.0000 0.41500  0.78570  0.86290  Biso   1.000  C
  H119     1.0000 0.40260  0.81280  0.86250  Biso   1.000  H
  C280     1.0000 0.47470  0.80410  0.86220  Biso   1.000  C
  H120     1.0000 0.50170  0.84350  0.86150  Biso   1.000  H
  Cd11     1.0000 0.33762  0.14760  0.21907  Biso   1.000  Cd
  O81      1.0000 0.31077  0.08153  0.24523  Biso   1.000  O
  O82      1.0000 0.31547  0.16433  0.25100  Biso   1.000  O
  C281     1.0000 0.30547  0.11543  0.25642  Biso   1.000  C
  C282     1.0000 0.27307  0.12773  0.31098  Biso   1.000  C
  C283     1.0000 0.29047  0.14103  0.29123  Biso   1.000  C
  H121     1.0000 0.30437  0.17883  0.28673  Biso   1.000  H
  C284     1.0000 0.26777  0.04323  0.28436  Biso   1.000  C
  H122     1.0000 0.26497  0.01493  0.27563  Biso   1.000  H
  C285     1.0000 0.25167  0.02983  0.30417  Biso   1.000  C
  H123     1.0000 0.23937  0.99223  0.30853  Biso   1.000  H
  C286     1.0000 0.28767  0.09903  0.27800  Biso   1.000  C
  C287     1.0000 0.27097  0.17003  0.32406  Biso   1.000  C
  C288     1.0000 0.24797  0.15353  0.34299  Biso   1.000  C
  C289     1.0000 0.23437  0.05463  0.33797  Biso   1.000  C
  C290     1.0000 0.21787  0.99933  0.34541  Biso   1.000  C
  H124     1.0000 0.21967  0.97223  0.33713  Biso   1.000  H
  C291     1.0000 0.25307  0.07033  0.31770  Biso   1.000  C
  C292     1.0000 0.23047  0.09563  0.35089  Biso   1.000  C
  C293     1.0000 0.23817  0.19183  0.35475  Biso   1.000  C
  H125     1.0000 0.22327  0.18103  0.36753  Biso   1.000  H
  C294     1.0000 0.19867  0.98383  0.36515  Biso   1.000  C
  C295     1.0000 0.21207  0.07873  0.37064  Biso   1.000  C
  H126     1.0000 0.21067  0.10513  0.37933  Biso   1.000  H
  C296     1.0000 0.19627  0.02423  0.37719  Biso   1.000  C
  H127     1.0000 0.18337  0.01413  0.39023  Biso   1.000  H
  C297     1.0000 0.25067  0.24583  0.34726  Biso   1.000  C
  C298     1.0000 0.27667  0.26323  0.32888  Biso   1.000  C
  H128     1.0000 0.28687  0.29993  0.32403  Biso   1.000  H
  C299     1.0000 0.28727  0.22663  0.31774  Biso   1.000  C
  H129     1.0000 0.30597  0.23953  0.30553  Biso   1.000  H
  O83      1.0000 0.24697  0.11343  0.21074  Biso   1.000  O
  C300     1.0000 0.22397  0.11783  0.19510  Biso   1.000  C
  C301     1.0000 0.23287  0.28193  0.35906  Biso   1.000  C
  O84      1.0000 0.24507  0.13383  0.17826  Biso   1.000  O
  C302     1.0000 0.18017  0.92383  0.37239  Biso   1.000  C
  C303     1.0000 0.16017  0.09793  0.19588  Biso   1.000  C
  O85      1.0000 0.18777  0.88963  0.36151  Biso   1.000  O
  O86      1.0000 0.23610  0.32631  0.35158  Biso   1.000  O
  O87      1.0000 0.21657  0.26683  0.37706  Biso   1.000  O
  O88      1.0000 0.15747  0.90973  0.38930  Biso   1.000  O
  C304     1.0000 0.05987  0.01973  0.19708  Biso   1.000  C
  C305     1.0000 0.04107  0.05963  0.19756  Biso   1.000  C
  C306     1.0000 0.12067  0.04033  0.19669  Biso   1.000  C
  H130     1.0000 0.13367  0.01373  0.19703  Biso   1.000  H
  C307     1.0000 0.08167  0.11903  0.19623  Biso   1.000  C
  H131     1.0000 0.06927  0.14613  0.19583  Biso   1.000  H
  C308     1.0000 0.14137  0.13743  0.19553  Biso   1.000  C
  H132     1.0000 0.16837  0.17683  0.19483  Biso   1.000  H
  Cd12     1.0000 0.00428  0.48094  0.55240  Biso   1.000  Cd
  O89      1.0000 0.97743  0.41487  0.57857  Biso   1.000  O
  O90      1.0000 0.98213  0.49767  0.58434  Biso   1.000  O
  C309     1.0000 0.97213  0.44877  0.58976  Biso   1.000  C
  C310     1.0000 0.93973  0.46107  0.64432  Biso   1.000  C
  C311     1.0000 0.95713  0.47437  0.62457  Biso   1.000  C
  H133     1.0000 0.97103  0.51217  0.62007  Biso   1.000  H
  C312     1.0000 0.93443  0.37657  0.61770  Biso   1.000  C
  H134     1.0000 0.93163  0.34827  0.60897  Biso   1.000  H
  C313     1.0000 0.91833  0.36317  0.63751  Biso   1.000  C
  H135     1.0000 0.90603  0.32557  0.64187  Biso   1.000  H
  C314     1.0000 0.95433  0.43237  0.61134  Biso   1.000  C
  C315     1.0000 0.93763  0.50337  0.65740  Biso   1.000  C
  C316     1.0000 0.91463  0.48687  0.67633  Biso   1.000  C
  C317     1.0000 0.90103  0.38797  0.67131  Biso   1.000  C
  C318     1.0000 0.88453  0.33267  0.67875  Biso   1.000  C
  H136     1.0000 0.88633  0.30557  0.67047  Biso   1.000  H
  C319     1.0000 0.91973  0.40367  0.65104  Biso   1.000  C
  C320     1.0000 0.89713  0.42897  0.68423  Biso   1.000  C
  C321     1.0000 0.90483  0.52517  0.68809  Biso   1.000  C
  H137     1.0000 0.88993  0.51437  0.70087  Biso   1.000  H
  C322     1.0000 0.86533  0.31717  0.69849  Biso   1.000  C
  C323     1.0000 0.87873  0.41207  0.70398  Biso   1.000  C
  H138     1.0000 0.87733  0.43847  0.71267  Biso   1.000  H
  C324     1.0000 0.86293  0.35757  0.71053  Biso   1.000  C
  H139     1.0000 0.85003  0.34747  0.72357  Biso   1.000  H
  C325     1.0000 0.91733  0.57917  0.68060  Biso   1.000  C
  C326     1.0000 0.94333  0.59657  0.66222  Biso   1.000  C
  H140     1.0000 0.95353  0.63327  0.65737  Biso   1.000  H
  C327     1.0000 0.95393  0.55997  0.65108  Biso   1.000  C
  H141     1.0000 0.97263  0.57287  0.63887  Biso   1.000  H
  O91      1.0000 0.91363  0.44677  0.54408  Biso   1.000  O
  C328     1.0000 0.89063  0.45117  0.52844  Biso   1.000  C
  C329     1.0000 0.89953  0.61527  0.69240  Biso   1.000  C
  O92      1.0000 0.91173  0.46717  0.51160  Biso   1.000  O
  C330     1.0000 0.84683  0.25717  0.70573  Biso   1.000  C
  C331     1.0000 0.82683  0.43127  0.52922  Biso   1.000  C
  O93      1.0000 0.85443  0.22297  0.69485  Biso   1.000  O
  O94      1.0000 0.90276  0.65965  0.68492  Biso   1.000  O
  O95      1.0000 0.88323  0.60017  0.71040  Biso   1.000  O
  O96      1.0000 0.82413  0.24307  0.72264  Biso   1.000  O
  C332     1.0000 0.72653  0.35307  0.53042  Biso   1.000  C
  C333     1.0000 0.70773  0.39297  0.53090  Biso   1.000  C
  C334     1.0000 0.78733  0.37367  0.53003  Biso   1.000  C
  H142     1.0000 0.80033  0.34707  0.53037  Biso   1.000  H
  C335     1.0000 0.74833  0.45237  0.52957  Biso   1.000  C
  H143     1.0000 0.73593  0.47947  0.52917  Biso   1.000  H
  C336     1.0000 0.80803  0.47077  0.52887  Biso   1.000  C
  H144     1.0000 0.83503  0.51017  0.52817  Biso   1.000  H
  Cd13     1.0000 0.14332  0.32905  0.88574  Biso   1.000  Cd
  O97      1.0000 0.10410  0.35590  0.91190  Biso   1.000  O
  O98      1.0000 0.18220  0.35120  0.91767  Biso   1.000  O
  C337     1.0000 0.14330  0.36120  0.92309  Biso   1.000  C
  C338     1.0000 0.18800  0.39360  0.97765  Biso   1.000  C
  C339     1.0000 0.18390  0.37620  0.95790  Biso   1.000  C
  H145     1.0000 0.20780  0.36230  0.95340  Biso   1.000  H
  C340     1.0000 0.10880  0.39890  0.95103  Biso   1.000  C
  H146     1.0000 0.08330  0.40170  0.94230  Biso   1.000  H
  C341     1.0000 0.11150  0.41500  0.97084  Biso   1.000  C
  H147     1.0000 0.08620  0.42730  0.97520  Biso   1.000  H
  C342     1.0000 0.14470  0.37900  0.94467  Biso   1.000  C
  C343     1.0000 0.23240  0.39570  0.99073  Biso   1.000  C
  C344     1.0000 0.23890  0.41870  0.00966  Biso   1.000  C
  C345     1.0000 0.15360  0.43230  0.00464  Biso   1.000  C
  C346     1.0000 0.11480  0.44880  0.01208  Biso   1.000  C
  H148     1.0000 0.08590  0.44700  0.00380  Biso   1.000  H
  C347     1.0000 0.15060  0.41360  0.98437  Biso   1.000  C
  C348     1.0000 0.19850  0.43620  0.01756  Biso   1.000  C
  C349     1.0000 0.28700  0.42850  0.02142  Biso   1.000  C
  H149     1.0000 0.29110  0.44340  0.03420  Biso   1.000  H
  C350     1.0000 0.11850  0.46800  0.03182  Biso   1.000  C
  C351     1.0000 0.20000  0.45460  0.03731  Biso   1.000  C
  H150     1.0000 0.22780  0.45600  0.04600  Biso   1.000  H
  C352     1.0000 0.16130  0.47040  0.04386  Biso   1.000  C
  H151     1.0000 0.16410  0.48330  0.05690  Biso   1.000  H
  C353     1.0000 0.32850  0.41600  0.01393  Biso   1.000  C
  C354     1.0000 0.31990  0.39000  0.99555  Biso   1.000  C
  H152     1.0000 0.34640  0.37980  0.99070  Biso   1.000  H
  C355     1.0000 0.27270  0.37940  0.98441  Biso   1.000  C
  H153     1.0000 0.26690  0.36070  0.97220  Biso   1.000  H
  O99      1.0000 0.19980  0.41970  0.87741  Biso   1.000  O
  C356     1.0000 0.22720  0.44270  0.86177  Biso   1.000  C
  C357     1.0000 0.38240  0.43380  0.02573  Biso   1.000  C
  O100     1.0000 0.22210  0.42160  0.84493  Biso   1.000  O
  C358     1.0000 0.07700  0.48650  0.03906  Biso   1.000  C
  C359     1.0000 0.27110  0.50650  0.86255  Biso   1.000  C
  O101     1.0000 0.03520  0.47890  0.02818  Biso   1.000  O
  O102     1.0000 0.42355  0.43057  0.01825  Biso   1.000  O
  O103     1.0000 0.38360  0.45010  0.04373  Biso   1.000  O
  O104     1.0000 0.08560  0.50920  0.05597  Biso   1.000  O
  C360     1.0000 0.29320  0.60680  0.86375  Biso   1.000  C
  C361     1.0000 0.35190  0.62560  0.86423  Biso   1.000  C
  C362     1.0000 0.25300  0.54600  0.86336  Biso   1.000  C
  H154     1.0000 0.21340  0.53300  0.86370  Biso   1.000  H
  C363     1.0000 0.37070  0.58500  0.86290  Biso   1.000  C
  H155     1.0000 0.41020  0.59740  0.86250  Biso   1.000  H
  C364     1.0000 0.32940  0.52530  0.86220  Biso   1.000  C
  H156     1.0000 0.34180  0.49830  0.86150  Biso   1.000  H
  Cd14     1.0000 0.80999  0.66238  0.21907  Biso   1.000  Cd
  O105     1.0000 0.77077  0.68923  0.24523  Biso   1.000  O
  O106     1.0000 0.84887  0.68453  0.25100  Biso   1.000  O
  C365     1.0000 0.80997  0.69453  0.25642  Biso   1.000  C
  C366     1.0000 0.85467  0.72693  0.31098  Biso   1.000  C
  C367     1.0000 0.85057  0.70953  0.29123  Biso   1.000  C
  H157     1.0000 0.87447  0.69563  0.28673  Biso   1.000  H
  C368     1.0000 0.77547  0.73223  0.28436  Biso   1.000  C
  H158     1.0000 0.74997  0.73503  0.27563  Biso   1.000  H
  C369     1.0000 0.77817  0.74833  0.30417  Biso   1.000  C
  H159     1.0000 0.75287  0.76063  0.30853  Biso   1.000  H
  C370     1.0000 0.81137  0.71233  0.27800  Biso   1.000  C
  C371     1.0000 0.89907  0.72903  0.32406  Biso   1.000  C
  C372     1.0000 0.90557  0.75203  0.34299  Biso   1.000  C
  C373     1.0000 0.82027  0.76563  0.33797  Biso   1.000  C
  C374     1.0000 0.78147  0.78213  0.34541  Biso   1.000  C
  H160     1.0000 0.75257  0.78033  0.33713  Biso   1.000  H
  C375     1.0000 0.81727  0.74693  0.31770  Biso   1.000  C
  C376     1.0000 0.86517  0.76953  0.35089  Biso   1.000  C
  C377     1.0000 0.95367  0.76183  0.35475  Biso   1.000  C
  H161     1.0000 0.95777  0.77673  0.36753  Biso   1.000  H
  C378     1.0000 0.78517  0.80133  0.36515  Biso   1.000  C
  C379     1.0000 0.86667  0.78793  0.37064  Biso   1.000  C
  H162     1.0000 0.89447  0.78933  0.37933  Biso   1.000  H
  C380     1.0000 0.82797  0.80373  0.37719  Biso   1.000  C
  H163     1.0000 0.83077  0.81663  0.39023  Biso   1.000  H
  C381     1.0000 0.99517  0.74933  0.34726  Biso   1.000  C
  C382     1.0000 0.98657  0.72333  0.32888  Biso   1.000  C
  H164     1.0000 0.01307  0.71313  0.32403  Biso   1.000  H
  C383     1.0000 0.93937  0.71273  0.31774  Biso   1.000  C
  H165     1.0000 0.93357  0.69403  0.30553  Biso   1.000  H
  O107     1.0000 0.86647  0.75303  0.21074  Biso   1.000  O
  C384     1.0000 0.89387  0.77603  0.19510  Biso   1.000  C
  C385     1.0000 0.04907  0.76713  0.35906  Biso   1.000  C
  O108     1.0000 0.88877  0.75493  0.17826  Biso   1.000  O
  C386     1.0000 0.74367  0.81983  0.37239  Biso   1.000  C
  C387     1.0000 0.93777  0.83983  0.19588  Biso   1.000  C
  O109     1.0000 0.70187  0.81223  0.36151  Biso   1.000  O
  O110     1.0000 0.09022  0.76390  0.35158  Biso   1.000  O
  O111     1.0000 0.05027  0.78343  0.37706  Biso   1.000  O
  O112     1.0000 0.75227  0.84253  0.38930  Biso   1.000  O
  C388     1.0000 0.95987  0.94013  0.19708  Biso   1.000  C
  C389     1.0000 0.01857  0.95893  0.19756  Biso   1.000  C
  C390     1.0000 0.91967  0.87933  0.19669  Biso   1.000  C
  H166     1.0000 0.88007  0.86633  0.19703  Biso   1.000  H
  C391     1.0000 0.03737  0.91833  0.19623  Biso   1.000  C
  H167     1.0000 0.07687  0.93073  0.19583  Biso   1.000  H
  C392     1.0000 0.99607  0.85863  0.19553  Biso   1.000  C
  H168     1.0000 0.00847  0.83163  0.19483  Biso   1.000  H
  Cd15     1.0000 0.47665  0.99572  0.55240  Biso   1.000  Cd
  O113     1.0000 0.43743  0.02257  0.57857  Biso   1.000  O
  O114     1.0000 0.51553  0.01787  0.58434  Biso   1.000  O
  C393     1.0000 0.47663  0.02787  0.58976  Biso   1.000  C
  C394     1.0000 0.52133  0.06027  0.64432  Biso   1.000  C
  C395     1.0000 0.51723  0.04287  0.62457  Biso   1.000  C
  H169     1.0000 0.54113  0.02897  0.62007  Biso   1.000  H
  C396     1.0000 0.44213  0.06557  0.61770  Biso   1.000  C
  H170     1.0000 0.41663  0.06837  0.60897  Biso   1.000  H
  C397     1.0000 0.44483  0.08167  0.63751  Biso   1.000  C
  H171     1.0000 0.41953  0.09397  0.64187  Biso   1.000  H
  C398     1.0000 0.47803  0.04567  0.61134  Biso   1.000  C
  C399     1.0000 0.56573  0.06237  0.65740  Biso   1.000  C
  C400     1.0000 0.57223  0.08537  0.67633  Biso   1.000  C
  C401     1.0000 0.48693  0.09897  0.67131  Biso   1.000  C
  C402     1.0000 0.44813  0.11547  0.67875  Biso   1.000  C
  H172     1.0000 0.41923  0.11367  0.67047  Biso   1.000  H
  C403     1.0000 0.48393  0.08027  0.65104  Biso   1.000  C
  C404     1.0000 0.53183  0.10287  0.68423  Biso   1.000  C
  C405     1.0000 0.62033  0.09517  0.68809  Biso   1.000  C
  H173     1.0000 0.62443  0.11007  0.70087  Biso   1.000  H
  C406     1.0000 0.45183  0.13467  0.69849  Biso   1.000  C
  C407     1.0000 0.53333  0.12127  0.70398  Biso   1.000  C
  H174     1.0000 0.56113  0.12267  0.71267  Biso   1.000  H
  C408     1.0000 0.49463  0.13707  0.71053  Biso   1.000  C
  H175     1.0000 0.49743  0.14997  0.72357  Biso   1.000  H
  C409     1.0000 0.66183  0.08267  0.68060  Biso   1.000  C
  C410     1.0000 0.65323  0.05667  0.66222  Biso   1.000  C
  H176     1.0000 0.67973  0.04647  0.65737  Biso   1.000  H
  C411     1.0000 0.60603  0.04607  0.65108  Biso   1.000  C
  H177     1.0000 0.60023  0.02737  0.63887  Biso   1.000  H
  O115     1.0000 0.53313  0.08637  0.54408  Biso   1.000  O
  C412     1.0000 0.56053  0.10937  0.52844  Biso   1.000  C
  C413     1.0000 0.71573  0.10047  0.69240  Biso   1.000  C
  O116     1.0000 0.55543  0.08827  0.51160  Biso   1.000  O
  C414     1.0000 0.41033  0.15317  0.70573  Biso   1.000  C
  C415     1.0000 0.60443  0.17317  0.52922  Biso   1.000  C
  O117     1.0000 0.36853  0.14557  0.69485  Biso   1.000  O
  O118     1.0000 0.75688  0.09724  0.68492  Biso   1.000  O
  O119     1.0000 0.71693  0.11677  0.71040  Biso   1.000  O
  O120     1.0000 0.41893  0.17587  0.72264  Biso   1.000  O
  C416     1.0000 0.62653  0.27347  0.53042  Biso   1.000  C
  C417     1.0000 0.68523  0.29227  0.53090  Biso   1.000  C
  C418     1.0000 0.58633  0.21267  0.53003  Biso   1.000  C
  H178     1.0000 0.54673  0.19967  0.53037  Biso   1.000  H
  C419     1.0000 0.70403  0.25167  0.52957  Biso   1.000  C
  H179     1.0000 0.74353  0.26407  0.52917  Biso   1.000  H
  C420     1.0000 0.66273  0.19197  0.52887  Biso   1.000  C
  H180     1.0000 0.67513  0.16497  0.52817  Biso   1.000  H
  Cd16     1.0000 0.18573  0.85668  0.88574  Biso   1.000  Cd
  O121     1.0000 0.25180  0.89590  0.91190  Biso   1.000  O
  O122     1.0000 0.16900  0.81780  0.91767  Biso   1.000  O
  C421     1.0000 0.21790  0.85670  0.92309  Biso   1.000  C
  C422     1.0000 0.20560  0.81200  0.97765  Biso   1.000  C
  C423     1.0000 0.19230  0.81610  0.95790  Biso   1.000  C
  H181     1.0000 0.15450  0.79220  0.95340  Biso   1.000  H
  C424     1.0000 0.29010  0.89120  0.95103  Biso   1.000  C
  H182     1.0000 0.31840  0.91670  0.94230  Biso   1.000  H
  C425     1.0000 0.30350  0.88850  0.97084  Biso   1.000  C
  H183     1.0000 0.34110  0.91380  0.97520  Biso   1.000  H
  C426     1.0000 0.23430  0.85530  0.94467  Biso   1.000  C
  C427     1.0000 0.16330  0.76760  0.99073  Biso   1.000  C
  C428     1.0000 0.17980  0.76110  0.00966  Biso   1.000  C
  C429     1.0000 0.27870  0.84640  0.00464  Biso   1.000  C
  C430     1.0000 0.33400  0.88520  0.01208  Biso   1.000  C
  H184     1.0000 0.36110  0.91410  0.00380  Biso   1.000  H
  C431     1.0000 0.26300  0.84940  0.98437  Biso   1.000  C
  C432     1.0000 0.23770  0.80150  0.01756  Biso   1.000  C
  C433     1.0000 0.14150  0.71300  0.02142  Biso   1.000  C
  H185     1.0000 0.15230  0.70890  0.03420  Biso   1.000  H
  C434     1.0000 0.34950  0.88150  0.03182  Biso   1.000  C
  C435     1.0000 0.25460  0.80000  0.03731  Biso   1.000  C
  H186     1.0000 0.22820  0.77220  0.04600  Biso   1.000  H
  C436     1.0000 0.30910  0.83870  0.04386  Biso   1.000  C
  H187     1.0000 0.31920  0.83590  0.05690  Biso   1.000  H
  C437     1.0000 0.08750  0.67150  0.01393  Biso   1.000  C
  C438     1.0000 0.07010  0.68010  0.99555  Biso   1.000  C
  H188     1.0000 0.03340  0.65360  0.99070  Biso   1.000  H
  C439     1.0000 0.10670  0.72730  0.98441  Biso   1.000  C
  H189     1.0000 0.09380  0.73310  0.97220  Biso   1.000  H
  O123     1.0000 0.21990  0.80020  0.87741  Biso   1.000  O
  C440     1.0000 0.21550  0.77280  0.86177  Biso   1.000  C
  C441     1.0000 0.05140  0.61760  0.02573  Biso   1.000  C
  O124     1.0000 0.19950  0.77790  0.84493  Biso   1.000  O
  C442     1.0000 0.40950  0.92300  0.03906  Biso   1.000  C
  C443     1.0000 0.23540  0.72890  0.86255  Biso   1.000  C
  O125     1.0000 0.44370  0.96480  0.02818  Biso   1.000  O
  O126     1.0000 0.00702  0.57645  0.01825  Biso   1.000  O
  O127     1.0000 0.06650  0.61640  0.04373  Biso   1.000  O
  O128     1.0000 0.42360  0.91440  0.05597  Biso   1.000  O
  C444     1.0000 0.31360  0.70680  0.86375  Biso   1.000  C
  C445     1.0000 0.27370  0.64810  0.86423  Biso   1.000  C
  C446     1.0000 0.29300  0.74700  0.86336  Biso   1.000  C
  H190     1.0000 0.31960  0.78660  0.86370  Biso   1.000  H
  C447     1.0000 0.21430  0.62930  0.86290  Biso   1.000  C
  H191     1.0000 0.18720  0.58980  0.86250  Biso   1.000  H
  C448     1.0000 0.19590  0.67060  0.86220  Biso   1.000  C
  H192     1.0000 0.15650  0.65820  0.86150  Biso   1.000  H
  Cd17     1.0000 0.85240  0.19001  0.21907  Biso   1.000  Cd
  O129     1.0000 0.91847  0.22923  0.24523  Biso   1.000  O
  O130     1.0000 0.83567  0.15113  0.25100  Biso   1.000  O
  C449     1.0000 0.88457  0.19003  0.25642  Biso   1.000  C
  C450     1.0000 0.87227  0.14533  0.31098  Biso   1.000  C
  C451     1.0000 0.85897  0.14943  0.29123  Biso   1.000  C
  H193     1.0000 0.82117  0.12553  0.28673  Biso   1.000  H
  C452     1.0000 0.95677  0.22453  0.28436  Biso   1.000  C
  H194     1.0000 0.98507  0.25003  0.27563  Biso   1.000  H
  C453     1.0000 0.97017  0.22183  0.30417  Biso   1.000  C
  H195     1.0000 0.00777  0.24713  0.30853  Biso   1.000  H
  C454     1.0000 0.90097  0.18863  0.27800  Biso   1.000  C
  C455     1.0000 0.82997  0.10093  0.32406  Biso   1.000  C
  C456     1.0000 0.84647  0.09443  0.34299  Biso   1.000  C
  C457     1.0000 0.94537  0.17973  0.33797  Biso   1.000  C
  C458     1.0000 0.00067  0.21853  0.34541  Biso   1.000  C
  H196     1.0000 0.02777  0.24743  0.33713  Biso   1.000  H
  C459     1.0000 0.92967  0.18273  0.31770  Biso   1.000  C
  C460     1.0000 0.90437  0.13483  0.35089  Biso   1.000  C
  C461     1.0000 0.80817  0.04633  0.35475  Biso   1.000  C
  H197     1.0000 0.81897  0.04223  0.36753  Biso   1.000  H
  C462     1.0000 0.01617  0.21483  0.36515  Biso   1.000  C
  C463     1.0000 0.92127  0.13333  0.37064  Biso   1.000  C
  H198     1.0000 0.89487  0.10553  0.37933  Biso   1.000  H
  C464     1.0000 0.97577  0.17203  0.37719  Biso   1.000  C
  H199     1.0000 0.98587  0.16923  0.39023  Biso   1.000  H
  C465     1.0000 0.75417  0.00483  0.34726  Biso   1.000  C
  C466     1.0000 0.73677  0.01343  0.32888  Biso   1.000  C
  H200     1.0000 0.70007  0.98693  0.32403  Biso   1.000  H
  C467     1.0000 0.77337  0.06063  0.31774  Biso   1.000  C
  H201     1.0000 0.76047  0.06643  0.30553  Biso   1.000  H
  O131     1.0000 0.88657  0.13353  0.21074  Biso   1.000  O
  C468     1.0000 0.88217  0.10613  0.19510  Biso   1.000  C
  C469     1.0000 0.71807  0.95093  0.35906  Biso   1.000  C
  O132     1.0000 0.86617  0.11123  0.17826  Biso   1.000  O
  C470     1.0000 0.07617  0.25633  0.37239  Biso   1.000  C
  C471     1.0000 0.90207  0.06223  0.19588  Biso   1.000  C
  O133     1.0000 0.11037  0.29813  0.36151  Biso   1.000  O
  O134     1.0000 0.67369  0.90978  0.35158  Biso   1.000  O
  O135     1.0000 0.73317  0.94973  0.37706  Biso   1.000  O
  O136     1.0000 0.09027  0.24773  0.38930  Biso   1.000  O
  C472     1.0000 0.98027  0.04013  0.19708  Biso   1.000  C
  C473     1.0000 0.94037  0.98143  0.19756  Biso   1.000  C
  C474     1.0000 0.95967  0.08033  0.19669  Biso   1.000  C
  H202     1.0000 0.98627  0.11993  0.19703  Biso   1.000  H
  C475     1.0000 0.88097  0.96263  0.19623  Biso   1.000  C
  H203     1.0000 0.85387  0.92313  0.19583  Biso   1.000  H
  C476     1.0000 0.86257  0.00393  0.19553  Biso   1.000  C
  H204     1.0000 0.82317  0.99153  0.19483  Biso   1.000  H
  Cd18     1.0000 0.51906  0.52335  0.55240  Biso   1.000  Cd
  O137     1.0000 0.58513  0.56257  0.57857  Biso   1.000  O
  O138     1.0000 0.50233  0.48447  0.58434  Biso   1.000  O
  C477     1.0000 0.55123  0.52337  0.58976  Biso   1.000  C
  C478     1.0000 0.53893  0.47867  0.64432  Biso   1.000  C
  C479     1.0000 0.52563  0.48277  0.62457  Biso   1.000  C
  H205     1.0000 0.48783  0.45887  0.62007  Biso   1.000  H
  C480     1.0000 0.62343  0.55787  0.61770  Biso   1.000  C
  H206     1.0000 0.65173  0.58337  0.60897  Biso   1.000  H
  C481     1.0000 0.63683  0.55517  0.63751  Biso   1.000  C
  H207     1.0000 0.67443  0.58047  0.64187  Biso   1.000  H
  C482     1.0000 0.56763  0.52197  0.61134  Biso   1.000  C
  C483     1.0000 0.49663  0.43427  0.65740  Biso   1.000  C
  C484     1.0000 0.51313  0.42777  0.67633  Biso   1.000  C
  C485     1.0000 0.61203  0.51307  0.67131  Biso   1.000  C
  C486     1.0000 0.66733  0.55187  0.67875  Biso   1.000  C
  H208     1.0000 0.69443  0.58077  0.67047  Biso   1.000  H
  C487     1.0000 0.59633  0.51607  0.65104  Biso   1.000  C
  C488     1.0000 0.57103  0.46817  0.68423  Biso   1.000  C
  C489     1.0000 0.47483  0.37967  0.68809  Biso   1.000  C
  H209     1.0000 0.48563  0.37557  0.70087  Biso   1.000  H
  C490     1.0000 0.68283  0.54817  0.69849  Biso   1.000  C
  C491     1.0000 0.58793  0.46667  0.70398  Biso   1.000  C
  H210     1.0000 0.56153  0.43887  0.71267  Biso   1.000  H
  C492     1.0000 0.64243  0.50537  0.71053  Biso   1.000  C
  H211     1.0000 0.65253  0.50257  0.72357  Biso   1.000  H
  C493     1.0000 0.42083  0.33817  0.68060  Biso   1.000  C
  C494     1.0000 0.40343  0.34677  0.66222  Biso   1.000  C
  H212     1.0000 0.36673  0.32027  0.65737  Biso   1.000  H
  C495     1.0000 0.44003  0.39397  0.65108  Biso   1.000  C
  H213     1.0000 0.42713  0.39977  0.63887  Biso   1.000  H
  O139     1.0000 0.55323  0.46687  0.54408  Biso   1.000  O
  C496     1.0000 0.54883  0.43947  0.52844  Biso   1.000  C
  C497     1.0000 0.38473  0.28427  0.69240  Biso   1.000  C
  O140     1.0000 0.53283  0.44457  0.51160  Biso   1.000  O
  C498     1.0000 0.74283  0.58967  0.70573  Biso   1.000  C
  C499     1.0000 0.56873  0.39557  0.52922  Biso   1.000  C
  O141     1.0000 0.77703  0.63147  0.69485  Biso   1.000  O
  O142     1.0000 0.34035  0.24312  0.68492  Biso   1.000  O
  O143     1.0000 0.39983  0.28307  0.71040  Biso   1.000  O
  O144     1.0000 0.75693  0.58107  0.72264  Biso   1.000  O
  C500     1.0000 0.64693  0.37347  0.53042  Biso   1.000  C
  C501     1.0000 0.60703  0.31477  0.53090  Biso   1.000  C
  C502     1.0000 0.62633  0.41367  0.53003  Biso   1.000  C
  H214     1.0000 0.65293  0.45327  0.53037  Biso   1.000  H
  C503     1.0000 0.54763  0.29597  0.52957  Biso   1.000  C
  H215     1.0000 0.52053  0.25647  0.52917  Biso   1.000  H
  C504     1.0000 0.52923  0.33727  0.52887  Biso   1.000  C
  H216     1.0000 0.48983  0.32487  0.52817  Biso   1.000  H
  Cd19     1.0000 0.18573  0.32905  0.38574  Biso   1.000  Cd
  O145     1.0000 0.25180  0.35590  0.41190  Biso   1.000  O
  O146     1.0000 0.16900  0.35120  0.41767  Biso   1.000  O
  C505     1.0000 0.21790  0.36120  0.42309  Biso   1.000  C
  C506     1.0000 0.20560  0.39360  0.47765  Biso   1.000  C
  C507     1.0000 0.19230  0.37620  0.45790  Biso   1.000  C
  H217     1.0000 0.15450  0.36230  0.45340  Biso   1.000  H
  C508     1.0000 0.29010  0.39890  0.45103  Biso   1.000  C
  H218     1.0000 0.31840  0.40170  0.44230  Biso   1.000  H
  C509     1.0000 0.30350  0.41500  0.47084  Biso   1.000  C
  H219     1.0000 0.34110  0.42730  0.47520  Biso   1.000  H
  C510     1.0000 0.23430  0.37900  0.44467  Biso   1.000  C
  C511     1.0000 0.16330  0.39570  0.49073  Biso   1.000  C
  C512     1.0000 0.17980  0.41870  0.50966  Biso   1.000  C
  C513     1.0000 0.27870  0.43230  0.50464  Biso   1.000  C
  C514     1.0000 0.33400  0.44880  0.51208  Biso   1.000  C
  H220     1.0000 0.36110  0.44700  0.50380  Biso   1.000  H
  C515     1.0000 0.26300  0.41360  0.48437  Biso   1.000  C
  C516     1.0000 0.23770  0.43620  0.51756  Biso   1.000  C
  C517     1.0000 0.14150  0.42850  0.52142  Biso   1.000  C
  H221     1.0000 0.15230  0.44340  0.53420  Biso   1.000  H
  C518     1.0000 0.34950  0.46800  0.53182  Biso   1.000  C
  C519     1.0000 0.25460  0.45460  0.53731  Biso   1.000  C
  H222     1.0000 0.22820  0.45600  0.54600  Biso   1.000  H
  C520     1.0000 0.30910  0.47040  0.54386  Biso   1.000  C
  H223     1.0000 0.31920  0.48330  0.55690  Biso   1.000  H
  C521     1.0000 0.08750  0.41600  0.51393  Biso   1.000  C
  C522     1.0000 0.07010  0.39000  0.49555  Biso   1.000  C
  H224     1.0000 0.03340  0.37980  0.49070  Biso   1.000  H
  C523     1.0000 0.10670  0.37940  0.48441  Biso   1.000  C
  H225     1.0000 0.09380  0.36070  0.47220  Biso   1.000  H
  O147     1.0000 0.21990  0.41970  0.37741  Biso   1.000  O
  C524     1.0000 0.21550  0.44270  0.36177  Biso   1.000  C
  C525     1.0000 0.05140  0.43380  0.52573  Biso   1.000  C
  O148     1.0000 0.19950  0.42160  0.34493  Biso   1.000  O
  C526     1.0000 0.40950  0.48650  0.53906  Biso   1.000  C
  C527     1.0000 0.23540  0.50650  0.36255  Biso   1.000  C
  O149     1.0000 0.44370  0.47890  0.52818  Biso   1.000  O
  O150     1.0000 0.00702  0.43057  0.51825  Biso   1.000  O
  O151     1.0000 0.06650  0.45010  0.54373  Biso   1.000  O
  O152     1.0000 0.42360  0.50920  0.55597  Biso   1.000  O
  C528     1.0000 0.31360  0.60680  0.36375  Biso   1.000  C
  C529     1.0000 0.27370  0.62560  0.36423  Biso   1.000  C
  C530     1.0000 0.29300  0.54600  0.36336  Biso   1.000  C
  H226     1.0000 0.31960  0.53300  0.36370  Biso   1.000  H
  C531     1.0000 0.21430  0.58500  0.36290  Biso   1.000  C
  H227     1.0000 0.18720  0.59740  0.36250  Biso   1.000  H
  C532     1.0000 0.19590  0.52530  0.36220  Biso   1.000  C
  H228     1.0000 0.15650  0.49830  0.36150  Biso   1.000  H
  Cd20     1.0000 0.85240  0.66238  0.71907  Biso   1.000  Cd
  O153     1.0000 0.91847  0.68923  0.74523  Biso   1.000  O
  O154     1.0000 0.83567  0.68453  0.75100  Biso   1.000  O
  C533     1.0000 0.88457  0.69453  0.75642  Biso   1.000  C
  C534     1.0000 0.87227  0.72693  0.81098  Biso   1.000  C
  C535     1.0000 0.85897  0.70953  0.79123  Biso   1.000  C
  H229     1.0000 0.82117  0.69563  0.78673  Biso   1.000  H
  C536     1.0000 0.95677  0.73223  0.78436  Biso   1.000  C
  H230     1.0000 0.98507  0.73503  0.77563  Biso   1.000  H
  C537     1.0000 0.97017  0.74833  0.80417  Biso   1.000  C
  H231     1.0000 0.00777  0.76063  0.80853  Biso   1.000  H
  C538     1.0000 0.90097  0.71233  0.77800  Biso   1.000  C
  C539     1.0000 0.82997  0.72903  0.82406  Biso   1.000  C
  C540     1.0000 0.84647  0.75203  0.84299  Biso   1.000  C
  C541     1.0000 0.94537  0.76563  0.83797  Biso   1.000  C
  C542     1.0000 0.00067  0.78213  0.84541  Biso   1.000  C
  H232     1.0000 0.02777  0.78033  0.83713  Biso   1.000  H
  C543     1.0000 0.92967  0.74693  0.81770  Biso   1.000  C
  C544     1.0000 0.90437  0.76953  0.85089  Biso   1.000  C
  C545     1.0000 0.80817  0.76183  0.85475  Biso   1.000  C
  H233     1.0000 0.81897  0.77673  0.86753  Biso   1.000  H
  C546     1.0000 0.01617  0.80133  0.86515  Biso   1.000  C
  C547     1.0000 0.92127  0.78793  0.87064  Biso   1.000  C
  H234     1.0000 0.89487  0.78933  0.87933  Biso   1.000  H
  C548     1.0000 0.97577  0.80373  0.87719  Biso   1.000  C
  H235     1.0000 0.98587  0.81663  0.89023  Biso   1.000  H
  C549     1.0000 0.75417  0.74933  0.84726  Biso   1.000  C
  C550     1.0000 0.73677  0.72333  0.82888  Biso   1.000  C
  H236     1.0000 0.70007  0.71313  0.82403  Biso   1.000  H
  C551     1.0000 0.77337  0.71273  0.81774  Biso   1.000  C
  H237     1.0000 0.76047  0.69403  0.80553  Biso   1.000  H
  O155     1.0000 0.88657  0.75303  0.71074  Biso   1.000  O
  C552     1.0000 0.88217  0.77603  0.69510  Biso   1.000  C
  C553     1.0000 0.71807  0.76713  0.85906  Biso   1.000  C
  O156     1.0000 0.86617  0.75493  0.67826  Biso   1.000  O
  C554     1.0000 0.07617  0.81983  0.87239  Biso   1.000  C
  C555     1.0000 0.90207  0.83983  0.69588  Biso   1.000  C
  O157     1.0000 0.11037  0.81223  0.86151  Biso   1.000  O
  O158     1.0000 0.67369  0.76390  0.85158  Biso   1.000  O
  O159     1.0000 0.73317  0.78343  0.87706  Biso   1.000  O
  O160     1.0000 0.09027  0.84253  0.88930  Biso   1.000  O
  C556     1.0000 0.98027  0.94013  0.69708  Biso   1.000  C
  C557     1.0000 0.94037  0.95893  0.69756  Biso   1.000  C
  C558     1.0000 0.95967  0.87933  0.69669  Biso   1.000  C
  H238     1.0000 0.98627  0.86633  0.69703  Biso   1.000  H
  C559     1.0000 0.88097  0.91833  0.69623  Biso   1.000  C
  H239     1.0000 0.85387  0.93073  0.69583  Biso   1.000  H
  C560     1.0000 0.86257  0.85863  0.69553  Biso   1.000  C
  H240     1.0000 0.82317  0.83163  0.69483  Biso   1.000  H
  Cd21     1.0000 0.51906  0.99572  0.05240  Biso   1.000  Cd
  O161     1.0000 0.58513  0.02257  0.07857  Biso   1.000  O
  O162     1.0000 0.50233  0.01787  0.08434  Biso   1.000  O
  C561     1.0000 0.55123  0.02787  0.08976  Biso   1.000  C
  C562     1.0000 0.53893  0.06027  0.14432  Biso   1.000  C
  C563     1.0000 0.52563  0.04287  0.12457  Biso   1.000  C
  H241     1.0000 0.48783  0.02897  0.12007  Biso   1.000  H
  C564     1.0000 0.62343  0.06557  0.11770  Biso   1.000  C
  H242     1.0000 0.65173  0.06837  0.10897  Biso   1.000  H
  C565     1.0000 0.63683  0.08167  0.13751  Biso   1.000  C
  H243     1.0000 0.67443  0.09397  0.14187  Biso   1.000  H
  C566     1.0000 0.56763  0.04567  0.11134  Biso   1.000  C
  C567     1.0000 0.49663  0.06237  0.15740  Biso   1.000  C
  C568     1.0000 0.51313  0.08537  0.17633  Biso   1.000  C
  C569     1.0000 0.61203  0.09897  0.17131  Biso   1.000  C
  C570     1.0000 0.66733  0.11547  0.17875  Biso   1.000  C
  H244     1.0000 0.69443  0.11367  0.17047  Biso   1.000  H
  C571     1.0000 0.59633  0.08027  0.15104  Biso   1.000  C
  C572     1.0000 0.57103  0.10287  0.18423  Biso   1.000  C
  C573     1.0000 0.47483  0.09517  0.18809  Biso   1.000  C
  H245     1.0000 0.48563  0.11007  0.20087  Biso   1.000  H
  C574     1.0000 0.68283  0.13467  0.19849  Biso   1.000  C
  C575     1.0000 0.58793  0.12127  0.20398  Biso   1.000  C
  H246     1.0000 0.56153  0.12267  0.21267  Biso   1.000  H
  C576     1.0000 0.64243  0.13707  0.21053  Biso   1.000  C
  H247     1.0000 0.65253  0.14997  0.22357  Biso   1.000  H
  C577     1.0000 0.42083  0.08267  0.18060  Biso   1.000  C
  C578     1.0000 0.40343  0.05667  0.16222  Biso   1.000  C
  H248     1.0000 0.36673  0.04647  0.15737  Biso   1.000  H
  C579     1.0000 0.44003  0.04607  0.15108  Biso   1.000  C
  H249     1.0000 0.42713  0.02737  0.13887  Biso   1.000  H
  O163     1.0000 0.55323  0.08637  0.04408  Biso   1.000  O
  C580     1.0000 0.54883  0.10937  0.02844  Biso   1.000  C
  C581     1.0000 0.38473  0.10047  0.19240  Biso   1.000  C
  O164     1.0000 0.53283  0.08827  0.01160  Biso   1.000  O
  C582     1.0000 0.74283  0.15317  0.20573  Biso   1.000  C
  C583     1.0000 0.56873  0.17317  0.02922  Biso   1.000  C
  O165     1.0000 0.77703  0.14557  0.19485  Biso   1.000  O
  O166     1.0000 0.34035  0.09724  0.18492  Biso   1.000  O
  O167     1.0000 0.39983  0.11677  0.21040  Biso   1.000  O
  O168     1.0000 0.75693  0.17587  0.22264  Biso   1.000  O
  C584     1.0000 0.64693  0.27347  0.03042  Biso   1.000  C
  C585     1.0000 0.60703  0.29227  0.03090  Biso   1.000  C
  C586     1.0000 0.62633  0.21267  0.03003  Biso   1.000  C
  H250     1.0000 0.65293  0.19967  0.03037  Biso   1.000  H
  C587     1.0000 0.54763  0.25167  0.02957  Biso   1.000  C
  H251     1.0000 0.52053  0.26407  0.02917  Biso   1.000  H
  C588     1.0000 0.52923  0.19197  0.02887  Biso   1.000  C
  H252     1.0000 0.48983  0.16497  0.02817  Biso   1.000  H
  Cd22     1.0000 0.67095  0.85668  0.38574  Biso   1.000  Cd
  O169     1.0000 0.64410  0.89590  0.41190  Biso   1.000  O
  O170     1.0000 0.64880  0.81780  0.41767  Biso   1.000  O
  C589     1.0000 0.63880  0.85670  0.42309  Biso   1.000  C
  C590     1.0000 0.60640  0.81200  0.47765  Biso   1.000  C
  C591     1.0000 0.62380  0.81610  0.45790  Biso   1.000  C
  H253     1.0000 0.63770  0.79220  0.45340  Biso   1.000  H
  C592     1.0000 0.60110  0.89120  0.45103  Biso   1.000  C
  H254     1.0000 0.59830  0.91670  0.44230  Biso   1.000  H
  C593     1.0000 0.58500  0.88850  0.47084  Biso   1.000  C
  H255     1.0000 0.57270  0.91380  0.47520  Biso   1.000  H
  C594     1.0000 0.62100  0.85530  0.44467  Biso   1.000  C
  C595     1.0000 0.60430  0.76760  0.49073  Biso   1.000  C
  C596     1.0000 0.58130  0.76110  0.50966  Biso   1.000  C
  C597     1.0000 0.56770  0.84640  0.50464  Biso   1.000  C
  C598     1.0000 0.55120  0.88520  0.51208  Biso   1.000  C
  H256     1.0000 0.55300  0.91410  0.50380  Biso   1.000  H
  C599     1.0000 0.58640  0.84940  0.48437  Biso   1.000  C
  C600     1.0000 0.56380  0.80150  0.51756  Biso   1.000  C
  C601     1.0000 0.57150  0.71300  0.52142  Biso   1.000  C
  H257     1.0000 0.55660  0.70890  0.53420  Biso   1.000  H
  C602     1.0000 0.53200  0.88150  0.53182  Biso   1.000  C
  C603     1.0000 0.54540  0.80000  0.53731  Biso   1.000  C
  H258     1.0000 0.54400  0.77220  0.54600  Biso   1.000  H
  C604     1.0000 0.52960  0.83870  0.54386  Biso   1.000  C
  H259     1.0000 0.51670  0.83590  0.55690  Biso   1.000  H
  C605     1.0000 0.58400  0.67150  0.51393  Biso   1.000  C
  C606     1.0000 0.61000  0.68010  0.49555  Biso   1.000  C
  H260     1.0000 0.62020  0.65360  0.49070  Biso   1.000  H
  C607     1.0000 0.62060  0.72730  0.48441  Biso   1.000  C
  H261     1.0000 0.63930  0.73310  0.47220  Biso   1.000  H
  O171     1.0000 0.58030  0.80020  0.37741  Biso   1.000  O
  C608     1.0000 0.55730  0.77280  0.36177  Biso   1.000  C
  C609     1.0000 0.56620  0.61760  0.52573  Biso   1.000  C
  O172     1.0000 0.57840  0.77790  0.34493  Biso   1.000  O
  C610     1.0000 0.51350  0.92300  0.53906  Biso   1.000  C
  C611     1.0000 0.49350  0.72890  0.36255  Biso   1.000  C
  O173     1.0000 0.52110  0.96480  0.52818  Biso   1.000  O
  O174     1.0000 0.56943  0.57645  0.51825  Biso   1.000  O
  O175     1.0000 0.54990  0.61640  0.54373  Biso   1.000  O
  O176     1.0000 0.49080  0.91440  0.55597  Biso   1.000  O
  C612     1.0000 0.39320  0.70680  0.36375  Biso   1.000  C
  C613     1.0000 0.37440  0.64810  0.36423  Biso   1.000  C
  C614     1.0000 0.45400  0.74700  0.36336  Biso   1.000  C
  H262     1.0000 0.46700  0.78660  0.36370  Biso   1.000  H
  C615     1.0000 0.41500  0.62930  0.36290  Biso   1.000  C
  H263     1.0000 0.40260  0.58980  0.36250  Biso   1.000  H
  C616     1.0000 0.47470  0.67060  0.36220  Biso   1.000  C
  H264     1.0000 0.50170  0.65820  0.36150  Biso   1.000  H
  Cd23     1.0000 0.33762  0.19001  0.71907  Biso   1.000  Cd
  O177     1.0000 0.31077  0.22923  0.74523  Biso   1.000  O
  O178     1.0000 0.31547  0.15113  0.75100  Biso   1.000  O
  C617     1.0000 0.30547  0.19003  0.75642  Biso   1.000  C
  C618     1.0000 0.27307  0.14533  0.81098  Biso   1.000  C
  C619     1.0000 0.29047  0.14943  0.79123  Biso   1.000  C
  H265     1.0000 0.30437  0.12553  0.78673  Biso   1.000  H
  C620     1.0000 0.26777  0.22453  0.78436  Biso   1.000  C
  H266     1.0000 0.26497  0.25003  0.77563  Biso   1.000  H
  C621     1.0000 0.25167  0.22183  0.80417  Biso   1.000  C
  H267     1.0000 0.23937  0.24713  0.80853  Biso   1.000  H
  C622     1.0000 0.28767  0.18863  0.77800  Biso   1.000  C
  C623     1.0000 0.27097  0.10093  0.82406  Biso   1.000  C
  C624     1.0000 0.24797  0.09443  0.84299  Biso   1.000  C
  C625     1.0000 0.23437  0.17973  0.83797  Biso   1.000  C
  C626     1.0000 0.21787  0.21853  0.84541  Biso   1.000  C
  H268     1.0000 0.21967  0.24743  0.83713  Biso   1.000  H
  C627     1.0000 0.25307  0.18273  0.81770  Biso   1.000  C
  C628     1.0000 0.23047  0.13483  0.85089  Biso   1.000  C
  C629     1.0000 0.23817  0.04633  0.85475  Biso   1.000  C
  H269     1.0000 0.22327  0.04223  0.86753  Biso   1.000  H
  C630     1.0000 0.19867  0.21483  0.86515  Biso   1.000  C
  C631     1.0000 0.21207  0.13333  0.87064  Biso   1.000  C
  H270     1.0000 0.21067  0.10553  0.87933  Biso   1.000  H
  C632     1.0000 0.19627  0.17203  0.87719  Biso   1.000  C
  H271     1.0000 0.18337  0.16923  0.89023  Biso   1.000  H
  C633     1.0000 0.25067  0.00483  0.84726  Biso   1.000  C
  C634     1.0000 0.27667  0.01343  0.82888  Biso   1.000  C
  H272     1.0000 0.28687  0.98693  0.82403  Biso   1.000  H
  C635     1.0000 0.28727  0.06063  0.81774  Biso   1.000  C
  H273     1.0000 0.30597  0.06643  0.80553  Biso   1.000  H
  O179     1.0000 0.24697  0.13353  0.71074  Biso   1.000  O
  C636     1.0000 0.22397  0.10613  0.69510  Biso   1.000  C
  C637     1.0000 0.23287  0.95093  0.85906  Biso   1.000  C
  O180     1.0000 0.24507  0.11123  0.67826  Biso   1.000  O
  C638     1.0000 0.18017  0.25633  0.87239  Biso   1.000  C
  C639     1.0000 0.16017  0.06223  0.69588  Biso   1.000  C
  O181     1.0000 0.18777  0.29813  0.86151  Biso   1.000  O
  O182     1.0000 0.23610  0.90978  0.85158  Biso   1.000  O
  O183     1.0000 0.21657  0.94973  0.87706  Biso   1.000  O
  O184     1.0000 0.15747  0.24773  0.88930  Biso   1.000  O
  C640     1.0000 0.05987  0.04013  0.69708  Biso   1.000  C
  C641     1.0000 0.04107  0.98143  0.69756  Biso   1.000  C
  C642     1.0000 0.12067  0.08033  0.69669  Biso   1.000  C
  H274     1.0000 0.13367  0.11993  0.69703  Biso   1.000  H
  C643     1.0000 0.08167  0.96263  0.69623  Biso   1.000  C
  H275     1.0000 0.06927  0.92313  0.69583  Biso   1.000  H
  C644     1.0000 0.14137  0.00393  0.69553  Biso   1.000  C
  H276     1.0000 0.16837  0.99153  0.69483  Biso   1.000  H
  Cd24     1.0000 0.00428  0.52335  0.05240  Biso   1.000  Cd
  O185     1.0000 0.97743  0.56257  0.07857  Biso   1.000  O
  O186     1.0000 0.98213  0.48447  0.08434  Biso   1.000  O
  C645     1.0000 0.97213  0.52337  0.08976  Biso   1.000  C
  C646     1.0000 0.93973  0.47867  0.14432  Biso   1.000  C
  C647     1.0000 0.95713  0.48277  0.12457  Biso   1.000  C
  H277     1.0000 0.97103  0.45887  0.12007  Biso   1.000  H
  C648     1.0000 0.93443  0.55787  0.11770  Biso   1.000  C
  H278     1.0000 0.93163  0.58337  0.10897  Biso   1.000  H
  C649     1.0000 0.91833  0.55517  0.13751  Biso   1.000  C
  H279     1.0000 0.90603  0.58047  0.14187  Biso   1.000  H
  C650     1.0000 0.95433  0.52197  0.11134  Biso   1.000  C
  C651     1.0000 0.93763  0.43427  0.15740  Biso   1.000  C
  C652     1.0000 0.91463  0.42777  0.17633  Biso   1.000  C
  C653     1.0000 0.90103  0.51307  0.17131  Biso   1.000  C
  C654     1.0000 0.88453  0.55187  0.17875  Biso   1.000  C
  H280     1.0000 0.88633  0.58077  0.17047  Biso   1.000  H
  C655     1.0000 0.91973  0.51607  0.15104  Biso   1.000  C
  C656     1.0000 0.89713  0.46817  0.18423  Biso   1.000  C
  C657     1.0000 0.90483  0.37967  0.18809  Biso   1.000  C
  H281     1.0000 0.88993  0.37557  0.20087  Biso   1.000  H
  C658     1.0000 0.86533  0.54817  0.19849  Biso   1.000  C
  C659     1.0000 0.87873  0.46667  0.20398  Biso   1.000  C
  H282     1.0000 0.87733  0.43887  0.21267  Biso   1.000  H
  C660     1.0000 0.86293  0.50537  0.21053  Biso   1.000  C
  H283     1.0000 0.85003  0.50257  0.22357  Biso   1.000  H
  C661     1.0000 0.91733  0.33817  0.18060  Biso   1.000  C
  C662     1.0000 0.94333  0.34677  0.16222  Biso   1.000  C
  H284     1.0000 0.95353  0.32027  0.15737  Biso   1.000  H
  C663     1.0000 0.95393  0.39397  0.15108  Biso   1.000  C
  H285     1.0000 0.97263  0.39977  0.13887  Biso   1.000  H
  O187     1.0000 0.91363  0.46687  0.04408  Biso   1.000  O
  C664     1.0000 0.89063  0.43947  0.02844  Biso   1.000  C
  C665     1.0000 0.89953  0.28427  0.19240  Biso   1.000  C
  O188     1.0000 0.91173  0.44457  0.01160  Biso   1.000  O
  C666     1.0000 0.84683  0.58967  0.20573  Biso   1.000  C
  C667     1.0000 0.82683  0.39557  0.02922  Biso   1.000  C
  O189     1.0000 0.85443  0.63147  0.19485  Biso   1.000  O
  O190     1.0000 0.90276  0.24312  0.18492  Biso   1.000  O
  O191     1.0000 0.88323  0.28307  0.21040  Biso   1.000  O
  O192     1.0000 0.82413  0.58107  0.22264  Biso   1.000  O
  C668     1.0000 0.72653  0.37347  0.03042  Biso   1.000  C
  C669     1.0000 0.70773  0.31477  0.03090  Biso   1.000  C
  C670     1.0000 0.78733  0.41367  0.03003  Biso   1.000  C
  H286     1.0000 0.80033  0.45327  0.03037  Biso   1.000  H
  C671     1.0000 0.74833  0.29597  0.02957  Biso   1.000  C
  H287     1.0000 0.73593  0.25647  0.02917  Biso   1.000  H
  C672     1.0000 0.80803  0.33727  0.02887  Biso   1.000  C
  H288     1.0000 0.83503  0.32487  0.02817  Biso   1.000  H
  Cd25     1.0000 0.14332  0.81427  0.38574  Biso   1.000  Cd
  O193     1.0000 0.10410  0.74820  0.41190  Biso   1.000  O
  O194     1.0000 0.18220  0.83100  0.41767  Biso   1.000  O
  C673     1.0000 0.14330  0.78210  0.42309  Biso   1.000  C
  C674     1.0000 0.18800  0.79440  0.47765  Biso   1.000  C
  C675     1.0000 0.18390  0.80770  0.45790  Biso   1.000  C
  H289     1.0000 0.20780  0.84550  0.45340  Biso   1.000  H
  C676     1.0000 0.10880  0.70990  0.45103  Biso   1.000  C
  H290     1.0000 0.08330  0.68160  0.44230  Biso   1.000  H
  C677     1.0000 0.11150  0.69650  0.47084  Biso   1.000  C
  H291     1.0000 0.08620  0.65890  0.47520  Biso   1.000  H
  C678     1.0000 0.14470  0.76570  0.44467  Biso   1.000  C
  C679     1.0000 0.23240  0.83670  0.49073  Biso   1.000  C
  C680     1.0000 0.23890  0.82020  0.50966  Biso   1.000  C
  C681     1.0000 0.15360  0.72130  0.50464  Biso   1.000  C
  C682     1.0000 0.11480  0.66600  0.51208  Biso   1.000  C
  H292     1.0000 0.08590  0.63890  0.50380  Biso   1.000  H
  C683     1.0000 0.15060  0.73700  0.48437  Biso   1.000  C
  C684     1.0000 0.19850  0.76230  0.51756  Biso   1.000  C
  C685     1.0000 0.28700  0.85850  0.52142  Biso   1.000  C
  H293     1.0000 0.29110  0.84770  0.53420  Biso   1.000  H
  C686     1.0000 0.11850  0.65050  0.53182  Biso   1.000  C
  C687     1.0000 0.20000  0.74540  0.53731  Biso   1.000  C
  H294     1.0000 0.22780  0.77180  0.54600  Biso   1.000  H
  C688     1.0000 0.16130  0.69090  0.54386  Biso   1.000  C
  H295     1.0000 0.16410  0.68080  0.55690  Biso   1.000  H
  C689     1.0000 0.32850  0.91250  0.51393  Biso   1.000  C
  C690     1.0000 0.31990  0.92990  0.49555  Biso   1.000  C
  H296     1.0000 0.34640  0.96660  0.49070  Biso   1.000  H
  C691     1.0000 0.27270  0.89330  0.48441  Biso   1.000  C
  H297     1.0000 0.26690  0.90620  0.47220  Biso   1.000  H
  O195     1.0000 0.19980  0.78010  0.37741  Biso   1.000  O
  C692     1.0000 0.22720  0.78450  0.36177  Biso   1.000  C
  C693     1.0000 0.38240  0.94860  0.52573  Biso   1.000  C
  O196     1.0000 0.22210  0.80050  0.34493  Biso   1.000  O
  C694     1.0000 0.07700  0.59050  0.53906  Biso   1.000  C
  C695     1.0000 0.27110  0.76460  0.36255  Biso   1.000  C
  O197     1.0000 0.03520  0.55630  0.52818  Biso   1.000  O
  O198     1.0000 0.42355  0.99298  0.51825  Biso   1.000  O
  O199     1.0000 0.38360  0.93350  0.54373  Biso   1.000  O
  O200     1.0000 0.08560  0.57640  0.55597  Biso   1.000  O
  C696     1.0000 0.29320  0.68640  0.36375  Biso   1.000  C
  C697     1.0000 0.35190  0.72630  0.36423  Biso   1.000  C
  C698     1.0000 0.25300  0.70700  0.36336  Biso   1.000  C
  H298     1.0000 0.21340  0.68040  0.36370  Biso   1.000  H
  C699     1.0000 0.37070  0.78570  0.36290  Biso   1.000  C
  H299     1.0000 0.41020  0.81280  0.36250  Biso   1.000  H
  C700     1.0000 0.32940  0.80410  0.36220  Biso   1.000  C
  H300     1.0000 0.34180  0.84350  0.36150  Biso   1.000  H
  Cd26     1.0000 0.80999  0.14760  0.71907  Biso   1.000  Cd
  O201     1.0000 0.77077  0.08153  0.74523  Biso   1.000  O
  O202     1.0000 0.84887  0.16433  0.75100  Biso   1.000  O
  C701     1.0000 0.80997  0.11543  0.75642  Biso   1.000  C
  C702     1.0000 0.85467  0.12773  0.81098  Biso   1.000  C
  C703     1.0000 0.85057  0.14103  0.79123  Biso   1.000  C
  H301     1.0000 0.87447  0.17883  0.78673  Biso   1.000  H
  C704     1.0000 0.77547  0.04323  0.78436  Biso   1.000  C
  H302     1.0000 0.74997  0.01493  0.77563  Biso   1.000  H
  C705     1.0000 0.77817  0.02983  0.80417  Biso   1.000  C
  H303     1.0000 0.75287  0.99223  0.80853  Biso   1.000  H
  C706     1.0000 0.81137  0.09903  0.77800  Biso   1.000  C
  C707     1.0000 0.89907  0.17003  0.82406  Biso   1.000  C
  C708     1.0000 0.90557  0.15353  0.84299  Biso   1.000  C
  C709     1.0000 0.82027  0.05463  0.83797  Biso   1.000  C
  C710     1.0000 0.78147  0.99933  0.84541  Biso   1.000  C
  H304     1.0000 0.75257  0.97223  0.83713  Biso   1.000  H
  C711     1.0000 0.81727  0.07033  0.81770  Biso   1.000  C
  C712     1.0000 0.86517  0.09563  0.85089  Biso   1.000  C
  C713     1.0000 0.95367  0.19183  0.85475  Biso   1.000  C
  H305     1.0000 0.95777  0.18103  0.86753  Biso   1.000  H
  C714     1.0000 0.78517  0.98383  0.86515  Biso   1.000  C
  C715     1.0000 0.86667  0.07873  0.87064  Biso   1.000  C
  H306     1.0000 0.89447  0.10513  0.87933  Biso   1.000  H
  C716     1.0000 0.82797  0.02423  0.87719  Biso   1.000  C
  H307     1.0000 0.83077  0.01413  0.89023  Biso   1.000  H
  C717     1.0000 0.99517  0.24583  0.84726  Biso   1.000  C
  C718     1.0000 0.98657  0.26323  0.82888  Biso   1.000  C
  H308     1.0000 0.01307  0.29993  0.82403  Biso   1.000  H
  C719     1.0000 0.93937  0.22663  0.81774  Biso   1.000  C
  H309     1.0000 0.93357  0.23953  0.80553  Biso   1.000  H
  O203     1.0000 0.86647  0.11343  0.71074  Biso   1.000  O
  C720     1.0000 0.89387  0.11783  0.69510  Biso   1.000  C
  C721     1.0000 0.04907  0.28193  0.85906  Biso   1.000  C
  O204     1.0000 0.88877  0.13383  0.67826  Biso   1.000  O
  C722     1.0000 0.74367  0.92383  0.87239  Biso   1.000  C
  C723     1.0000 0.93777  0.09793  0.69588  Biso   1.000  C
  O205     1.0000 0.70187  0.88963  0.86151  Biso   1.000  O
  O206     1.0000 0.09022  0.32631  0.85158  Biso   1.000  O
  O207     1.0000 0.05027  0.26683  0.87706  Biso   1.000  O
  O208     1.0000 0.75227  0.90973  0.88930  Biso   1.000  O
  C724     1.0000 0.95987  0.01973  0.69708  Biso   1.000  C
  C725     1.0000 0.01857  0.05963  0.69756  Biso   1.000  C
  C726     1.0000 0.91967  0.04033  0.69669  Biso   1.000  C
  H310     1.0000 0.88007  0.01373  0.69703  Biso   1.000  H
  C727     1.0000 0.03737  0.11903  0.69623  Biso   1.000  C
  H311     1.0000 0.07687  0.14613  0.69583  Biso   1.000  H
  C728     1.0000 0.99607  0.13743  0.69553  Biso   1.000  C
  H312     1.0000 0.00847  0.17683  0.69483  Biso   1.000  H
  Cd27     1.0000 0.47665  0.48094  0.05240  Biso   1.000  Cd
  O209     1.0000 0.43743  0.41487  0.07857  Biso   1.000  O
  O210     1.0000 0.51553  0.49767  0.08434  Biso   1.000  O
  C729     1.0000 0.47663  0.44877  0.08976  Biso   1.000  C
  C730     1.0000 0.52133  0.46107  0.14432  Biso   1.000  C
  C731     1.0000 0.51723  0.47437  0.12457  Biso   1.000  C
  H313     1.0000 0.54113  0.51217  0.12007  Biso   1.000  H
  C732     1.0000 0.44213  0.37657  0.11770  Biso   1.000  C
  H314     1.0000 0.41663  0.34827  0.10897  Biso   1.000  H
  C733     1.0000 0.44483  0.36317  0.13751  Biso   1.000  C
  H315     1.0000 0.41953  0.32557  0.14187  Biso   1.000  H
  C734     1.0000 0.47803  0.43237  0.11134  Biso   1.000  C
  C735     1.0000 0.56573  0.50337  0.15740  Biso   1.000  C
  C736     1.0000 0.57223  0.48687  0.17633  Biso   1.000  C
  C737     1.0000 0.48693  0.38797  0.17131  Biso   1.000  C
  C738     1.0000 0.44813  0.33267  0.17875  Biso   1.000  C
  H316     1.0000 0.41923  0.30557  0.17047  Biso   1.000  H
  C739     1.0000 0.48393  0.40367  0.15104  Biso   1.000  C
  C740     1.0000 0.53183  0.42897  0.18423  Biso   1.000  C
  C741     1.0000 0.62033  0.52517  0.18809  Biso   1.000  C
  H317     1.0000 0.62443  0.51437  0.20087  Biso   1.000  H
  C742     1.0000 0.45183  0.31717  0.19849  Biso   1.000  C
  C743     1.0000 0.53333  0.41207  0.20398  Biso   1.000  C
  H318     1.0000 0.56113  0.43847  0.21267  Biso   1.000  H
  C744     1.0000 0.49463  0.35757  0.21053  Biso   1.000  C
  H319     1.0000 0.49743  0.34747  0.22357  Biso   1.000  H
  C745     1.0000 0.66183  0.57917  0.18060  Biso   1.000  C
  C746     1.0000 0.65323  0.59657  0.16222  Biso   1.000  C
  H320     1.0000 0.67973  0.63327  0.15737  Biso   1.000  H
  C747     1.0000 0.60603  0.55997  0.15108  Biso   1.000  C
  H321     1.0000 0.60023  0.57287  0.13887  Biso   1.000  H
  O211     1.0000 0.53313  0.44677  0.04408  Biso   1.000  O
  C748     1.0000 0.56053  0.45117  0.02844  Biso   1.000  C
  C749     1.0000 0.71573  0.61527  0.19240  Biso   1.000  C
  O212     1.0000 0.55543  0.46717  0.01160  Biso   1.000  O
  C750     1.0000 0.41033  0.25717  0.20573  Biso   1.000  C
  C751     1.0000 0.60443  0.43127  0.02922  Biso   1.000  C
  O213     1.0000 0.36853  0.22297  0.19485  Biso   1.000  O
  O214     1.0000 0.75688  0.65965  0.18492  Biso   1.000  O
  O215     1.0000 0.71693  0.60017  0.21040  Biso   1.000  O
  O216     1.0000 0.41893  0.24307  0.22264  Biso   1.000  O
  C752     1.0000 0.62653  0.35307  0.03042  Biso   1.000  C
  C753     1.0000 0.68523  0.39297  0.03090  Biso   1.000  C
  C754     1.0000 0.58633  0.37367  0.03003  Biso   1.000  C
  H322     1.0000 0.54673  0.34707  0.03037  Biso   1.000  H
  C755     1.0000 0.70403  0.45237  0.02957  Biso   1.000  C
  H323     1.0000 0.74353  0.47947  0.02917  Biso   1.000  H
  C756     1.0000 0.66273  0.47077  0.02887  Biso   1.000  C
  H324     1.0000 0.67513  0.51017  0.02817  Biso   1.000  H
  Cd28     1.0000 0.32905  0.18573  0.11426  Biso   1.000  Cd
  O217     1.0000 0.35590  0.25180  0.08810  Biso   1.000  O
  O218     1.0000 0.35120  0.16900  0.08233  Biso   1.000  O
  C757     1.0000 0.36120  0.21790  0.07691  Biso   1.000  C
  C758     1.0000 0.39360  0.20560  0.02235  Biso   1.000  C
  C759     1.0000 0.37620  0.19230  0.04210  Biso   1.000  C
  H325     1.0000 0.36230  0.15450  0.04660  Biso   1.000  H
  C760     1.0000 0.39890  0.29010  0.04897  Biso   1.000  C
  H326     1.0000 0.40170  0.31840  0.05770  Biso   1.000  H
  C761     1.0000 0.41500  0.30350  0.02916  Biso   1.000  C
  H327     1.0000 0.42730  0.34110  0.02480  Biso   1.000  H
  C762     1.0000 0.37900  0.23430  0.05533  Biso   1.000  C
  C763     1.0000 0.39570  0.16330  0.00927  Biso   1.000  C
  C764     1.0000 0.41870  0.17980  0.99034  Biso   1.000  C
  C765     1.0000 0.43230  0.27870  0.99536  Biso   1.000  C
  C766     1.0000 0.44880  0.33400  0.98792  Biso   1.000  C
  H328     1.0000 0.44700  0.36110  0.99620  Biso   1.000  H
  C767     1.0000 0.41360  0.26300  0.01563  Biso   1.000  C
  C768     1.0000 0.43620  0.23770  0.98244  Biso   1.000  C
  C769     1.0000 0.42850  0.14150  0.97858  Biso   1.000  C
  H329     1.0000 0.44340  0.15230  0.96580  Biso   1.000  H
  C770     1.0000 0.46800  0.34950  0.96818  Biso   1.000  C
  C771     1.0000 0.45460  0.25460  0.96269  Biso   1.000  C
  H330     1.0000 0.45600  0.22820  0.95400  Biso   1.000  H
  C772     1.0000 0.47040  0.30910  0.95614  Biso   1.000  C
  H331     1.0000 0.48330  0.31920  0.94310  Biso   1.000  H
  C773     1.0000 0.41600  0.08750  0.98607  Biso   1.000  C
  C774     1.0000 0.39000  0.07010  0.00445  Biso   1.000  C
  H332     1.0000 0.37980  0.03340  0.00930  Biso   1.000  H
  C775     1.0000 0.37940  0.10670  0.01559  Biso   1.000  C
  H333     1.0000 0.36070  0.09380  0.02780  Biso   1.000  H
  O219     1.0000 0.41970  0.21990  0.12259  Biso   1.000  O
  C776     1.0000 0.44270  0.21550  0.13823  Biso   1.000  C
  C777     1.0000 0.43380  0.05140  0.97427  Biso   1.000  C
  O220     1.0000 0.42160  0.19950  0.15507  Biso   1.000  O
  C778     1.0000 0.48650  0.40950  0.96094  Biso   1.000  C
  C779     1.0000 0.50650  0.23540  0.13745  Biso   1.000  C
  O221     1.0000 0.47890  0.44370  0.97182  Biso   1.000  O
  O222     1.0000 0.43057  0.00702  0.98175  Biso   1.000  O
  O223     1.0000 0.45010  0.06650  0.95627  Biso   1.000  O
  O224     1.0000 0.50920  0.42360  0.94403  Biso   1.000  O
  C780     1.0000 0.60680  0.31360  0.13625  Biso   1.000  C
  C781     1.0000 0.62560  0.27370  0.13577  Biso   1.000  C
  C782     1.0000 0.54600  0.29300  0.13664  Biso   1.000  C
  H334     1.0000 0.53300  0.31960  0.13630  Biso   1.000  H
  C783     1.0000 0.58500  0.21430  0.13710  Biso   1.000  C
  H335     1.0000 0.59740  0.18720  0.13750  Biso   1.000  H
  C784     1.0000 0.52530  0.19590  0.13780  Biso   1.000  C
  H336     1.0000 0.49830  0.15650  0.13850  Biso   1.000  H
  Cd29     1.0000 0.99572  0.51906  0.44760  Biso   1.000  Cd
  O225     1.0000 0.02257  0.58513  0.42143  Biso   1.000  O
  O226     1.0000 0.01787  0.50233  0.41566  Biso   1.000  O
  C785     1.0000 0.02787  0.55123  0.41024  Biso   1.000  C
  C786     1.0000 0.06027  0.53893  0.35568  Biso   1.000  C
  C787     1.0000 0.04287  0.52563  0.37543  Biso   1.000  C
  H337     1.0000 0.02897  0.48783  0.37993  Biso   1.000  H
  C788     1.0000 0.06557  0.62343  0.38230  Biso   1.000  C
  H338     1.0000 0.06837  0.65173  0.39103  Biso   1.000  H
  C789     1.0000 0.08167  0.63683  0.36249  Biso   1.000  C
  H339     1.0000 0.09397  0.67443  0.35813  Biso   1.000  H
  C790     1.0000 0.04567  0.56763  0.38866  Biso   1.000  C
  C791     1.0000 0.06237  0.49663  0.34260  Biso   1.000  C
  C792     1.0000 0.08537  0.51313  0.32367  Biso   1.000  C
  C793     1.0000 0.09897  0.61203  0.32869  Biso   1.000  C
  C794     1.0000 0.11547  0.66733  0.32125  Biso   1.000  C
  H340     1.0000 0.11367  0.69443  0.32953  Biso   1.000  H
  C795     1.0000 0.08027  0.59633  0.34896  Biso   1.000  C
  C796     1.0000 0.10287  0.57103  0.31577  Biso   1.000  C
  C797     1.0000 0.09517  0.47483  0.31191  Biso   1.000  C
  H341     1.0000 0.11007  0.48563  0.29913  Biso   1.000  H
  C798     1.0000 0.13467  0.68283  0.30151  Biso   1.000  C
  C799     1.0000 0.12127  0.58793  0.29602  Biso   1.000  C
  H342     1.0000 0.12267  0.56153  0.28733  Biso   1.000  H
  C800     1.0000 0.13707  0.64243  0.28947  Biso   1.000  C
  H343     1.0000 0.14997  0.65253  0.27643  Biso   1.000  H
  C801     1.0000 0.08267  0.42083  0.31940  Biso   1.000  C
  C802     1.0000 0.05667  0.40343  0.33778  Biso   1.000  C
  H344     1.0000 0.04647  0.36673  0.34263  Biso   1.000  H
  C803     1.0000 0.04607  0.44003  0.34892  Biso   1.000  C
  H345     1.0000 0.02737  0.42713  0.36113  Biso   1.000  H
  O227     1.0000 0.08637  0.55323  0.45592  Biso   1.000  O
  C804     1.0000 0.10937  0.54883  0.47156  Biso   1.000  C
  C805     1.0000 0.10047  0.38473  0.30760  Biso   1.000  C
  O228     1.0000 0.08827  0.53283  0.48840  Biso   1.000  O
  C806     1.0000 0.15317  0.74283  0.29427  Biso   1.000  C
  C807     1.0000 0.17317  0.56873  0.47078  Biso   1.000  C
  O229     1.0000 0.14557  0.77703  0.30515  Biso   1.000  O
  O230     1.0000 0.09724  0.34035  0.31508  Biso   1.000  O
  O231     1.0000 0.11677  0.39983  0.28960  Biso   1.000  O
  O232     1.0000 0.17587  0.75693  0.27736  Biso   1.000  O
  C808     1.0000 0.27347  0.64693  0.46958  Biso   1.000  C
  C809     1.0000 0.29227  0.60703  0.46910  Biso   1.000  C
  C810     1.0000 0.21267  0.62633  0.46997  Biso   1.000  C
  H346     1.0000 0.19967  0.65293  0.46963  Biso   1.000  H
  C811     1.0000 0.25167  0.54763  0.47043  Biso   1.000  C
  H347     1.0000 0.26407  0.52053  0.47083  Biso   1.000  H
  C812     1.0000 0.19197  0.52923  0.47113  Biso   1.000  C
  H348     1.0000 0.16497  0.48983  0.47183  Biso   1.000  H
  Cd30     1.0000 0.66238  0.85240  0.78093  Biso   1.000  Cd
  O233     1.0000 0.68923  0.91847  0.75477  Biso   1.000  O
  O234     1.0000 0.68453  0.83567  0.74900  Biso   1.000  O
  C813     1.0000 0.69453  0.88457  0.74358  Biso   1.000  C
  C814     1.0000 0.72693  0.87227  0.68902  Biso   1.000  C
  C815     1.0000 0.70953  0.85897  0.70877  Biso   1.000  C
  H349     1.0000 0.69563  0.82117  0.71327  Biso   1.000  H
  C816     1.0000 0.73223  0.95677  0.71564  Biso   1.000  C
  H350     1.0000 0.73503  0.98507  0.72437  Biso   1.000  H
  C817     1.0000 0.74833  0.97017  0.69583  Biso   1.000  C
  H351     1.0000 0.76063  0.00777  0.69147  Biso   1.000  H
  C818     1.0000 0.71233  0.90097  0.72200  Biso   1.000  C
  C819     1.0000 0.72903  0.82997  0.67594  Biso   1.000  C
  C820     1.0000 0.75203  0.84647  0.65701  Biso   1.000  C
  C821     1.0000 0.76563  0.94537  0.66203  Biso   1.000  C
  C822     1.0000 0.78213  0.00067  0.65459  Biso   1.000  C
  H352     1.0000 0.78033  0.02777  0.66287  Biso   1.000  H
  C823     1.0000 0.74693  0.92967  0.68230  Biso   1.000  C
  C824     1.0000 0.76953  0.90437  0.64911  Biso   1.000  C
  C825     1.0000 0.76183  0.80817  0.64525  Biso   1.000  C
  H353     1.0000 0.77673  0.81897  0.63247  Biso   1.000  H
  C826     1.0000 0.80133  0.01617  0.63485  Biso   1.000  C
  C827     1.0000 0.78793  0.92127  0.62936  Biso   1.000  C
  H354     1.0000 0.78933  0.89487  0.62067  Biso   1.000  H
  C828     1.0000 0.80373  0.97577  0.62281  Biso   1.000  C
  H355     1.0000 0.81663  0.98587  0.60977  Biso   1.000  H
  C829     1.0000 0.74933  0.75417  0.65274  Biso   1.000  C
  C830     1.0000 0.72333  0.73677  0.67112  Biso   1.000  C
  H356     1.0000 0.71313  0.70007  0.67597  Biso   1.000  H
  C831     1.0000 0.71273  0.77337  0.68226  Biso   1.000  C
  H357     1.0000 0.69403  0.76047  0.69447  Biso   1.000  H
  O235     1.0000 0.75303  0.88657  0.78926  Biso   1.000  O
  C832     1.0000 0.77603  0.88217  0.80490  Biso   1.000  C
  C833     1.0000 0.76713  0.71807  0.64094  Biso   1.000  C
  O236     1.0000 0.75493  0.86617  0.82174  Biso   1.000  O
  C834     1.0000 0.81983  0.07617  0.62761  Biso   1.000  C
  C835     1.0000 0.83983  0.90207  0.80412  Biso   1.000  C
  O237     1.0000 0.81223  0.11037  0.63849  Biso   1.000  O
  O238     1.0000 0.76390  0.67369  0.64842  Biso   1.000  O
  O239     1.0000 0.78343  0.73317  0.62294  Biso   1.000  O
  O240     1.0000 0.84253  0.09027  0.61070  Biso   1.000  O
  C836     1.0000 0.94013  0.98027  0.80292  Biso   1.000  C
  C837     1.0000 0.95893  0.94037  0.80244  Biso   1.000  C
  C838     1.0000 0.87933  0.95967  0.80331  Biso   1.000  C
  H358     1.0000 0.86633  0.98627  0.80297  Biso   1.000  H
  C839     1.0000 0.91833  0.88097  0.80377  Biso   1.000  C
  H359     1.0000 0.93073  0.85387  0.80417  Biso   1.000  H
  C840     1.0000 0.85863  0.86257  0.80447  Biso   1.000  C
  H360     1.0000 0.83163  0.82317  0.80517  Biso   1.000  H
  Cd31     1.0000 0.85668  0.67095  0.11426  Biso   1.000  Cd
  O241     1.0000 0.89590  0.64410  0.08810  Biso   1.000  O
  O242     1.0000 0.81780  0.64880  0.08233  Biso   1.000  O
  C841     1.0000 0.85670  0.63880  0.07691  Biso   1.000  C
  C842     1.0000 0.81200  0.60640  0.02235  Biso   1.000  C
  C843     1.0000 0.81610  0.62380  0.04210  Biso   1.000  C
  H361     1.0000 0.79220  0.63770  0.04660  Biso   1.000  H
  C844     1.0000 0.89120  0.60110  0.04897  Biso   1.000  C
  H362     1.0000 0.91670  0.59830  0.05770  Biso   1.000  H
  C845     1.0000 0.88850  0.58500  0.02916  Biso   1.000  C
  H363     1.0000 0.91380  0.57270  0.02480  Biso   1.000  H
  C846     1.0000 0.85530  0.62100  0.05533  Biso   1.000  C
  C847     1.0000 0.76760  0.60430  0.00927  Biso   1.000  C
  C848     1.0000 0.76110  0.58130  0.99034  Biso   1.000  C
  C849     1.0000 0.84640  0.56770  0.99536  Biso   1.000  C
  C850     1.0000 0.88520  0.55120  0.98792  Biso   1.000  C
  H364     1.0000 0.91410  0.55300  0.99620  Biso   1.000  H
  C851     1.0000 0.84940  0.58640  0.01563  Biso   1.000  C
  C852     1.0000 0.80150  0.56380  0.98244  Biso   1.000  C
  C853     1.0000 0.71300  0.57150  0.97858  Biso   1.000  C
  H365     1.0000 0.70890  0.55660  0.96580  Biso   1.000  H
  C854     1.0000 0.88150  0.53200  0.96818  Biso   1.000  C
  C855     1.0000 0.80000  0.54540  0.96269  Biso   1.000  C
  H366     1.0000 0.77220  0.54400  0.95400  Biso   1.000  H
  C856     1.0000 0.83870  0.52960  0.95614  Biso   1.000  C
  H367     1.0000 0.83590  0.51670  0.94310  Biso   1.000  H
  C857     1.0000 0.67150  0.58400  0.98607  Biso   1.000  C
  C858     1.0000 0.68010  0.61000  0.00445  Biso   1.000  C
  H368     1.0000 0.65360  0.62020  0.00930  Biso   1.000  H
  C859     1.0000 0.72730  0.62060  0.01559  Biso   1.000  C
  H369     1.0000 0.73310  0.63930  0.02780  Biso   1.000  H
  O243     1.0000 0.80020  0.58030  0.12259  Biso   1.000  O
  C860     1.0000 0.77280  0.55730  0.13823  Biso   1.000  C
  C861     1.0000 0.61760  0.56620  0.97427  Biso   1.000  C
  O244     1.0000 0.77790  0.57840  0.15507  Biso   1.000  O
  C862     1.0000 0.92300  0.51350  0.96094  Biso   1.000  C
  C863     1.0000 0.72890  0.49350  0.13745  Biso   1.000  C
  O245     1.0000 0.96480  0.52110  0.97182  Biso   1.000  O
  O246     1.0000 0.57645  0.56943  0.98175  Biso   1.000  O
  O247     1.0000 0.61640  0.54990  0.95627  Biso   1.000  O
  O248     1.0000 0.91440  0.49080  0.94403  Biso   1.000  O
  C864     1.0000 0.70680  0.39320  0.13625  Biso   1.000  C
  C865     1.0000 0.64810  0.37440  0.13577  Biso   1.000  C
  C866     1.0000 0.74700  0.45400  0.13664  Biso   1.000  C
  H370     1.0000 0.78660  0.46700  0.13630  Biso   1.000  H
  C867     1.0000 0.62930  0.41500  0.13710  Biso   1.000  C
  H371     1.0000 0.58980  0.40260  0.13750  Biso   1.000  H
  C868     1.0000 0.67060  0.47470  0.13780  Biso   1.000  C
  H372     1.0000 0.65820  0.50170  0.13850  Biso   1.000  H
  Cd32     1.0000 0.52335  0.00428  0.44760  Biso   1.000  Cd
  O249     1.0000 0.56257  0.97743  0.42143  Biso   1.000  O
  O250     1.0000 0.48447  0.98213  0.41566  Biso   1.000  O
  C869     1.0000 0.52337  0.97213  0.41024  Biso   1.000  C
  C870     1.0000 0.47867  0.93973  0.35568  Biso   1.000  C
  C871     1.0000 0.48277  0.95713  0.37543  Biso   1.000  C
  H373     1.0000 0.45887  0.97103  0.37993  Biso   1.000  H
  C872     1.0000 0.55787  0.93443  0.38230  Biso   1.000  C
  H374     1.0000 0.58337  0.93163  0.39103  Biso   1.000  H
  C873     1.0000 0.55517  0.91833  0.36249  Biso   1.000  C
  H375     1.0000 0.58047  0.90603  0.35813  Biso   1.000  H
  C874     1.0000 0.52197  0.95433  0.38866  Biso   1.000  C
  C875     1.0000 0.43427  0.93763  0.34260  Biso   1.000  C
  C876     1.0000 0.42777  0.91463  0.32367  Biso   1.000  C
  C877     1.0000 0.51307  0.90103  0.32869  Biso   1.000  C
  C878     1.0000 0.55187  0.88453  0.32125  Biso   1.000  C
  H376     1.0000 0.58077  0.88633  0.32953  Biso   1.000  H
  C879     1.0000 0.51607  0.91973  0.34896  Biso   1.000  C
  C880     1.0000 0.46817  0.89713  0.31577  Biso   1.000  C
  C881     1.0000 0.37967  0.90483  0.31191  Biso   1.000  C
  H377     1.0000 0.37557  0.88993  0.29913  Biso   1.000  H
  C882     1.0000 0.54817  0.86533  0.30151  Biso   1.000  C
  C883     1.0000 0.46667  0.87873  0.29602  Biso   1.000  C
  H378     1.0000 0.43887  0.87733  0.28733  Biso   1.000  H
  C884     1.0000 0.50537  0.86293  0.28947  Biso   1.000  C
  H379     1.0000 0.50257  0.85003  0.27643  Biso   1.000  H
  C885     1.0000 0.33817  0.91733  0.31940  Biso   1.000  C
  C886     1.0000 0.34677  0.94333  0.33778  Biso   1.000  C
  H380     1.0000 0.32027  0.95353  0.34263  Biso   1.000  H
  C887     1.0000 0.39397  0.95393  0.34892  Biso   1.000  C
  H381     1.0000 0.39977  0.97263  0.36113  Biso   1.000  H
  O251     1.0000 0.46687  0.91363  0.45592  Biso   1.000  O
  C888     1.0000 0.43947  0.89063  0.47156  Biso   1.000  C
  C889     1.0000 0.28427  0.89953  0.30760  Biso   1.000  C
  O252     1.0000 0.44457  0.91173  0.48840  Biso   1.000  O
  C890     1.0000 0.58967  0.84683  0.29427  Biso   1.000  C
  C891     1.0000 0.39557  0.82683  0.47078  Biso   1.000  C
  O253     1.0000 0.63147  0.85443  0.30515  Biso   1.000  O
  O254     1.0000 0.24312  0.90276  0.31508  Biso   1.000  O
  O255     1.0000 0.28307  0.88323  0.28960  Biso   1.000  O
  O256     1.0000 0.58107  0.82413  0.27736  Biso   1.000  O
  C892     1.0000 0.37347  0.72653  0.46958  Biso   1.000  C
  C893     1.0000 0.31477  0.70773  0.46910  Biso   1.000  C
  C894     1.0000 0.41367  0.78733  0.46997  Biso   1.000  C
  H382     1.0000 0.45327  0.80033  0.46963  Biso   1.000  H
  C895     1.0000 0.29597  0.74833  0.47043  Biso   1.000  C
  H383     1.0000 0.25647  0.73593  0.47083  Biso   1.000  H
  C896     1.0000 0.33727  0.80803  0.47113  Biso   1.000  C
  H384     1.0000 0.32487  0.83503  0.47183  Biso   1.000  H
  Cd33     1.0000 0.19001  0.33762  0.78093  Biso   1.000  Cd
  O257     1.0000 0.22923  0.31077  0.75477  Biso   1.000  O
  O258     1.0000 0.15113  0.31547  0.74900  Biso   1.000  O
  C897     1.0000 0.19003  0.30547  0.74358  Biso   1.000  C
  C898     1.0000 0.14533  0.27307  0.68902  Biso   1.000  C
  C899     1.0000 0.14943  0.29047  0.70877  Biso   1.000  C
  H385     1.0000 0.12553  0.30437  0.71327  Biso   1.000  H
  C900     1.0000 0.22453  0.26777  0.71564  Biso   1.000  C
  H386     1.0000 0.25003  0.26497  0.72437  Biso   1.000  H
  C901     1.0000 0.22183  0.25167  0.69583  Biso   1.000  C
  H387     1.0000 0.24713  0.23937  0.69147  Biso   1.000  H
  C902     1.0000 0.18863  0.28767  0.72200  Biso   1.000  C
  C903     1.0000 0.10093  0.27097  0.67594  Biso   1.000  C
  C904     1.0000 0.09443  0.24797  0.65701  Biso   1.000  C
  C905     1.0000 0.17973  0.23437  0.66203  Biso   1.000  C
  C906     1.0000 0.21853  0.21787  0.65459  Biso   1.000  C
  H388     1.0000 0.24743  0.21967  0.66287  Biso   1.000  H
  C907     1.0000 0.18273  0.25307  0.68230  Biso   1.000  C
  C908     1.0000 0.13483  0.23047  0.64911  Biso   1.000  C
  C909     1.0000 0.04633  0.23817  0.64525  Biso   1.000  C
  H389     1.0000 0.04223  0.22327  0.63247  Biso   1.000  H
  C910     1.0000 0.21483  0.19867  0.63485  Biso   1.000  C
  C911     1.0000 0.13333  0.21207  0.62936  Biso   1.000  C
  H390     1.0000 0.10553  0.21067  0.62067  Biso   1.000  H
  C912     1.0000 0.17203  0.19627  0.62281  Biso   1.000  C
  H391     1.0000 0.16923  0.18337  0.60977  Biso   1.000  H
  C913     1.0000 0.00483  0.25067  0.65274  Biso   1.000  C
  C914     1.0000 0.01343  0.27667  0.67112  Biso   1.000  C
  H392     1.0000 0.98693  0.28687  0.67597  Biso   1.000  H
  C915     1.0000 0.06063  0.28727  0.68226  Biso   1.000  C
  H393     1.0000 0.06643  0.30597  0.69447  Biso   1.000  H
  O259     1.0000 0.13353  0.24697  0.78926  Biso   1.000  O
  C916     1.0000 0.10613  0.22397  0.80490  Biso   1.000  C
  C917     1.0000 0.95093  0.23287  0.64094  Biso   1.000  C
  O260     1.0000 0.11123  0.24507  0.82174  Biso   1.000  O
  C918     1.0000 0.25633  0.18017  0.62761  Biso   1.000  C
  C919     1.0000 0.06223  0.16017  0.80412  Biso   1.000  C
  O261     1.0000 0.29813  0.18777  0.63849  Biso   1.000  O
  O262     1.0000 0.90978  0.23610  0.64842  Biso   1.000  O
  O263     1.0000 0.94973  0.21657  0.62294  Biso   1.000  O
  O264     1.0000 0.24773  0.15747  0.61070  Biso   1.000  O
  C920     1.0000 0.04013  0.05987  0.80292  Biso   1.000  C
  C921     1.0000 0.98143  0.04107  0.80244  Biso   1.000  C
  C922     1.0000 0.08033  0.12067  0.80331  Biso   1.000  C
  H394     1.0000 0.11993  0.13367  0.80297  Biso   1.000  H
  C923     1.0000 0.96263  0.08167  0.80377  Biso   1.000  C
  H395     1.0000 0.92313  0.06927  0.80417  Biso   1.000  H
  C924     1.0000 0.00393  0.14137  0.80447  Biso   1.000  C
  H396     1.0000 0.99153  0.16837  0.80517  Biso   1.000  H
  Cd34     1.0000 0.81427  0.14332  0.11426  Biso   1.000  Cd
  O265     1.0000 0.74820  0.10410  0.08810  Biso   1.000  O
  O266     1.0000 0.83100  0.18220  0.08233  Biso   1.000  O
  C925     1.0000 0.78210  0.14330  0.07691  Biso   1.000  C
  C926     1.0000 0.79440  0.18800  0.02235  Biso   1.000  C
  C927     1.0000 0.80770  0.18390  0.04210  Biso   1.000  C
  H397     1.0000 0.84550  0.20780  0.04660  Biso   1.000  H
  C928     1.0000 0.70990  0.10880  0.04897  Biso   1.000  C
  H398     1.0000 0.68160  0.08330  0.05770  Biso   1.000  H
  C929     1.0000 0.69650  0.11150  0.02916  Biso   1.000  C
  H399     1.0000 0.65890  0.08620  0.02480  Biso   1.000  H
  C930     1.0000 0.76570  0.14470  0.05533  Biso   1.000  C
  C931     1.0000 0.83670  0.23240  0.00927  Biso   1.000  C
  C932     1.0000 0.82020  0.23890  0.99034  Biso   1.000  C
  C933     1.0000 0.72130  0.15360  0.99536  Biso   1.000  C
  C934     1.0000 0.66600  0.11480  0.98792  Biso   1.000  C
  H400     1.0000 0.63890  0.08590  0.99620  Biso   1.000  H
  C935     1.0000 0.73700  0.15060  0.01563  Biso   1.000  C
  C936     1.0000 0.76230  0.19850  0.98244  Biso   1.000  C
  C937     1.0000 0.85850  0.28700  0.97858  Biso   1.000  C
  H401     1.0000 0.84770  0.29110  0.96580  Biso   1.000  H
  C938     1.0000 0.65050  0.11850  0.96818  Biso   1.000  C
  C939     1.0000 0.74540  0.20000  0.96269  Biso   1.000  C
  H402     1.0000 0.77180  0.22780  0.95400  Biso   1.000  H
  C940     1.0000 0.69090  0.16130  0.95614  Biso   1.000  C
  H403     1.0000 0.68080  0.16410  0.94310  Biso   1.000  H
  C941     1.0000 0.91250  0.32850  0.98607  Biso   1.000  C
  C942     1.0000 0.92990  0.31990  0.00445  Biso   1.000  C
  H404     1.0000 0.96660  0.34640  0.00930  Biso   1.000  H
  C943     1.0000 0.89330  0.27270  0.01559  Biso   1.000  C
  H405     1.0000 0.90620  0.26690  0.02780  Biso   1.000  H
  O267     1.0000 0.78010  0.19980  0.12259  Biso   1.000  O
  C944     1.0000 0.78450  0.22720  0.13823  Biso   1.000  C
  C945     1.0000 0.94860  0.38240  0.97427  Biso   1.000  C
  O268     1.0000 0.80050  0.22210  0.15507  Biso   1.000  O
  C946     1.0000 0.59050  0.07700  0.96094  Biso   1.000  C
  C947     1.0000 0.76460  0.27110  0.13745  Biso   1.000  C
  O269     1.0000 0.55630  0.03520  0.97182  Biso   1.000  O
  O270     1.0000 0.99298  0.42355  0.98175  Biso   1.000  O
  O271     1.0000 0.93350  0.38360  0.95627  Biso   1.000  O
  O272     1.0000 0.57640  0.08560  0.94403  Biso   1.000  O
  C948     1.0000 0.68640  0.29320  0.13625  Biso   1.000  C
  C949     1.0000 0.72630  0.35190  0.13577  Biso   1.000  C
  C950     1.0000 0.70700  0.25300  0.13664  Biso   1.000  C
  H406     1.0000 0.68040  0.21340  0.13630  Biso   1.000  H
  C951     1.0000 0.78570  0.37070  0.13710  Biso   1.000  C
  H407     1.0000 0.81280  0.41020  0.13750  Biso   1.000  H
  C952     1.0000 0.80410  0.32940  0.13780  Biso   1.000  C
  H408     1.0000 0.84350  0.34180  0.13850  Biso   1.000  H
  Cd35     1.0000 0.48094  0.47665  0.44760  Biso   1.000  Cd
  O273     1.0000 0.41487  0.43743  0.42143  Biso   1.000  O
  O274     1.0000 0.49767  0.51553  0.41566  Biso   1.000  O
  C953     1.0000 0.44877  0.47663  0.41024  Biso   1.000  C
  C954     1.0000 0.46107  0.52133  0.35568  Biso   1.000  C
  C955     1.0000 0.47437  0.51723  0.37543  Biso   1.000  C
  H409     1.0000 0.51217  0.54113  0.37993  Biso   1.000  H
  C956     1.0000 0.37657  0.44213  0.38230  Biso   1.000  C
  H410     1.0000 0.34827  0.41663  0.39103  Biso   1.000  H
  C957     1.0000 0.36317  0.44483  0.36249  Biso   1.000  C
  H411     1.0000 0.32557  0.41953  0.35813  Biso   1.000  H
  C958     1.0000 0.43237  0.47803  0.38866  Biso   1.000  C
  C959     1.0000 0.50337  0.56573  0.34260  Biso   1.000  C
  C960     1.0000 0.48687  0.57223  0.32367  Biso   1.000  C
  C961     1.0000 0.38797  0.48693  0.32869  Biso   1.000  C
  C962     1.0000 0.33267  0.44813  0.32125  Biso   1.000  C
  H412     1.0000 0.30557  0.41923  0.32953  Biso   1.000  H
  C963     1.0000 0.40367  0.48393  0.34896  Biso   1.000  C
  C964     1.0000 0.42897  0.53183  0.31577  Biso   1.000  C
  C965     1.0000 0.52517  0.62033  0.31191  Biso   1.000  C
  H413     1.0000 0.51437  0.62443  0.29913  Biso   1.000  H
  C966     1.0000 0.31717  0.45183  0.30151  Biso   1.000  C
  C967     1.0000 0.41207  0.53333  0.29602  Biso   1.000  C
  H414     1.0000 0.43847  0.56113  0.28733  Biso   1.000  H
  C968     1.0000 0.35757  0.49463  0.28947  Biso   1.000  C
  H415     1.0000 0.34747  0.49743  0.27643  Biso   1.000  H
  C969     1.0000 0.57917  0.66183  0.31940  Biso   1.000  C
  C970     1.0000 0.59657  0.65323  0.33778  Biso   1.000  C
  H416     1.0000 0.63327  0.67973  0.34263  Biso   1.000  H
  C971     1.0000 0.55997  0.60603  0.34892  Biso   1.000  C
  H417     1.0000 0.57287  0.60023  0.36113  Biso   1.000  H
  O275     1.0000 0.44677  0.53313  0.45592  Biso   1.000  O
  C972     1.0000 0.45117  0.56053  0.47156  Biso   1.000  C
  C973     1.0000 0.61527  0.71573  0.30760  Biso   1.000  C
  O276     1.0000 0.46717  0.55543  0.48840  Biso   1.000  O
  C974     1.0000 0.25717  0.41033  0.29427  Biso   1.000  C
  C975     1.0000 0.43127  0.60443  0.47078  Biso   1.000  C
  O277     1.0000 0.22297  0.36853  0.30515  Biso   1.000  O
  O278     1.0000 0.65965  0.75688  0.31508  Biso   1.000  O
  O279     1.0000 0.60017  0.71693  0.28960  Biso   1.000  O
  O280     1.0000 0.24307  0.41893  0.27736  Biso   1.000  O
  C976     1.0000 0.35307  0.62653  0.46958  Biso   1.000  C
  C977     1.0000 0.39297  0.68523  0.46910  Biso   1.000  C
  C978     1.0000 0.37367  0.58633  0.46997  Biso   1.000  C
  H418     1.0000 0.34707  0.54673  0.46963  Biso   1.000  H
  C979     1.0000 0.45237  0.70403  0.47043  Biso   1.000  C
  H419     1.0000 0.47947  0.74353  0.47083  Biso   1.000  H
  C980     1.0000 0.47077  0.66273  0.47113  Biso   1.000  C
  H420     1.0000 0.51017  0.67513  0.47183  Biso   1.000  H
  Cd36     1.0000 0.14760  0.80999  0.78093  Biso   1.000  Cd
  O281     1.0000 0.08153  0.77077  0.75477  Biso   1.000  O
  O282     1.0000 0.16433  0.84887  0.74900  Biso   1.000  O
  C981     1.0000 0.11543  0.80997  0.74358  Biso   1.000  C
  C982     1.0000 0.12773  0.85467  0.68902  Biso   1.000  C
  C983     1.0000 0.14103  0.85057  0.70877  Biso   1.000  C
  H421     1.0000 0.17883  0.87447  0.71327  Biso   1.000  H
  C984     1.0000 0.04323  0.77547  0.71564  Biso   1.000  C
  H422     1.0000 0.01493  0.74997  0.72437  Biso   1.000  H
  C985     1.0000 0.02983  0.77817  0.69583  Biso   1.000  C
  H423     1.0000 0.99223  0.75287  0.69147  Biso   1.000  H
  C986     1.0000 0.09903  0.81137  0.72200  Biso   1.000  C
  C987     1.0000 0.17003  0.89907  0.67594  Biso   1.000  C
  C988     1.0000 0.15353  0.90557  0.65701  Biso   1.000  C
  C989     1.0000 0.05463  0.82027  0.66203  Biso   1.000  C
  C990     1.0000 0.99933  0.78147  0.65459  Biso   1.000  C
  H424     1.0000 0.97223  0.75257  0.66287  Biso   1.000  H
  C991     1.0000 0.07033  0.81727  0.68230  Biso   1.000  C
  C992     1.0000 0.09563  0.86517  0.64911  Biso   1.000  C
  C993     1.0000 0.19183  0.95367  0.64525  Biso   1.000  C
  H425     1.0000 0.18103  0.95777  0.63247  Biso   1.000  H
  C994     1.0000 0.98383  0.78517  0.63485  Biso   1.000  C
  C995     1.0000 0.07873  0.86667  0.62936  Biso   1.000  C
  H426     1.0000 0.10513  0.89447  0.62067  Biso   1.000  H
  C996     1.0000 0.02423  0.82797  0.62281  Biso   1.000  C
  H427     1.0000 0.01413  0.83077  0.60977  Biso   1.000  H
  C997     1.0000 0.24583  0.99517  0.65274  Biso   1.000  C
  C998     1.0000 0.26323  0.98657  0.67112  Biso   1.000  C
  H428     1.0000 0.29993  0.01307  0.67597  Biso   1.000  H
  C999     1.0000 0.22663  0.93937  0.68226  Biso   1.000  C
  H429     1.0000 0.23953  0.93357  0.69447  Biso   1.000  H
  O283     1.0000 0.11343  0.86647  0.78926  Biso   1.000  O
  C1000    1.0000 0.11783  0.89387  0.80490  Biso   1.000  C
  C1001    1.0000 0.28193  0.04907  0.64094  Biso   1.000  C
  O284     1.0000 0.13383  0.88877  0.82174  Biso   1.000  O
  C1002    1.0000 0.92383  0.74367  0.62761  Biso   1.000  C
  C1003    1.0000 0.09793  0.93777  0.80412  Biso   1.000  C
  O285     1.0000 0.88963  0.70187  0.63849  Biso   1.000  O
  O286     1.0000 0.32631  0.09022  0.64842  Biso   1.000  O
  O287     1.0000 0.26683  0.05027  0.62294  Biso   1.000  O
  O288     1.0000 0.90973  0.75227  0.61070  Biso   1.000  O
  C1004    1.0000 0.01973  0.95987  0.80292  Biso   1.000  C
  C1005    1.0000 0.05963  0.01857  0.80244  Biso   1.000  C
  C1006    1.0000 0.04033  0.91967  0.80331  Biso   1.000  C
  H430     1.0000 0.01373  0.88007  0.80297  Biso   1.000  H
  C1007    1.0000 0.11903  0.03737  0.80377  Biso   1.000  C
  H431     1.0000 0.14613  0.07687  0.80417  Biso   1.000  H
  C1008    1.0000 0.13743  0.99607  0.80447  Biso   1.000  C
  H432     1.0000 0.17683  0.00847  0.80517  Biso   1.000  H
  Cd37     1.0000 0.83333  0.66667  0.66667  Biso   1.000  Cd
  Cd38     1.0000 0.50000  0.00000  0.00000  Biso   1.000  Cd
  Cd39     1.0000 0.33333  0.16667  0.66667  Biso   1.000  Cd
  Cd40     1.0000 0.00000  0.50000  0.00000  Biso   1.000  Cd
  Cd41     1.0000 0.83333  0.16667  0.66667  Biso   1.000  Cd
  Cd42     1.0000 0.50000  0.50000  0.00000  Biso   1.000  Cd
  Cd43     1.0000 0.66667  0.83333  0.83333  Biso   1.000  Cd
  Cd44     1.0000 0.16667  0.33333  0.83333  Biso   1.000  Cd
  Cd45     1.0000 0.16667  0.83333  0.83333  Biso   1.000  Cd
  Cd46     1.0000 0.16667  0.33333  0.33333  Biso   1.000  Cd
  Cd47     1.0000 0.66667  0.83333  0.33333  Biso   1.000  Cd
  Cd48     1.0000 0.16667  0.83333  0.33333  Biso   1.000  Cd
  Cd49     1.0000 0.33333  0.16667  0.16667  Biso   1.000  Cd
  Cd50     1.0000 0.00000  0.50000  0.50000  Biso   1.000  Cd
  Cd51     1.0000 0.83333  0.66667  0.16667  Biso   1.000  Cd
  Cd52     1.0000 0.50000  0.00000  0.50000  Biso   1.000  Cd
  Cd53     1.0000 0.83333  0.16667  0.16667  Biso   1.000  Cd
  Cd54     1.0000 0.50000  0.50000  0.50000  Biso   1.000  Cd
