data_image0
_cell_length_a       30.4589
_cell_length_b       30.4589
_cell_length_c       44.287
_cell_angle_alpha    90
_cell_angle_beta     90
_cell_angle_gamma    90

_symmetry_space_group_name_H-M    "P 1"
_symmetry_int_tables_number       1

loop_
  _symmetry_equiv_pos_as_xyz
  'x, y, z'

loop_
  _atom_site_label
  _atom_site_occupancy
  _atom_site_fract_x
  _atom_site_fract_y
  _atom_site_fract_z
  _atom_site_thermal_displace_type
  _atom_site_B_iso_or_equiv
  _atom_site_type_symbol
  Zn1      1.0000 0.02166  0.24479  0.13005  Biso   1.000  Zn
  Zn2      1.0000 0.01255  0.15081  0.17314  Biso   1.000  Zn
  C1       1.0000 0.78040  0.25000  0.09600  Biso   1.000  C
  H1       1.0000 0.79300  0.23660  0.11280  Biso   1.000  H
  C2       1.0000 0.78950  0.24210  0.06760  Biso   1.000  C
  C3       1.0000 0.82430  0.20880  0.05160  Biso   1.000  C
  C4       1.0000 0.83270  0.19540  0.01960  Biso   1.000  C
  C5       1.0000 0.86250  0.16420  0.01520  Biso   1.000  C
  H2       1.0000 0.87850  0.14740  0.02890  Biso   1.000  H
  O1       1.0000 0.79400  0.06640  0.11600  Biso   1.000  O
  O2       1.0000 0.84650  0.06450  0.14890  Biso   1.000  O
  O3       1.0000 0.96870  0.16710  0.14400  Biso   1.000  O
  O4       1.0000 0.97350  0.22260  0.11230  Biso   1.000  O
  C6       1.0000 0.95150  0.19320  0.12060  Biso   1.000  C
  C7       1.0000 0.91110  0.17270  0.11170  Biso   1.000  C
  C8       1.0000 0.88900  0.13750  0.12330  Biso   1.000  C
  H3       1.0000 0.90240  0.12210  0.13890  Biso   1.000  H
  C9       1.0000 0.84950  0.12330  0.11390  Biso   1.000  C
  C10      1.0000 0.82690  0.08820  0.12660  Biso   1.000  C
  C11      1.0000 0.82580  0.14670  0.09210  Biso   1.000  C
  H4       1.0000 0.79720  0.13870  0.08730  Biso   1.000  H
  C12      1.0000 0.84560  0.18200  0.07790  Biso   1.000  C
  C13      1.0000 0.88640  0.19650  0.08970  Biso   1.000  C
  H5       1.0000 0.89770  0.22300  0.08270  Biso   1.000  H
  O5       1.0000 0.03280  0.29820  0.11060  Biso   1.000  O
  O6       1.0000 0.09370  0.29230  0.14090  Biso   1.000  O
  C14      1.0000 0.07020  0.31420  0.12120  Biso   1.000  C
  C15      1.0000 0.08940  0.35830  0.11280  Biso   1.000  C
  C16      1.0000 0.06610  0.38040  0.09210  Biso   1.000  C
  H6       1.0000 0.03940  0.36890  0.08570  Biso   1.000  H
  C17      1.0000 0.04310  0.41030  0.24950  Biso   1.000  C
  C18      1.0000 0.08230  0.38750  0.25200  Biso   1.000  C
  H7       1.0000 0.08620  0.35720  0.25330  Biso   1.000  H
  C19      1.0000 0.00430  0.26650  0.22300  Biso   1.000  C
  C20      1.0000 0.00260  0.31280  0.22600  Biso   1.000  C
  H8       1.0000 0.00340  0.32860  0.20800  Biso   1.000  H
  O7       1.0000 0.00520  0.26690  0.16730  Biso   1.000  O
  O8       1.0000 0.01380  0.19680  0.19720  Biso   1.000  O
  C21      1.0000 0.01240  0.24200  0.18980  Biso   1.000  C
  Zn3      1.0000 0.52166  0.74479  0.63005  Biso   1.000  Zn
  Zn4      1.0000 0.51255  0.65081  0.67314  Biso   1.000  Zn
  C22      1.0000 0.28040  0.75000  0.59600  Biso   1.000  C
  H9       1.0000 0.29300  0.73660  0.61280  Biso   1.000  H
  C23      1.0000 0.28950  0.74210  0.56760  Biso   1.000  C
  C24      1.0000 0.32430  0.70880  0.55160  Biso   1.000  C
  C25      1.0000 0.33270  0.69540  0.51960  Biso   1.000  C
  C26      1.0000 0.36250  0.66420  0.51520  Biso   1.000  C
  H10      1.0000 0.37850  0.64740  0.52890  Biso   1.000  H
  O9       1.0000 0.29400  0.56640  0.61600  Biso   1.000  O
  O10      1.0000 0.34650  0.56450  0.64890  Biso   1.000  O
  O11      1.0000 0.46870  0.66710  0.64400  Biso   1.000  O
  O12      1.0000 0.47350  0.72260  0.61230  Biso   1.000  O
  C27      1.0000 0.45150  0.69320  0.62060  Biso   1.000  C
  C28      1.0000 0.41110  0.67270  0.61170  Biso   1.000  C
  C29      1.0000 0.38900  0.63750  0.62330  Biso   1.000  C
  H11      1.0000 0.40240  0.62210  0.63890  Biso   1.000  H
  C30      1.0000 0.34950  0.62330  0.61390  Biso   1.000  C
  C31      1.0000 0.32690  0.58820  0.62660  Biso   1.000  C
  C32      1.0000 0.32580  0.64670  0.59210  Biso   1.000  C
  H12      1.0000 0.29720  0.63870  0.58730  Biso   1.000  H
  C33      1.0000 0.34560  0.68200  0.57790  Biso   1.000  C
  C34      1.0000 0.38640  0.69650  0.58970  Biso   1.000  C
  H13      1.0000 0.39770  0.72300  0.58270  Biso   1.000  H
  O13      1.0000 0.53280  0.79820  0.61060  Biso   1.000  O
  O14      1.0000 0.59370  0.79230  0.64090  Biso   1.000  O
  C35      1.0000 0.57020  0.81420  0.62120  Biso   1.000  C
  C36      1.0000 0.58940  0.85830  0.61280  Biso   1.000  C
  C37      1.0000 0.56610  0.88040  0.59210  Biso   1.000  C
  H14      1.0000 0.53940  0.86890  0.58570  Biso   1.000  H
  C38      1.0000 0.54310  0.91030  0.74950  Biso   1.000  C
  C39      1.0000 0.58230  0.88750  0.75200  Biso   1.000  C
  H15      1.0000 0.58620  0.85720  0.75330  Biso   1.000  H
  C40      1.0000 0.50430  0.76650  0.72300  Biso   1.000  C
  C41      1.0000 0.50260  0.81280  0.72600  Biso   1.000  C
  H16      1.0000 0.50340  0.82860  0.70800  Biso   1.000  H
  O15      1.0000 0.50520  0.76690  0.66730  Biso   1.000  O
  O16      1.0000 0.51380  0.69680  0.69720  Biso   1.000  O
  C42      1.0000 0.51240  0.74200  0.68980  Biso   1.000  C
  Zn5      1.0000 0.97834  0.75521  0.13005  Biso   1.000  Zn
  Zn6      1.0000 0.98745  0.84919  0.17314  Biso   1.000  Zn
  C43      1.0000 0.21960  0.75000  0.09600  Biso   1.000  C
  H17      1.0000 0.20700  0.76340  0.11280  Biso   1.000  H
  C44      1.0000 0.21050  0.75790  0.06760  Biso   1.000  C
  C45      1.0000 0.17570  0.79120  0.05160  Biso   1.000  C
  C46      1.0000 0.16730  0.80460  0.01960  Biso   1.000  C
  C47      1.0000 0.13750  0.83580  0.01520  Biso   1.000  C
  H18      1.0000 0.12150  0.85260  0.02890  Biso   1.000  H
  O17      1.0000 0.20600  0.93360  0.11600  Biso   1.000  O
  O18      1.0000 0.15350  0.93550  0.14890  Biso   1.000  O
  O19      1.0000 0.03130  0.83290  0.14400  Biso   1.000  O
  O20      1.0000 0.02650  0.77740  0.11230  Biso   1.000  O
  C48      1.0000 0.04850  0.80680  0.12060  Biso   1.000  C
  C49      1.0000 0.08890  0.82730  0.11170  Biso   1.000  C
  C50      1.0000 0.11100  0.86250  0.12330  Biso   1.000  C
  H19      1.0000 0.09760  0.87790  0.13890  Biso   1.000  H
  C51      1.0000 0.15050  0.87670  0.11390  Biso   1.000  C
  C52      1.0000 0.17310  0.91180  0.12660  Biso   1.000  C
  C53      1.0000 0.17420  0.85330  0.09210  Biso   1.000  C
  H20      1.0000 0.20280  0.86130  0.08730  Biso   1.000  H
  C54      1.0000 0.15440  0.81800  0.07790  Biso   1.000  C
  C55      1.0000 0.11360  0.80350  0.08970  Biso   1.000  C
  H21      1.0000 0.10230  0.77700  0.08270  Biso   1.000  H
  O21      1.0000 0.96720  0.70180  0.11060  Biso   1.000  O
  O22      1.0000 0.90630  0.70770  0.14090  Biso   1.000  O
  C56      1.0000 0.92980  0.68580  0.12120  Biso   1.000  C
  C57      1.0000 0.91060  0.64170  0.11280  Biso   1.000  C
  C58      1.0000 0.93390  0.61960  0.09210  Biso   1.000  C
  H22      1.0000 0.96060  0.63110  0.08570  Biso   1.000  H
  C59      1.0000 0.95690  0.58970  0.24950  Biso   1.000  C
  C60      1.0000 0.91770  0.61250  0.25200  Biso   1.000  C
  H23      1.0000 0.91380  0.64280  0.25330  Biso   1.000  H
  C61      1.0000 0.99570  0.73350  0.22300  Biso   1.000  C
  C62      1.0000 0.99740  0.68720  0.22600  Biso   1.000  C
  H24      1.0000 0.99660  0.67140  0.20800  Biso   1.000  H
  O23      1.0000 0.99480  0.73310  0.16730  Biso   1.000  O
  O24      1.0000 0.98620  0.80320  0.19720  Biso   1.000  O
  C63      1.0000 0.98760  0.75800  0.18980  Biso   1.000  C
  Zn7      1.0000 0.47834  0.25521  0.63005  Biso   1.000  Zn
  Zn8      1.0000 0.48745  0.34919  0.67314  Biso   1.000  Zn
  C64      1.0000 0.71960  0.25000  0.59600  Biso   1.000  C
  H25      1.0000 0.70700  0.26340  0.61280  Biso   1.000  H
  C65      1.0000 0.71050  0.25790  0.56760  Biso   1.000  C
  C66      1.0000 0.67570  0.29120  0.55160  Biso   1.000  C
  C67      1.0000 0.66730  0.30460  0.51960  Biso   1.000  C
  C68      1.0000 0.63750  0.33580  0.51520  Biso   1.000  C
  H26      1.0000 0.62150  0.35260  0.52890  Biso   1.000  H
  O25      1.0000 0.70600  0.43360  0.61600  Biso   1.000  O
  O26      1.0000 0.65350  0.43550  0.64890  Biso   1.000  O
  O27      1.0000 0.53130  0.33290  0.64400  Biso   1.000  O
  O28      1.0000 0.52650  0.27740  0.61230  Biso   1.000  O
  C69      1.0000 0.54850  0.30680  0.62060  Biso   1.000  C
  C70      1.0000 0.58890  0.32730  0.61170  Biso   1.000  C
  C71      1.0000 0.61100  0.36250  0.62330  Biso   1.000  C
  H27      1.0000 0.59760  0.37790  0.63890  Biso   1.000  H
  C72      1.0000 0.65050  0.37670  0.61390  Biso   1.000  C
  C73      1.0000 0.67310  0.41180  0.62660  Biso   1.000  C
  C74      1.0000 0.67420  0.35330  0.59210  Biso   1.000  C
  H28      1.0000 0.70280  0.36130  0.58730  Biso   1.000  H
  C75      1.0000 0.65440  0.31800  0.57790  Biso   1.000  C
  C76      1.0000 0.61360  0.30350  0.58970  Biso   1.000  C
  H29      1.0000 0.60230  0.27700  0.58270  Biso   1.000  H
  O29      1.0000 0.46720  0.20180  0.61060  Biso   1.000  O
  O30      1.0000 0.40630  0.20770  0.64090  Biso   1.000  O
  C77      1.0000 0.42980  0.18580  0.62120  Biso   1.000  C
  C78      1.0000 0.41060  0.14170  0.61280  Biso   1.000  C
  C79      1.0000 0.43390  0.11960  0.59210  Biso   1.000  C
  H30      1.0000 0.46060  0.13110  0.58570  Biso   1.000  H
  C80      1.0000 0.45690  0.08970  0.74950  Biso   1.000  C
  C81      1.0000 0.41770  0.11250  0.75200  Biso   1.000  C
  H31      1.0000 0.41380  0.14280  0.75330  Biso   1.000  H
  C82      1.0000 0.49570  0.23350  0.72300  Biso   1.000  C
  C83      1.0000 0.49740  0.18720  0.72600  Biso   1.000  C
  H32      1.0000 0.49660  0.17140  0.70800  Biso   1.000  H
  O31      1.0000 0.49480  0.23310  0.66730  Biso   1.000  O
  O32      1.0000 0.48620  0.30320  0.69720  Biso   1.000  O
  C84      1.0000 0.48760  0.25800  0.68980  Biso   1.000  C
  Zn9      1.0000 0.75521  0.02166  0.13005  Biso   1.000  Zn
  Zn10     1.0000 0.84919  0.01255  0.17314  Biso   1.000  Zn
  C85      1.0000 0.75000  0.78040  0.09600  Biso   1.000  C
  H33      1.0000 0.76340  0.79300  0.11280  Biso   1.000  H
  C86      1.0000 0.75790  0.78950  0.06760  Biso   1.000  C
  C87      1.0000 0.79120  0.82430  0.05160  Biso   1.000  C
  C88      1.0000 0.80460  0.83270  0.01960  Biso   1.000  C
  C89      1.0000 0.83580  0.86250  0.01520  Biso   1.000  C
  H34      1.0000 0.85260  0.87850  0.02890  Biso   1.000  H
  O33      1.0000 0.93360  0.79400  0.11600  Biso   1.000  O
  O34      1.0000 0.93550  0.84650  0.14890  Biso   1.000  O
  O35      1.0000 0.83290  0.96870  0.14400  Biso   1.000  O
  O36      1.0000 0.77740  0.97350  0.11230  Biso   1.000  O
  C90      1.0000 0.80680  0.95150  0.12060  Biso   1.000  C
  C91      1.0000 0.82730  0.91110  0.11170  Biso   1.000  C
  C92      1.0000 0.86250  0.88900  0.12330  Biso   1.000  C
  H35      1.0000 0.87790  0.90240  0.13890  Biso   1.000  H
  C93      1.0000 0.87670  0.84950  0.11390  Biso   1.000  C
  C94      1.0000 0.91180  0.82690  0.12660  Biso   1.000  C
  C95      1.0000 0.85330  0.82580  0.09210  Biso   1.000  C
  H36      1.0000 0.86130  0.79720  0.08730  Biso   1.000  H
  C96      1.0000 0.81800  0.84560  0.07790  Biso   1.000  C
  C97      1.0000 0.80350  0.88640  0.08970  Biso   1.000  C
  H37      1.0000 0.77700  0.89770  0.08270  Biso   1.000  H
  O37      1.0000 0.70180  0.03280  0.11060  Biso   1.000  O
  O38      1.0000 0.70770  0.09370  0.14090  Biso   1.000  O
  C98      1.0000 0.68580  0.07020  0.12120  Biso   1.000  C
  C99      1.0000 0.64170  0.08940  0.11280  Biso   1.000  C
  C100     1.0000 0.61960  0.06610  0.09210  Biso   1.000  C
  H38      1.0000 0.63110  0.03940  0.08570  Biso   1.000  H
  C101     1.0000 0.58970  0.04310  0.24950  Biso   1.000  C
  C102     1.0000 0.61250  0.08230  0.25200  Biso   1.000  C
  H39      1.0000 0.64280  0.08620  0.25330  Biso   1.000  H
  C103     1.0000 0.73350  0.00430  0.22300  Biso   1.000  C
  C104     1.0000 0.68720  0.00260  0.22600  Biso   1.000  C
  H40      1.0000 0.67140  0.00340  0.20800  Biso   1.000  H
  O39      1.0000 0.73310  0.00520  0.16730  Biso   1.000  O
  O40      1.0000 0.80320  0.01380  0.19720  Biso   1.000  O
  C105     1.0000 0.75800  0.01240  0.18980  Biso   1.000  C
  Zn11     1.0000 0.25521  0.52166  0.63005  Biso   1.000  Zn
  Zn12     1.0000 0.34919  0.51255  0.67314  Biso   1.000  Zn
  C106     1.0000 0.25000  0.28040  0.59600  Biso   1.000  C
  H41      1.0000 0.26340  0.29300  0.61280  Biso   1.000  H
  C107     1.0000 0.25790  0.28950  0.56760  Biso   1.000  C
  C108     1.0000 0.29120  0.32430  0.55160  Biso   1.000  C
  C109     1.0000 0.30460  0.33270  0.51960  Biso   1.000  C
  C110     1.0000 0.33580  0.36250  0.51520  Biso   1.000  C
  H42      1.0000 0.35260  0.37850  0.52890  Biso   1.000  H
  O41      1.0000 0.43360  0.29400  0.61600  Biso   1.000  O
  O42      1.0000 0.43550  0.34650  0.64890  Biso   1.000  O
  O43      1.0000 0.33290  0.46870  0.64400  Biso   1.000  O
  O44      1.0000 0.27740  0.47350  0.61230  Biso   1.000  O
  C111     1.0000 0.30680  0.45150  0.62060  Biso   1.000  C
  C112     1.0000 0.32730  0.41110  0.61170  Biso   1.000  C
  C113     1.0000 0.36250  0.38900  0.62330  Biso   1.000  C
  H43      1.0000 0.37790  0.40240  0.63890  Biso   1.000  H
  C114     1.0000 0.37670  0.34950  0.61390  Biso   1.000  C
  C115     1.0000 0.41180  0.32690  0.62660  Biso   1.000  C
  C116     1.0000 0.35330  0.32580  0.59210  Biso   1.000  C
  H44      1.0000 0.36130  0.29720  0.58730  Biso   1.000  H
  C117     1.0000 0.31800  0.34560  0.57790  Biso   1.000  C
  C118     1.0000 0.30350  0.38640  0.58970  Biso   1.000  C
  H45      1.0000 0.27700  0.39770  0.58270  Biso   1.000  H
  O45      1.0000 0.20180  0.53280  0.61060  Biso   1.000  O
  O46      1.0000 0.20770  0.59370  0.64090  Biso   1.000  O
  C119     1.0000 0.18580  0.57020  0.62120  Biso   1.000  C
  C120     1.0000 0.14170  0.58940  0.61280  Biso   1.000  C
  C121     1.0000 0.11960  0.56610  0.59210  Biso   1.000  C
  H46      1.0000 0.13110  0.53940  0.58570  Biso   1.000  H
  C122     1.0000 0.08970  0.54310  0.74950  Biso   1.000  C
  C123     1.0000 0.11250  0.58230  0.75200  Biso   1.000  C
  H47      1.0000 0.14280  0.58620  0.75330  Biso   1.000  H
  C124     1.0000 0.23350  0.50430  0.72300  Biso   1.000  C
  C125     1.0000 0.18720  0.50260  0.72600  Biso   1.000  C
  H48      1.0000 0.17140  0.50340  0.70800  Biso   1.000  H
  O47      1.0000 0.23310  0.50520  0.66730  Biso   1.000  O
  O48      1.0000 0.30320  0.51380  0.69720  Biso   1.000  O
  C126     1.0000 0.25800  0.51240  0.68980  Biso   1.000  C
  Zn13     1.0000 0.24479  0.97834  0.13005  Biso   1.000  Zn
  Zn14     1.0000 0.15081  0.98745  0.17314  Biso   1.000  Zn
  C127     1.0000 0.25000  0.21960  0.09600  Biso   1.000  C
  H49      1.0000 0.23660  0.20700  0.11280  Biso   1.000  H
  C128     1.0000 0.24210  0.21050  0.06760  Biso   1.000  C
  C129     1.0000 0.20880  0.17570  0.05160  Biso   1.000  C
  C130     1.0000 0.19540  0.16730  0.01960  Biso   1.000  C
  C131     1.0000 0.16420  0.13750  0.01520  Biso   1.000  C
  H50      1.0000 0.14740  0.12150  0.02890  Biso   1.000  H
  O49      1.0000 0.06640  0.20600  0.11600  Biso   1.000  O
  O50      1.0000 0.06450  0.15350  0.14890  Biso   1.000  O
  O51      1.0000 0.16710  0.03130  0.14400  Biso   1.000  O
  O52      1.0000 0.22260  0.02650  0.11230  Biso   1.000  O
  C132     1.0000 0.19320  0.04850  0.12060  Biso   1.000  C
  C133     1.0000 0.17270  0.08890  0.11170  Biso   1.000  C
  C134     1.0000 0.13750  0.11100  0.12330  Biso   1.000  C
  H51      1.0000 0.12210  0.09760  0.13890  Biso   1.000  H
  C135     1.0000 0.12330  0.15050  0.11390  Biso   1.000  C
  C136     1.0000 0.08820  0.17310  0.12660  Biso   1.000  C
  C137     1.0000 0.14670  0.17420  0.09210  Biso   1.000  C
  H52      1.0000 0.13870  0.20280  0.08730  Biso   1.000  H
  C138     1.0000 0.18200  0.15440  0.07790  Biso   1.000  C
  C139     1.0000 0.19650  0.11360  0.08970  Biso   1.000  C
  H53      1.0000 0.22300  0.10230  0.08270  Biso   1.000  H
  O53      1.0000 0.29820  0.96720  0.11060  Biso   1.000  O
  O54      1.0000 0.29230  0.90630  0.14090  Biso   1.000  O
  C140     1.0000 0.31420  0.92980  0.12120  Biso   1.000  C
  C141     1.0000 0.35830  0.91060  0.11280  Biso   1.000  C
  C142     1.0000 0.38040  0.93390  0.09210  Biso   1.000  C
  H54      1.0000 0.36890  0.96060  0.08570  Biso   1.000  H
  C143     1.0000 0.41030  0.95690  0.24950  Biso   1.000  C
  C144     1.0000 0.38750  0.91770  0.25200  Biso   1.000  C
  H55      1.0000 0.35720  0.91380  0.25330  Biso   1.000  H
  C145     1.0000 0.26650  0.99570  0.22300  Biso   1.000  C
  C146     1.0000 0.31280  0.99740  0.22600  Biso   1.000  C
  H56      1.0000 0.32860  0.99660  0.20800  Biso   1.000  H
  O55      1.0000 0.26690  0.99480  0.16730  Biso   1.000  O
  O56      1.0000 0.19680  0.98620  0.19720  Biso   1.000  O
  C147     1.0000 0.24200  0.98760  0.18980  Biso   1.000  C
  Zn15     1.0000 0.74479  0.47834  0.63005  Biso   1.000  Zn
  Zn16     1.0000 0.65081  0.48745  0.67314  Biso   1.000  Zn
  C148     1.0000 0.75000  0.71960  0.59600  Biso   1.000  C
  H57      1.0000 0.73660  0.70700  0.61280  Biso   1.000  H
  C149     1.0000 0.74210  0.71050  0.56760  Biso   1.000  C
  C150     1.0000 0.70880  0.67570  0.55160  Biso   1.000  C
  C151     1.0000 0.69540  0.66730  0.51960  Biso   1.000  C
  C152     1.0000 0.66420  0.63750  0.51520  Biso   1.000  C
  H58      1.0000 0.64740  0.62150  0.52890  Biso   1.000  H
  O57      1.0000 0.56640  0.70600  0.61600  Biso   1.000  O
  O58      1.0000 0.56450  0.65350  0.64890  Biso   1.000  O
  O59      1.0000 0.66710  0.53130  0.64400  Biso   1.000  O
  O60      1.0000 0.72260  0.52650  0.61230  Biso   1.000  O
  C153     1.0000 0.69320  0.54850  0.62060  Biso   1.000  C
  C154     1.0000 0.67270  0.58890  0.61170  Biso   1.000  C
  C155     1.0000 0.63750  0.61100  0.62330  Biso   1.000  C
  H59      1.0000 0.62210  0.59760  0.63890  Biso   1.000  H
  C156     1.0000 0.62330  0.65050  0.61390  Biso   1.000  C
  C157     1.0000 0.58820  0.67310  0.62660  Biso   1.000  C
  C158     1.0000 0.64670  0.67420  0.59210  Biso   1.000  C
  H60      1.0000 0.63870  0.70280  0.58730  Biso   1.000  H
  C159     1.0000 0.68200  0.65440  0.57790  Biso   1.000  C
  C160     1.0000 0.69650  0.61360  0.58970  Biso   1.000  C
  H61      1.0000 0.72300  0.60230  0.58270  Biso   1.000  H
  O61      1.0000 0.79820  0.46720  0.61060  Biso   1.000  O
  O62      1.0000 0.79230  0.40630  0.64090  Biso   1.000  O
  C161     1.0000 0.81420  0.42980  0.62120  Biso   1.000  C
  C162     1.0000 0.85830  0.41060  0.61280  Biso   1.000  C
  C163     1.0000 0.88040  0.43390  0.59210  Biso   1.000  C
  H62      1.0000 0.86890  0.46060  0.58570  Biso   1.000  H
  C164     1.0000 0.91030  0.45690  0.74950  Biso   1.000  C
  C165     1.0000 0.88750  0.41770  0.75200  Biso   1.000  C
  H63      1.0000 0.85720  0.41380  0.75330  Biso   1.000  H
  C166     1.0000 0.76650  0.49570  0.72300  Biso   1.000  C
  C167     1.0000 0.81280  0.49740  0.72600  Biso   1.000  C
  H64      1.0000 0.82860  0.49660  0.70800  Biso   1.000  H
  O63      1.0000 0.76690  0.49480  0.66730  Biso   1.000  O
  O64      1.0000 0.69680  0.48620  0.69720  Biso   1.000  O
  C168     1.0000 0.74200  0.48760  0.68980  Biso   1.000  C
  Zn17     1.0000 0.97834  0.24479  0.36995  Biso   1.000  Zn
  Zn18     1.0000 0.98745  0.15081  0.32686  Biso   1.000  Zn
  C169     1.0000 0.21960  0.25000  0.40400  Biso   1.000  C
  H65      1.0000 0.20700  0.23660  0.38720  Biso   1.000  H
  C170     1.0000 0.21050  0.24210  0.43240  Biso   1.000  C
  C171     1.0000 0.17570  0.20880  0.44840  Biso   1.000  C
  C172     1.0000 0.16730  0.19540  0.48040  Biso   1.000  C
  C173     1.0000 0.13750  0.16420  0.48480  Biso   1.000  C
  H66      1.0000 0.12150  0.14740  0.47110  Biso   1.000  H
  O65      1.0000 0.20600  0.06640  0.38400  Biso   1.000  O
  O66      1.0000 0.15350  0.06450  0.35110  Biso   1.000  O
  O67      1.0000 0.03130  0.16710  0.35600  Biso   1.000  O
  O68      1.0000 0.02650  0.22260  0.38770  Biso   1.000  O
  C174     1.0000 0.04850  0.19320  0.37940  Biso   1.000  C
  C175     1.0000 0.08890  0.17270  0.38830  Biso   1.000  C
  C176     1.0000 0.11100  0.13750  0.37670  Biso   1.000  C
  H67      1.0000 0.09760  0.12210  0.36110  Biso   1.000  H
  C177     1.0000 0.15050  0.12330  0.38610  Biso   1.000  C
  C178     1.0000 0.17310  0.08820  0.37340  Biso   1.000  C
  C179     1.0000 0.17420  0.14670  0.40790  Biso   1.000  C
  H68      1.0000 0.20280  0.13870  0.41270  Biso   1.000  H
  C180     1.0000 0.15440  0.18200  0.42210  Biso   1.000  C
  C181     1.0000 0.11360  0.19650  0.41030  Biso   1.000  C
  H69      1.0000 0.10230  0.22300  0.41730  Biso   1.000  H
  O69      1.0000 0.96720  0.29820  0.38940  Biso   1.000  O
  O70      1.0000 0.90630  0.29230  0.35910  Biso   1.000  O
  C182     1.0000 0.92980  0.31420  0.37880  Biso   1.000  C
  C183     1.0000 0.91060  0.35830  0.38720  Biso   1.000  C
  C184     1.0000 0.93390  0.38040  0.40790  Biso   1.000  C
  H70      1.0000 0.96060  0.36890  0.41430  Biso   1.000  H
  C185     1.0000 0.95690  0.41030  0.25050  Biso   1.000  C
  C186     1.0000 0.91770  0.38750  0.24800  Biso   1.000  C
  H71      1.0000 0.91380  0.35720  0.24670  Biso   1.000  H
  C187     1.0000 0.99570  0.26650  0.27700  Biso   1.000  C
  C188     1.0000 0.99740  0.31280  0.27400  Biso   1.000  C
  H72      1.0000 0.99660  0.32860  0.29200  Biso   1.000  H
  O71      1.0000 0.99480  0.26690  0.33270  Biso   1.000  O
  O72      1.0000 0.98620  0.19680  0.30280  Biso   1.000  O
  C189     1.0000 0.98760  0.24200  0.31020  Biso   1.000  C
  Zn19     1.0000 0.47834  0.74479  0.86995  Biso   1.000  Zn
  Zn20     1.0000 0.48745  0.65081  0.82686  Biso   1.000  Zn
  C190     1.0000 0.71960  0.75000  0.90400  Biso   1.000  C
  H73      1.0000 0.70700  0.73660  0.88720  Biso   1.000  H
  C191     1.0000 0.71050  0.74210  0.93240  Biso   1.000  C
  C192     1.0000 0.67570  0.70880  0.94840  Biso   1.000  C
  C193     1.0000 0.66730  0.69540  0.98040  Biso   1.000  C
  C194     1.0000 0.63750  0.66420  0.98480  Biso   1.000  C
  H74      1.0000 0.62150  0.64740  0.97110  Biso   1.000  H
  O73      1.0000 0.70600  0.56640  0.88400  Biso   1.000  O
  O74      1.0000 0.65350  0.56450  0.85110  Biso   1.000  O
  O75      1.0000 0.53130  0.66710  0.85600  Biso   1.000  O
  O76      1.0000 0.52650  0.72260  0.88770  Biso   1.000  O
  C195     1.0000 0.54850  0.69320  0.87940  Biso   1.000  C
  C196     1.0000 0.58890  0.67270  0.88830  Biso   1.000  C
  C197     1.0000 0.61100  0.63750  0.87670  Biso   1.000  C
  H75      1.0000 0.59760  0.62210  0.86110  Biso   1.000  H
  C198     1.0000 0.65050  0.62330  0.88610  Biso   1.000  C
  C199     1.0000 0.67310  0.58820  0.87340  Biso   1.000  C
  C200     1.0000 0.67420  0.64670  0.90790  Biso   1.000  C
  H76      1.0000 0.70280  0.63870  0.91270  Biso   1.000  H
  C201     1.0000 0.65440  0.68200  0.92210  Biso   1.000  C
  C202     1.0000 0.61360  0.69650  0.91030  Biso   1.000  C
  H77      1.0000 0.60230  0.72300  0.91730  Biso   1.000  H
  O77      1.0000 0.46720  0.79820  0.88940  Biso   1.000  O
  O78      1.0000 0.40630  0.79230  0.85910  Biso   1.000  O
  C203     1.0000 0.42980  0.81420  0.87880  Biso   1.000  C
  C204     1.0000 0.41060  0.85830  0.88720  Biso   1.000  C
  C205     1.0000 0.43390  0.88040  0.90790  Biso   1.000  C
  H78      1.0000 0.46060  0.86890  0.91430  Biso   1.000  H
  C206     1.0000 0.45690  0.91030  0.75050  Biso   1.000  C
  C207     1.0000 0.41770  0.88750  0.74800  Biso   1.000  C
  H79      1.0000 0.41380  0.85720  0.74670  Biso   1.000  H
  C208     1.0000 0.49570  0.76650  0.77700  Biso   1.000  C
  C209     1.0000 0.49740  0.81280  0.77400  Biso   1.000  C
  H80      1.0000 0.49660  0.82860  0.79200  Biso   1.000  H
  O79      1.0000 0.49480  0.76690  0.83270  Biso   1.000  O
  O80      1.0000 0.48620  0.69680  0.80280  Biso   1.000  O
  C210     1.0000 0.48760  0.74200  0.81020  Biso   1.000  C
  Zn21     1.0000 0.02166  0.75521  0.36995  Biso   1.000  Zn
  Zn22     1.0000 0.01255  0.84919  0.32686  Biso   1.000  Zn
  C211     1.0000 0.78040  0.75000  0.40400  Biso   1.000  C
  H81      1.0000 0.79300  0.76340  0.38720  Biso   1.000  H
  C212     1.0000 0.78950  0.75790  0.43240  Biso   1.000  C
  C213     1.0000 0.82430  0.79120  0.44840  Biso   1.000  C
  C214     1.0000 0.83270  0.80460  0.48040  Biso   1.000  C
  C215     1.0000 0.86250  0.83580  0.48480  Biso   1.000  C
  H82      1.0000 0.87850  0.85260  0.47110  Biso   1.000  H
  O81      1.0000 0.79400  0.93360  0.38400  Biso   1.000  O
  O82      1.0000 0.84650  0.93550  0.35110  Biso   1.000  O
  O83      1.0000 0.96870  0.83290  0.35600  Biso   1.000  O
  O84      1.0000 0.97350  0.77740  0.38770  Biso   1.000  O
  C216     1.0000 0.95150  0.80680  0.37940  Biso   1.000  C
  C217     1.0000 0.91110  0.82730  0.38830  Biso   1.000  C
  C218     1.0000 0.88900  0.86250  0.37670  Biso   1.000  C
  H83      1.0000 0.90240  0.87790  0.36110  Biso   1.000  H
  C219     1.0000 0.84950  0.87670  0.38610  Biso   1.000  C
  C220     1.0000 0.82690  0.91180  0.37340  Biso   1.000  C
  C221     1.0000 0.82580  0.85330  0.40790  Biso   1.000  C
  H84      1.0000 0.79720  0.86130  0.41270  Biso   1.000  H
  C222     1.0000 0.84560  0.81800  0.42210  Biso   1.000  C
  C223     1.0000 0.88640  0.80350  0.41030  Biso   1.000  C
  H85      1.0000 0.89770  0.77700  0.41730  Biso   1.000  H
  O85      1.0000 0.03280  0.70180  0.38940  Biso   1.000  O
  O86      1.0000 0.09370  0.70770  0.35910  Biso   1.000  O
  C224     1.0000 0.07020  0.68580  0.37880  Biso   1.000  C
  C225     1.0000 0.08940  0.64170  0.38720  Biso   1.000  C
  C226     1.0000 0.06610  0.61960  0.40790  Biso   1.000  C
  H86      1.0000 0.03940  0.63110  0.41430  Biso   1.000  H
  C227     1.0000 0.04310  0.58970  0.25050  Biso   1.000  C
  C228     1.0000 0.08230  0.61250  0.24800  Biso   1.000  C
  H87      1.0000 0.08620  0.64280  0.24670  Biso   1.000  H
  C229     1.0000 0.00430  0.73350  0.27700  Biso   1.000  C
  C230     1.0000 0.00260  0.68720  0.27400  Biso   1.000  C
  H88      1.0000 0.00340  0.67140  0.29200  Biso   1.000  H
  O87      1.0000 0.00520  0.73310  0.33270  Biso   1.000  O
  O88      1.0000 0.01380  0.80320  0.30280  Biso   1.000  O
  C231     1.0000 0.01240  0.75800  0.31020  Biso   1.000  C
  Zn23     1.0000 0.52166  0.25521  0.86995  Biso   1.000  Zn
  Zn24     1.0000 0.51255  0.34919  0.82686  Biso   1.000  Zn
  C232     1.0000 0.28040  0.25000  0.90400  Biso   1.000  C
  H89      1.0000 0.29300  0.26340  0.88720  Biso   1.000  H
  C233     1.0000 0.28950  0.25790  0.93240  Biso   1.000  C
  C234     1.0000 0.32430  0.29120  0.94840  Biso   1.000  C
  C235     1.0000 0.33270  0.30460  0.98040  Biso   1.000  C
  C236     1.0000 0.36250  0.33580  0.98480  Biso   1.000  C
  H90      1.0000 0.37850  0.35260  0.97110  Biso   1.000  H
  O89      1.0000 0.29400  0.43360  0.88400  Biso   1.000  O
  O90      1.0000 0.34650  0.43550  0.85110  Biso   1.000  O
  O91      1.0000 0.46870  0.33290  0.85600  Biso   1.000  O
  O92      1.0000 0.47350  0.27740  0.88770  Biso   1.000  O
  C237     1.0000 0.45150  0.30680  0.87940  Biso   1.000  C
  C238     1.0000 0.41110  0.32730  0.88830  Biso   1.000  C
  C239     1.0000 0.38900  0.36250  0.87670  Biso   1.000  C
  H91      1.0000 0.40240  0.37790  0.86110  Biso   1.000  H
  C240     1.0000 0.34950  0.37670  0.88610  Biso   1.000  C
  C241     1.0000 0.32690  0.41180  0.87340  Biso   1.000  C
  C242     1.0000 0.32580  0.35330  0.90790  Biso   1.000  C
  H92      1.0000 0.29720  0.36130  0.91270  Biso   1.000  H
  C243     1.0000 0.34560  0.31800  0.92210  Biso   1.000  C
  C244     1.0000 0.38640  0.30350  0.91030  Biso   1.000  C
  H93      1.0000 0.39770  0.27700  0.91730  Biso   1.000  H
  O93      1.0000 0.53280  0.20180  0.88940  Biso   1.000  O
  O94      1.0000 0.59370  0.20770  0.85910  Biso   1.000  O
  C245     1.0000 0.57020  0.18580  0.87880  Biso   1.000  C
  C246     1.0000 0.58940  0.14170  0.88720  Biso   1.000  C
  C247     1.0000 0.56610  0.11960  0.90790  Biso   1.000  C
  H94      1.0000 0.53940  0.13110  0.91430  Biso   1.000  H
  C248     1.0000 0.54310  0.08970  0.75050  Biso   1.000  C
  C249     1.0000 0.58230  0.11250  0.74800  Biso   1.000  C
  H95      1.0000 0.58620  0.14280  0.74670  Biso   1.000  H
  C250     1.0000 0.50430  0.23350  0.77700  Biso   1.000  C
  C251     1.0000 0.50260  0.18720  0.77400  Biso   1.000  C
  H96      1.0000 0.50340  0.17140  0.79200  Biso   1.000  H
  O95      1.0000 0.50520  0.23310  0.83270  Biso   1.000  O
  O96      1.0000 0.51380  0.30320  0.80280  Biso   1.000  O
  C252     1.0000 0.51240  0.25800  0.81020  Biso   1.000  C
  Zn25     1.0000 0.24479  0.02166  0.36995  Biso   1.000  Zn
  Zn26     1.0000 0.15081  0.01255  0.32686  Biso   1.000  Zn
  C253     1.0000 0.25000  0.78040  0.40400  Biso   1.000  C
  H97      1.0000 0.23660  0.79300  0.38720  Biso   1.000  H
  C254     1.0000 0.24210  0.78950  0.43240  Biso   1.000  C
  C255     1.0000 0.20880  0.82430  0.44840  Biso   1.000  C
  C256     1.0000 0.19540  0.83270  0.48040  Biso   1.000  C
  C257     1.0000 0.16420  0.86250  0.48480  Biso   1.000  C
  H98      1.0000 0.14740  0.87850  0.47110  Biso   1.000  H
  O97      1.0000 0.06640  0.79400  0.38400  Biso   1.000  O
  O98      1.0000 0.06450  0.84650  0.35110  Biso   1.000  O
  O99      1.0000 0.16710  0.96870  0.35600  Biso   1.000  O
  O100     1.0000 0.22260  0.97350  0.38770  Biso   1.000  O
  C258     1.0000 0.19320  0.95150  0.37940  Biso   1.000  C
  C259     1.0000 0.17270  0.91110  0.38830  Biso   1.000  C
  C260     1.0000 0.13750  0.88900  0.37670  Biso   1.000  C
  H99      1.0000 0.12210  0.90240  0.36110  Biso   1.000  H
  C261     1.0000 0.12330  0.84950  0.38610  Biso   1.000  C
  C262     1.0000 0.08820  0.82690  0.37340  Biso   1.000  C
  C263     1.0000 0.14670  0.82580  0.40790  Biso   1.000  C
  H100     1.0000 0.13870  0.79720  0.41270  Biso   1.000  H
  C264     1.0000 0.18200  0.84560  0.42210  Biso   1.000  C
  C265     1.0000 0.19650  0.88640  0.41030  Biso   1.000  C
  H101     1.0000 0.22300  0.89770  0.41730  Biso   1.000  H
  O101     1.0000 0.29820  0.03280  0.38940  Biso   1.000  O
  O102     1.0000 0.29230  0.09370  0.35910  Biso   1.000  O
  C266     1.0000 0.31420  0.07020  0.37880  Biso   1.000  C
  C267     1.0000 0.35830  0.08940  0.38720  Biso   1.000  C
  C268     1.0000 0.38040  0.06610  0.40790  Biso   1.000  C
  H102     1.0000 0.36890  0.03940  0.41430  Biso   1.000  H
  C269     1.0000 0.41030  0.04310  0.25050  Biso   1.000  C
  C270     1.0000 0.38750  0.08230  0.24800  Biso   1.000  C
  H103     1.0000 0.35720  0.08620  0.24670  Biso   1.000  H
  C271     1.0000 0.26650  0.00430  0.27700  Biso   1.000  C
  C272     1.0000 0.31280  0.00260  0.27400  Biso   1.000  C
  H104     1.0000 0.32860  0.00340  0.29200  Biso   1.000  H
  O103     1.0000 0.26690  0.00520  0.33270  Biso   1.000  O
  O104     1.0000 0.19680  0.01380  0.30280  Biso   1.000  O
  C273     1.0000 0.24200  0.01240  0.31020  Biso   1.000  C
  Zn27     1.0000 0.74479  0.52166  0.86995  Biso   1.000  Zn
  Zn28     1.0000 0.65081  0.51255  0.82686  Biso   1.000  Zn
  C274     1.0000 0.75000  0.28040  0.90400  Biso   1.000  C
  H105     1.0000 0.73660  0.29300  0.88720  Biso   1.000  H
  C275     1.0000 0.74210  0.28950  0.93240  Biso   1.000  C
  C276     1.0000 0.70880  0.32430  0.94840  Biso   1.000  C
  C277     1.0000 0.69540  0.33270  0.98040  Biso   1.000  C
  C278     1.0000 0.66420  0.36250  0.98480  Biso   1.000  C
  H106     1.0000 0.64740  0.37850  0.97110  Biso   1.000  H
  O105     1.0000 0.56640  0.29400  0.88400  Biso   1.000  O
  O106     1.0000 0.56450  0.34650  0.85110  Biso   1.000  O
  O107     1.0000 0.66710  0.46870  0.85600  Biso   1.000  O
  O108     1.0000 0.72260  0.47350  0.88770  Biso   1.000  O
  C279     1.0000 0.69320  0.45150  0.87940  Biso   1.000  C
  C280     1.0000 0.67270  0.41110  0.88830  Biso   1.000  C
  C281     1.0000 0.63750  0.38900  0.87670  Biso   1.000  C
  H107     1.0000 0.62210  0.40240  0.86110  Biso   1.000  H
  C282     1.0000 0.62330  0.34950  0.88610  Biso   1.000  C
  C283     1.0000 0.58820  0.32690  0.87340  Biso   1.000  C
  C284     1.0000 0.64670  0.32580  0.90790  Biso   1.000  C
  H108     1.0000 0.63870  0.29720  0.91270  Biso   1.000  H
  C285     1.0000 0.68200  0.34560  0.92210  Biso   1.000  C
  C286     1.0000 0.69650  0.38640  0.91030  Biso   1.000  C
  H109     1.0000 0.72300  0.39770  0.91730  Biso   1.000  H
  O109     1.0000 0.79820  0.53280  0.88940  Biso   1.000  O
  O110     1.0000 0.79230  0.59370  0.85910  Biso   1.000  O
  C287     1.0000 0.81420  0.57020  0.87880  Biso   1.000  C
  C288     1.0000 0.85830  0.58940  0.88720  Biso   1.000  C
  C289     1.0000 0.88040  0.56610  0.90790  Biso   1.000  C
  H110     1.0000 0.86890  0.53940  0.91430  Biso   1.000  H
  C290     1.0000 0.91030  0.54310  0.75050  Biso   1.000  C
  C291     1.0000 0.88750  0.58230  0.74800  Biso   1.000  C
  H111     1.0000 0.85720  0.58620  0.74670  Biso   1.000  H
  C292     1.0000 0.76650  0.50430  0.77700  Biso   1.000  C
  C293     1.0000 0.81280  0.50260  0.77400  Biso   1.000  C
  H112     1.0000 0.82860  0.50340  0.79200  Biso   1.000  H
  O111     1.0000 0.76690  0.50520  0.83270  Biso   1.000  O
  O112     1.0000 0.69680  0.51380  0.80280  Biso   1.000  O
  C294     1.0000 0.74200  0.51240  0.81020  Biso   1.000  C
  Zn29     1.0000 0.75521  0.97834  0.36995  Biso   1.000  Zn
  Zn30     1.0000 0.84919  0.98745  0.32686  Biso   1.000  Zn
  C295     1.0000 0.75000  0.21960  0.40400  Biso   1.000  C
  H113     1.0000 0.76340  0.20700  0.38720  Biso   1.000  H
  C296     1.0000 0.75790  0.21050  0.43240  Biso   1.000  C
  C297     1.0000 0.79120  0.17570  0.44840  Biso   1.000  C
  C298     1.0000 0.80460  0.16730  0.48040  Biso   1.000  C
  C299     1.0000 0.83580  0.13750  0.48480  Biso   1.000  C
  H114     1.0000 0.85260  0.12150  0.47110  Biso   1.000  H
  O113     1.0000 0.93360  0.20600  0.38400  Biso   1.000  O
  O114     1.0000 0.93550  0.15350  0.35110  Biso   1.000  O
  O115     1.0000 0.83290  0.03130  0.35600  Biso   1.000  O
  O116     1.0000 0.77740  0.02650  0.38770  Biso   1.000  O
  C300     1.0000 0.80680  0.04850  0.37940  Biso   1.000  C
  C301     1.0000 0.82730  0.08890  0.38830  Biso   1.000  C
  C302     1.0000 0.86250  0.11100  0.37670  Biso   1.000  C
  H115     1.0000 0.87790  0.09760  0.36110  Biso   1.000  H
  C303     1.0000 0.87670  0.15050  0.38610  Biso   1.000  C
  C304     1.0000 0.91180  0.17310  0.37340  Biso   1.000  C
  C305     1.0000 0.85330  0.17420  0.40790  Biso   1.000  C
  H116     1.0000 0.86130  0.20280  0.41270  Biso   1.000  H
  C306     1.0000 0.81800  0.15440  0.42210  Biso   1.000  C
  C307     1.0000 0.80350  0.11360  0.41030  Biso   1.000  C
  H117     1.0000 0.77700  0.10230  0.41730  Biso   1.000  H
  O117     1.0000 0.70180  0.96720  0.38940  Biso   1.000  O
  O118     1.0000 0.70770  0.90630  0.35910  Biso   1.000  O
  C308     1.0000 0.68580  0.92980  0.37880  Biso   1.000  C
  C309     1.0000 0.64170  0.91060  0.38720  Biso   1.000  C
  C310     1.0000 0.61960  0.93390  0.40790  Biso   1.000  C
  H118     1.0000 0.63110  0.96060  0.41430  Biso   1.000  H
  C311     1.0000 0.58970  0.95690  0.25050  Biso   1.000  C
  C312     1.0000 0.61250  0.91770  0.24800  Biso   1.000  C
  H119     1.0000 0.64280  0.91380  0.24670  Biso   1.000  H
  C313     1.0000 0.73350  0.99570  0.27700  Biso   1.000  C
  C314     1.0000 0.68720  0.99740  0.27400  Biso   1.000  C
  H120     1.0000 0.67140  0.99660  0.29200  Biso   1.000  H
  O119     1.0000 0.73310  0.99480  0.33270  Biso   1.000  O
  O120     1.0000 0.80320  0.98620  0.30280  Biso   1.000  O
  C315     1.0000 0.75800  0.98760  0.31020  Biso   1.000  C
  Zn31     1.0000 0.25521  0.47834  0.86995  Biso   1.000  Zn
  Zn32     1.0000 0.34919  0.48745  0.82686  Biso   1.000  Zn
  C316     1.0000 0.25000  0.71960  0.90400  Biso   1.000  C
  H121     1.0000 0.26340  0.70700  0.88720  Biso   1.000  H
  C317     1.0000 0.25790  0.71050  0.93240  Biso   1.000  C
  C318     1.0000 0.29120  0.67570  0.94840  Biso   1.000  C
  C319     1.0000 0.30460  0.66730  0.98040  Biso   1.000  C
  C320     1.0000 0.33580  0.63750  0.98480  Biso   1.000  C
  H122     1.0000 0.35260  0.62150  0.97110  Biso   1.000  H
  O121     1.0000 0.43360  0.70600  0.88400  Biso   1.000  O
  O122     1.0000 0.43550  0.65350  0.85110  Biso   1.000  O
  O123     1.0000 0.33290  0.53130  0.85600  Biso   1.000  O
  O124     1.0000 0.27740  0.52650  0.88770  Biso   1.000  O
  C321     1.0000 0.30680  0.54850  0.87940  Biso   1.000  C
  C322     1.0000 0.32730  0.58890  0.88830  Biso   1.000  C
  C323     1.0000 0.36250  0.61100  0.87670  Biso   1.000  C
  H123     1.0000 0.37790  0.59760  0.86110  Biso   1.000  H
  C324     1.0000 0.37670  0.65050  0.88610  Biso   1.000  C
  C325     1.0000 0.41180  0.67310  0.87340  Biso   1.000  C
  C326     1.0000 0.35330  0.67420  0.90790  Biso   1.000  C
  H124     1.0000 0.36130  0.70280  0.91270  Biso   1.000  H
  C327     1.0000 0.31800  0.65440  0.92210  Biso   1.000  C
  C328     1.0000 0.30350  0.61360  0.91030  Biso   1.000  C
  H125     1.0000 0.27700  0.60230  0.91730  Biso   1.000  H
  O125     1.0000 0.20180  0.46720  0.88940  Biso   1.000  O
  O126     1.0000 0.20770  0.40630  0.85910  Biso   1.000  O
  C329     1.0000 0.18580  0.42980  0.87880  Biso   1.000  C
  C330     1.0000 0.14170  0.41060  0.88720  Biso   1.000  C
  C331     1.0000 0.11960  0.43390  0.90790  Biso   1.000  C
  H126     1.0000 0.13110  0.46060  0.91430  Biso   1.000  H
  C332     1.0000 0.08970  0.45690  0.75050  Biso   1.000  C
  C333     1.0000 0.11250  0.41770  0.74800  Biso   1.000  C
  H127     1.0000 0.14280  0.41380  0.74670  Biso   1.000  H
  C334     1.0000 0.23350  0.49570  0.77700  Biso   1.000  C
  C335     1.0000 0.18720  0.49740  0.77400  Biso   1.000  C
  H128     1.0000 0.17140  0.49660  0.79200  Biso   1.000  H
  O127     1.0000 0.23310  0.49480  0.83270  Biso   1.000  O
  O128     1.0000 0.30320  0.48620  0.80280  Biso   1.000  O
  C336     1.0000 0.25800  0.48760  0.81020  Biso   1.000  C
  Zn33     1.0000 0.97834  0.75521  0.86995  Biso   1.000  Zn
  Zn34     1.0000 0.98745  0.84919  0.82686  Biso   1.000  Zn
  C337     1.0000 0.21960  0.75000  0.90400  Biso   1.000  C
  H129     1.0000 0.20700  0.76340  0.88720  Biso   1.000  H
  C338     1.0000 0.21050  0.75790  0.93240  Biso   1.000  C
  C339     1.0000 0.17570  0.79120  0.94840  Biso   1.000  C
  C340     1.0000 0.16730  0.80460  0.98040  Biso   1.000  C
  C341     1.0000 0.13750  0.83580  0.98480  Biso   1.000  C
  H130     1.0000 0.12150  0.85260  0.97110  Biso   1.000  H
  O129     1.0000 0.20600  0.93360  0.88400  Biso   1.000  O
  O130     1.0000 0.15350  0.93550  0.85110  Biso   1.000  O
  O131     1.0000 0.03130  0.83290  0.85600  Biso   1.000  O
  O132     1.0000 0.02650  0.77740  0.88770  Biso   1.000  O
  C342     1.0000 0.04850  0.80680  0.87940  Biso   1.000  C
  C343     1.0000 0.08890  0.82730  0.88830  Biso   1.000  C
  C344     1.0000 0.11100  0.86250  0.87670  Biso   1.000  C
  H131     1.0000 0.09760  0.87790  0.86110  Biso   1.000  H
  C345     1.0000 0.15050  0.87670  0.88610  Biso   1.000  C
  C346     1.0000 0.17310  0.91180  0.87340  Biso   1.000  C
  C347     1.0000 0.17420  0.85330  0.90790  Biso   1.000  C
  H132     1.0000 0.20280  0.86130  0.91270  Biso   1.000  H
  C348     1.0000 0.15440  0.81800  0.92210  Biso   1.000  C
  C349     1.0000 0.11360  0.80350  0.91030  Biso   1.000  C
  H133     1.0000 0.10230  0.77700  0.91730  Biso   1.000  H
  O133     1.0000 0.96720  0.70180  0.88940  Biso   1.000  O
  O134     1.0000 0.90630  0.70770  0.85910  Biso   1.000  O
  C350     1.0000 0.92980  0.68580  0.87880  Biso   1.000  C
  C351     1.0000 0.91060  0.64170  0.88720  Biso   1.000  C
  C352     1.0000 0.93390  0.61960  0.90790  Biso   1.000  C
  H134     1.0000 0.96060  0.63110  0.91430  Biso   1.000  H
  C353     1.0000 0.95690  0.58970  0.75050  Biso   1.000  C
  C354     1.0000 0.91770  0.61250  0.74800  Biso   1.000  C
  H135     1.0000 0.91380  0.64280  0.74670  Biso   1.000  H
  C355     1.0000 0.99570  0.73350  0.77700  Biso   1.000  C
  C356     1.0000 0.99740  0.68720  0.77400  Biso   1.000  C
  H136     1.0000 0.99660  0.67140  0.79200  Biso   1.000  H
  O135     1.0000 0.99480  0.73310  0.83270  Biso   1.000  O
  O136     1.0000 0.98620  0.80320  0.80280  Biso   1.000  O
  C357     1.0000 0.98760  0.75800  0.81020  Biso   1.000  C
  Zn35     1.0000 0.47834  0.25521  0.36995  Biso   1.000  Zn
  Zn36     1.0000 0.48745  0.34919  0.32686  Biso   1.000  Zn
  C358     1.0000 0.71960  0.25000  0.40400  Biso   1.000  C
  H137     1.0000 0.70700  0.26340  0.38720  Biso   1.000  H
  C359     1.0000 0.71050  0.25790  0.43240  Biso   1.000  C
  C360     1.0000 0.67570  0.29120  0.44840  Biso   1.000  C
  C361     1.0000 0.66730  0.30460  0.48040  Biso   1.000  C
  C362     1.0000 0.63750  0.33580  0.48480  Biso   1.000  C
  H138     1.0000 0.62150  0.35260  0.47110  Biso   1.000  H
  O137     1.0000 0.70600  0.43360  0.38400  Biso   1.000  O
  O138     1.0000 0.65350  0.43550  0.35110  Biso   1.000  O
  O139     1.0000 0.53130  0.33290  0.35600  Biso   1.000  O
  O140     1.0000 0.52650  0.27740  0.38770  Biso   1.000  O
  C363     1.0000 0.54850  0.30680  0.37940  Biso   1.000  C
  C364     1.0000 0.58890  0.32730  0.38830  Biso   1.000  C
  C365     1.0000 0.61100  0.36250  0.37670  Biso   1.000  C
  H139     1.0000 0.59760  0.37790  0.36110  Biso   1.000  H
  C366     1.0000 0.65050  0.37670  0.38610  Biso   1.000  C
  C367     1.0000 0.67310  0.41180  0.37340  Biso   1.000  C
  C368     1.0000 0.67420  0.35330  0.40790  Biso   1.000  C
  H140     1.0000 0.70280  0.36130  0.41270  Biso   1.000  H
  C369     1.0000 0.65440  0.31800  0.42210  Biso   1.000  C
  C370     1.0000 0.61360  0.30350  0.41030  Biso   1.000  C
  H141     1.0000 0.60230  0.27700  0.41730  Biso   1.000  H
  O141     1.0000 0.46720  0.20180  0.38940  Biso   1.000  O
  O142     1.0000 0.40630  0.20770  0.35910  Biso   1.000  O
  C371     1.0000 0.42980  0.18580  0.37880  Biso   1.000  C
  C372     1.0000 0.41060  0.14170  0.38720  Biso   1.000  C
  C373     1.0000 0.43390  0.11960  0.40790  Biso   1.000  C
  H142     1.0000 0.46060  0.13110  0.41430  Biso   1.000  H
  C374     1.0000 0.45690  0.08970  0.25050  Biso   1.000  C
  C375     1.0000 0.41770  0.11250  0.24800  Biso   1.000  C
  H143     1.0000 0.41380  0.14280  0.24670  Biso   1.000  H
  C376     1.0000 0.49570  0.23350  0.27700  Biso   1.000  C
  C377     1.0000 0.49740  0.18720  0.27400  Biso   1.000  C
  H144     1.0000 0.49660  0.17140  0.29200  Biso   1.000  H
  O143     1.0000 0.49480  0.23310  0.33270  Biso   1.000  O
  O144     1.0000 0.48620  0.30320  0.30280  Biso   1.000  O
  C378     1.0000 0.48760  0.25800  0.31020  Biso   1.000  C
  Zn37     1.0000 0.02166  0.24479  0.86995  Biso   1.000  Zn
  Zn38     1.0000 0.01255  0.15081  0.82686  Biso   1.000  Zn
  C379     1.0000 0.78040  0.25000  0.90400  Biso   1.000  C
  H145     1.0000 0.79300  0.23660  0.88720  Biso   1.000  H
  C380     1.0000 0.78950  0.24210  0.93240  Biso   1.000  C
  C381     1.0000 0.82430  0.20880  0.94840  Biso   1.000  C
  C382     1.0000 0.83270  0.19540  0.98040  Biso   1.000  C
  C383     1.0000 0.86250  0.16420  0.98480  Biso   1.000  C
  H146     1.0000 0.87850  0.14740  0.97110  Biso   1.000  H
  O145     1.0000 0.79400  0.06640  0.88400  Biso   1.000  O
  O146     1.0000 0.84650  0.06450  0.85110  Biso   1.000  O
  O147     1.0000 0.96870  0.16710  0.85600  Biso   1.000  O
  O148     1.0000 0.97350  0.22260  0.88770  Biso   1.000  O
  C384     1.0000 0.95150  0.19320  0.87940  Biso   1.000  C
  C385     1.0000 0.91110  0.17270  0.88830  Biso   1.000  C
  C386     1.0000 0.88900  0.13750  0.87670  Biso   1.000  C
  H147     1.0000 0.90240  0.12210  0.86110  Biso   1.000  H
  C387     1.0000 0.84950  0.12330  0.88610  Biso   1.000  C
  C388     1.0000 0.82690  0.08820  0.87340  Biso   1.000  C
  C389     1.0000 0.82580  0.14670  0.90790  Biso   1.000  C
  H148     1.0000 0.79720  0.13870  0.91270  Biso   1.000  H
  C390     1.0000 0.84560  0.18200  0.92210  Biso   1.000  C
  C391     1.0000 0.88640  0.19650  0.91030  Biso   1.000  C
  H149     1.0000 0.89770  0.22300  0.91730  Biso   1.000  H
  O149     1.0000 0.03280  0.29820  0.88940  Biso   1.000  O
  O150     1.0000 0.09370  0.29230  0.85910  Biso   1.000  O
  C392     1.0000 0.07020  0.31420  0.87880  Biso   1.000  C
  C393     1.0000 0.08940  0.35830  0.88720  Biso   1.000  C
  C394     1.0000 0.06610  0.38040  0.90790  Biso   1.000  C
  H150     1.0000 0.03940  0.36890  0.91430  Biso   1.000  H
  C395     1.0000 0.04310  0.41030  0.75050  Biso   1.000  C
  C396     1.0000 0.08230  0.38750  0.74800  Biso   1.000  C
  H151     1.0000 0.08620  0.35720  0.74670  Biso   1.000  H
  C397     1.0000 0.00430  0.26650  0.77700  Biso   1.000  C
  C398     1.0000 0.00260  0.31280  0.77400  Biso   1.000  C
  H152     1.0000 0.00340  0.32860  0.79200  Biso   1.000  H
  O151     1.0000 0.00520  0.26690  0.83270  Biso   1.000  O
  O152     1.0000 0.01380  0.19680  0.80280  Biso   1.000  O
  C399     1.0000 0.01240  0.24200  0.81020  Biso   1.000  C
  Zn39     1.0000 0.52166  0.74479  0.36995  Biso   1.000  Zn
  Zn40     1.0000 0.51255  0.65081  0.32686  Biso   1.000  Zn
  C400     1.0000 0.28040  0.75000  0.40400  Biso   1.000  C
  H153     1.0000 0.29300  0.73660  0.38720  Biso   1.000  H
  C401     1.0000 0.28950  0.74210  0.43240  Biso   1.000  C
  C402     1.0000 0.32430  0.70880  0.44840  Biso   1.000  C
  C403     1.0000 0.33270  0.69540  0.48040  Biso   1.000  C
  C404     1.0000 0.36250  0.66420  0.48480  Biso   1.000  C
  H154     1.0000 0.37850  0.64740  0.47110  Biso   1.000  H
  O153     1.0000 0.29400  0.56640  0.38400  Biso   1.000  O
  O154     1.0000 0.34650  0.56450  0.35110  Biso   1.000  O
  O155     1.0000 0.46870  0.66710  0.35600  Biso   1.000  O
  O156     1.0000 0.47350  0.72260  0.38770  Biso   1.000  O
  C405     1.0000 0.45150  0.69320  0.37940  Biso   1.000  C
  C406     1.0000 0.41110  0.67270  0.38830  Biso   1.000  C
  C407     1.0000 0.38900  0.63750  0.37670  Biso   1.000  C
  H155     1.0000 0.40240  0.62210  0.36110  Biso   1.000  H
  C408     1.0000 0.34950  0.62330  0.38610  Biso   1.000  C
  C409     1.0000 0.32690  0.58820  0.37340  Biso   1.000  C
  C410     1.0000 0.32580  0.64670  0.40790  Biso   1.000  C
  H156     1.0000 0.29720  0.63870  0.41270  Biso   1.000  H
  C411     1.0000 0.34560  0.68200  0.42210  Biso   1.000  C
  C412     1.0000 0.38640  0.69650  0.41030  Biso   1.000  C
  H157     1.0000 0.39770  0.72300  0.41730  Biso   1.000  H
  O157     1.0000 0.53280  0.79820  0.38940  Biso   1.000  O
  O158     1.0000 0.59370  0.79230  0.35910  Biso   1.000  O
  C413     1.0000 0.57020  0.81420  0.37880  Biso   1.000  C
  C414     1.0000 0.58940  0.85830  0.38720  Biso   1.000  C
  C415     1.0000 0.56610  0.88040  0.40790  Biso   1.000  C
  H158     1.0000 0.53940  0.86890  0.41430  Biso   1.000  H
  C416     1.0000 0.54310  0.91030  0.25050  Biso   1.000  C
  C417     1.0000 0.58230  0.88750  0.24800  Biso   1.000  C
  H159     1.0000 0.58620  0.85720  0.24670  Biso   1.000  H
  C418     1.0000 0.50430  0.76650  0.27700  Biso   1.000  C
  C419     1.0000 0.50260  0.81280  0.27400  Biso   1.000  C
  H160     1.0000 0.50340  0.82860  0.29200  Biso   1.000  H
  O159     1.0000 0.50520  0.76690  0.33270  Biso   1.000  O
  O160     1.0000 0.51380  0.69680  0.30280  Biso   1.000  O
  C420     1.0000 0.51240  0.74200  0.31020  Biso   1.000  C
  Zn41     1.0000 0.24479  0.97834  0.86995  Biso   1.000  Zn
  Zn42     1.0000 0.15081  0.98745  0.82686  Biso   1.000  Zn
  C421     1.0000 0.25000  0.21960  0.90400  Biso   1.000  C
  H161     1.0000 0.23660  0.20700  0.88720  Biso   1.000  H
  C422     1.0000 0.24210  0.21050  0.93240  Biso   1.000  C
  C423     1.0000 0.20880  0.17570  0.94840  Biso   1.000  C
  C424     1.0000 0.19540  0.16730  0.98040  Biso   1.000  C
  C425     1.0000 0.16420  0.13750  0.98480  Biso   1.000  C
  H162     1.0000 0.14740  0.12150  0.97110  Biso   1.000  H
  O161     1.0000 0.06640  0.20600  0.88400  Biso   1.000  O
  O162     1.0000 0.06450  0.15350  0.85110  Biso   1.000  O
  O163     1.0000 0.16710  0.03130  0.85600  Biso   1.000  O
  O164     1.0000 0.22260  0.02650  0.88770  Biso   1.000  O
  C426     1.0000 0.19320  0.04850  0.87940  Biso   1.000  C
  C427     1.0000 0.17270  0.08890  0.88830  Biso   1.000  C
  C428     1.0000 0.13750  0.11100  0.87670  Biso   1.000  C
  H163     1.0000 0.12210  0.09760  0.86110  Biso   1.000  H
  C429     1.0000 0.12330  0.15050  0.88610  Biso   1.000  C
  C430     1.0000 0.08820  0.17310  0.87340  Biso   1.000  C
  C431     1.0000 0.14670  0.17420  0.90790  Biso   1.000  C
  H164     1.0000 0.13870  0.20280  0.91270  Biso   1.000  H
  C432     1.0000 0.18200  0.15440  0.92210  Biso   1.000  C
  C433     1.0000 0.19650  0.11360  0.91030  Biso   1.000  C
  H165     1.0000 0.22300  0.10230  0.91730  Biso   1.000  H
  O165     1.0000 0.29820  0.96720  0.88940  Biso   1.000  O
  O166     1.0000 0.29230  0.90630  0.85910  Biso   1.000  O
  C434     1.0000 0.31420  0.92980  0.87880  Biso   1.000  C
  C435     1.0000 0.35830  0.91060  0.88720  Biso   1.000  C
  C436     1.0000 0.38040  0.93390  0.90790  Biso   1.000  C
  H166     1.0000 0.36890  0.96060  0.91430  Biso   1.000  H
  C437     1.0000 0.41030  0.95690  0.75050  Biso   1.000  C
  C438     1.0000 0.38750  0.91770  0.74800  Biso   1.000  C
  H167     1.0000 0.35720  0.91380  0.74670  Biso   1.000  H
  C439     1.0000 0.26650  0.99570  0.77700  Biso   1.000  C
  C440     1.0000 0.31280  0.99740  0.77400  Biso   1.000  C
  H168     1.0000 0.32860  0.99660  0.79200  Biso   1.000  H
  O167     1.0000 0.26690  0.99480  0.83270  Biso   1.000  O
  O168     1.0000 0.19680  0.98620  0.80280  Biso   1.000  O
  C441     1.0000 0.24200  0.98760  0.81020  Biso   1.000  C
  Zn43     1.0000 0.74479  0.47834  0.36995  Biso   1.000  Zn
  Zn44     1.0000 0.65081  0.48745  0.32686  Biso   1.000  Zn
  C442     1.0000 0.75000  0.71960  0.40400  Biso   1.000  C
  H169     1.0000 0.73660  0.70700  0.38720  Biso   1.000  H
  C443     1.0000 0.74210  0.71050  0.43240  Biso   1.000  C
  C444     1.0000 0.70880  0.67570  0.44840  Biso   1.000  C
  C445     1.0000 0.69540  0.66730  0.48040  Biso   1.000  C
  C446     1.0000 0.66420  0.63750  0.48480  Biso   1.000  C
  H170     1.0000 0.64740  0.62150  0.47110  Biso   1.000  H
  O169     1.0000 0.56640  0.70600  0.38400  Biso   1.000  O
  O170     1.0000 0.56450  0.65350  0.35110  Biso   1.000  O
  O171     1.0000 0.66710  0.53130  0.35600  Biso   1.000  O
  O172     1.0000 0.72260  0.52650  0.38770  Biso   1.000  O
  C447     1.0000 0.69320  0.54850  0.37940  Biso   1.000  C
  C448     1.0000 0.67270  0.58890  0.38830  Biso   1.000  C
  C449     1.0000 0.63750  0.61100  0.37670  Biso   1.000  C
  H171     1.0000 0.62210  0.59760  0.36110  Biso   1.000  H
  C450     1.0000 0.62330  0.65050  0.38610  Biso   1.000  C
  C451     1.0000 0.58820  0.67310  0.37340  Biso   1.000  C
  C452     1.0000 0.64670  0.67420  0.40790  Biso   1.000  C
  H172     1.0000 0.63870  0.70280  0.41270  Biso   1.000  H
  C453     1.0000 0.68200  0.65440  0.42210  Biso   1.000  C
  C454     1.0000 0.69650  0.61360  0.41030  Biso   1.000  C
  H173     1.0000 0.72300  0.60230  0.41730  Biso   1.000  H
  O173     1.0000 0.79820  0.46720  0.38940  Biso   1.000  O
  O174     1.0000 0.79230  0.40630  0.35910  Biso   1.000  O
  C455     1.0000 0.81420  0.42980  0.37880  Biso   1.000  C
  C456     1.0000 0.85830  0.41060  0.38720  Biso   1.000  C
  C457     1.0000 0.88040  0.43390  0.40790  Biso   1.000  C
  H174     1.0000 0.86890  0.46060  0.41430  Biso   1.000  H
  C458     1.0000 0.91030  0.45690  0.25050  Biso   1.000  C
  C459     1.0000 0.88750  0.41770  0.24800  Biso   1.000  C
  H175     1.0000 0.85720  0.41380  0.24670  Biso   1.000  H
  C460     1.0000 0.76650  0.49570  0.27700  Biso   1.000  C
  C461     1.0000 0.81280  0.49740  0.27400  Biso   1.000  C
  H176     1.0000 0.82860  0.49660  0.29200  Biso   1.000  H
  O175     1.0000 0.76690  0.49480  0.33270  Biso   1.000  O
  O176     1.0000 0.69680  0.48620  0.30280  Biso   1.000  O
  C462     1.0000 0.74200  0.48760  0.31020  Biso   1.000  C
  Zn45     1.0000 0.75521  0.02166  0.86995  Biso   1.000  Zn
  Zn46     1.0000 0.84919  0.01255  0.82686  Biso   1.000  Zn
  C463     1.0000 0.75000  0.78040  0.90400  Biso   1.000  C
  H177     1.0000 0.76340  0.79300  0.88720  Biso   1.000  H
  C464     1.0000 0.75790  0.78950  0.93240  Biso   1.000  C
  C465     1.0000 0.79120  0.82430  0.94840  Biso   1.000  C
  C466     1.0000 0.80460  0.83270  0.98040  Biso   1.000  C
  C467     1.0000 0.83580  0.86250  0.98480  Biso   1.000  C
  H178     1.0000 0.85260  0.87850  0.97110  Biso   1.000  H
  O177     1.0000 0.93360  0.79400  0.88400  Biso   1.000  O
  O178     1.0000 0.93550  0.84650  0.85110  Biso   1.000  O
  O179     1.0000 0.83290  0.96870  0.85600  Biso   1.000  O
  O180     1.0000 0.77740  0.97350  0.88770  Biso   1.000  O
  C468     1.0000 0.80680  0.95150  0.87940  Biso   1.000  C
  C469     1.0000 0.82730  0.91110  0.88830  Biso   1.000  C
  C470     1.0000 0.86250  0.88900  0.87670  Biso   1.000  C
  H179     1.0000 0.87790  0.90240  0.86110  Biso   1.000  H
  C471     1.0000 0.87670  0.84950  0.88610  Biso   1.000  C
  C472     1.0000 0.91180  0.82690  0.87340  Biso   1.000  C
  C473     1.0000 0.85330  0.82580  0.90790  Biso   1.000  C
  H180     1.0000 0.86130  0.79720  0.91270  Biso   1.000  H
  C474     1.0000 0.81800  0.84560  0.92210  Biso   1.000  C
  C475     1.0000 0.80350  0.88640  0.91030  Biso   1.000  C
  H181     1.0000 0.77700  0.89770  0.91730  Biso   1.000  H
  O181     1.0000 0.70180  0.03280  0.88940  Biso   1.000  O
  O182     1.0000 0.70770  0.09370  0.85910  Biso   1.000  O
  C476     1.0000 0.68580  0.07020  0.87880  Biso   1.000  C
  C477     1.0000 0.64170  0.08940  0.88720  Biso   1.000  C
  C478     1.0000 0.61960  0.06610  0.90790  Biso   1.000  C
  H182     1.0000 0.63110  0.03940  0.91430  Biso   1.000  H
  C479     1.0000 0.58970  0.04310  0.75050  Biso   1.000  C
  C480     1.0000 0.61250  0.08230  0.74800  Biso   1.000  C
  H183     1.0000 0.64280  0.08620  0.74670  Biso   1.000  H
  C481     1.0000 0.73350  0.00430  0.77700  Biso   1.000  C
  C482     1.0000 0.68720  0.00260  0.77400  Biso   1.000  C
  H184     1.0000 0.67140  0.00340  0.79200  Biso   1.000  H
  O183     1.0000 0.73310  0.00520  0.83270  Biso   1.000  O
  O184     1.0000 0.80320  0.01380  0.80280  Biso   1.000  O
  C483     1.0000 0.75800  0.01240  0.81020  Biso   1.000  C
  Zn47     1.0000 0.25521  0.52166  0.36995  Biso   1.000  Zn
  Zn48     1.0000 0.34919  0.51255  0.32686  Biso   1.000  Zn
  C484     1.0000 0.25000  0.28040  0.40400  Biso   1.000  C
  H185     1.0000 0.26340  0.29300  0.38720  Biso   1.000  H
  C485     1.0000 0.25790  0.28950  0.43240  Biso   1.000  C
  C486     1.0000 0.29120  0.32430  0.44840  Biso   1.000  C
  C487     1.0000 0.30460  0.33270  0.48040  Biso   1.000  C
  C488     1.0000 0.33580  0.36250  0.48480  Biso   1.000  C
  H186     1.0000 0.35260  0.37850  0.47110  Biso   1.000  H
  O185     1.0000 0.43360  0.29400  0.38400  Biso   1.000  O
  O186     1.0000 0.43550  0.34650  0.35110  Biso   1.000  O
  O187     1.0000 0.33290  0.46870  0.35600  Biso   1.000  O
  O188     1.0000 0.27740  0.47350  0.38770  Biso   1.000  O
  C489     1.0000 0.30680  0.45150  0.37940  Biso   1.000  C
  C490     1.0000 0.32730  0.41110  0.38830  Biso   1.000  C
  C491     1.0000 0.36250  0.38900  0.37670  Biso   1.000  C
  H187     1.0000 0.37790  0.40240  0.36110  Biso   1.000  H
  C492     1.0000 0.37670  0.34950  0.38610  Biso   1.000  C
  C493     1.0000 0.41180  0.32690  0.37340  Biso   1.000  C
  C494     1.0000 0.35330  0.32580  0.40790  Biso   1.000  C
  H188     1.0000 0.36130  0.29720  0.41270  Biso   1.000  H
  C495     1.0000 0.31800  0.34560  0.42210  Biso   1.000  C
  C496     1.0000 0.30350  0.38640  0.41030  Biso   1.000  C
  H189     1.0000 0.27700  0.39770  0.41730  Biso   1.000  H
  O189     1.0000 0.20180  0.53280  0.38940  Biso   1.000  O
  O190     1.0000 0.20770  0.59370  0.35910  Biso   1.000  O
  C497     1.0000 0.18580  0.57020  0.37880  Biso   1.000  C
  C498     1.0000 0.14170  0.58940  0.38720  Biso   1.000  C
  C499     1.0000 0.11960  0.56610  0.40790  Biso   1.000  C
  H190     1.0000 0.13110  0.53940  0.41430  Biso   1.000  H
  C500     1.0000 0.08970  0.54310  0.25050  Biso   1.000  C
  C501     1.0000 0.11250  0.58230  0.24800  Biso   1.000  C
  H191     1.0000 0.14280  0.58620  0.24670  Biso   1.000  H
  C502     1.0000 0.23350  0.50430  0.27700  Biso   1.000  C
  C503     1.0000 0.18720  0.50260  0.27400  Biso   1.000  C
  H192     1.0000 0.17140  0.50340  0.29200  Biso   1.000  H
  O191     1.0000 0.23310  0.50520  0.33270  Biso   1.000  O
  O192     1.0000 0.30320  0.51380  0.30280  Biso   1.000  O
  C504     1.0000 0.25800  0.51240  0.31020  Biso   1.000  C
  Zn49     1.0000 0.02166  0.75521  0.63005  Biso   1.000  Zn
  Zn50     1.0000 0.01255  0.84919  0.67314  Biso   1.000  Zn
  C505     1.0000 0.78040  0.75000  0.59600  Biso   1.000  C
  H193     1.0000 0.79300  0.76340  0.61280  Biso   1.000  H
  C506     1.0000 0.78950  0.75790  0.56760  Biso   1.000  C
  C507     1.0000 0.82430  0.79120  0.55160  Biso   1.000  C
  C508     1.0000 0.83270  0.80460  0.51960  Biso   1.000  C
  C509     1.0000 0.86250  0.83580  0.51520  Biso   1.000  C
  H194     1.0000 0.87850  0.85260  0.52890  Biso   1.000  H
  O193     1.0000 0.79400  0.93360  0.61600  Biso   1.000  O
  O194     1.0000 0.84650  0.93550  0.64890  Biso   1.000  O
  O195     1.0000 0.96870  0.83290  0.64400  Biso   1.000  O
  O196     1.0000 0.97350  0.77740  0.61230  Biso   1.000  O
  C510     1.0000 0.95150  0.80680  0.62060  Biso   1.000  C
  C511     1.0000 0.91110  0.82730  0.61170  Biso   1.000  C
  C512     1.0000 0.88900  0.86250  0.62330  Biso   1.000  C
  H195     1.0000 0.90240  0.87790  0.63890  Biso   1.000  H
  C513     1.0000 0.84950  0.87670  0.61390  Biso   1.000  C
  C514     1.0000 0.82690  0.91180  0.62660  Biso   1.000  C
  C515     1.0000 0.82580  0.85330  0.59210  Biso   1.000  C
  H196     1.0000 0.79720  0.86130  0.58730  Biso   1.000  H
  C516     1.0000 0.84560  0.81800  0.57790  Biso   1.000  C
  C517     1.0000 0.88640  0.80350  0.58970  Biso   1.000  C
  H197     1.0000 0.89770  0.77700  0.58270  Biso   1.000  H
  O197     1.0000 0.03280  0.70180  0.61060  Biso   1.000  O
  O198     1.0000 0.09370  0.70770  0.64090  Biso   1.000  O
  C518     1.0000 0.07020  0.68580  0.62120  Biso   1.000  C
  C519     1.0000 0.08940  0.64170  0.61280  Biso   1.000  C
  C520     1.0000 0.06610  0.61960  0.59210  Biso   1.000  C
  H198     1.0000 0.03940  0.63110  0.58570  Biso   1.000  H
  C521     1.0000 0.04310  0.58970  0.74950  Biso   1.000  C
  C522     1.0000 0.08230  0.61250  0.75200  Biso   1.000  C
  H199     1.0000 0.08620  0.64280  0.75330  Biso   1.000  H
  C523     1.0000 0.00430  0.73350  0.72300  Biso   1.000  C
  C524     1.0000 0.00260  0.68720  0.72600  Biso   1.000  C
  H200     1.0000 0.00340  0.67140  0.70800  Biso   1.000  H
  O199     1.0000 0.00520  0.73310  0.66730  Biso   1.000  O
  O200     1.0000 0.01380  0.80320  0.69720  Biso   1.000  O
  C525     1.0000 0.01240  0.75800  0.68980  Biso   1.000  C
  Zn51     1.0000 0.52166  0.25521  0.13005  Biso   1.000  Zn
  Zn52     1.0000 0.51255  0.34919  0.17314  Biso   1.000  Zn
  C526     1.0000 0.28040  0.25000  0.09600  Biso   1.000  C
  H201     1.0000 0.29300  0.26340  0.11280  Biso   1.000  H
  C527     1.0000 0.28950  0.25790  0.06760  Biso   1.000  C
  C528     1.0000 0.32430  0.29120  0.05160  Biso   1.000  C
  C529     1.0000 0.33270  0.30460  0.01960  Biso   1.000  C
  C530     1.0000 0.36250  0.33580  0.01520  Biso   1.000  C
  H202     1.0000 0.37850  0.35260  0.02890  Biso   1.000  H
  O201     1.0000 0.29400  0.43360  0.11600  Biso   1.000  O
  O202     1.0000 0.34650  0.43550  0.14890  Biso   1.000  O
  O203     1.0000 0.46870  0.33290  0.14400  Biso   1.000  O
  O204     1.0000 0.47350  0.27740  0.11230  Biso   1.000  O
  C531     1.0000 0.45150  0.30680  0.12060  Biso   1.000  C
  C532     1.0000 0.41110  0.32730  0.11170  Biso   1.000  C
  C533     1.0000 0.38900  0.36250  0.12330  Biso   1.000  C
  H203     1.0000 0.40240  0.37790  0.13890  Biso   1.000  H
  C534     1.0000 0.34950  0.37670  0.11390  Biso   1.000  C
  C535     1.0000 0.32690  0.41180  0.12660  Biso   1.000  C
  C536     1.0000 0.32580  0.35330  0.09210  Biso   1.000  C
  H204     1.0000 0.29720  0.36130  0.08730  Biso   1.000  H
  C537     1.0000 0.34560  0.31800  0.07790  Biso   1.000  C
  C538     1.0000 0.38640  0.30350  0.08970  Biso   1.000  C
  H205     1.0000 0.39770  0.27700  0.08270  Biso   1.000  H
  O205     1.0000 0.53280  0.20180  0.11060  Biso   1.000  O
  O206     1.0000 0.59370  0.20770  0.14090  Biso   1.000  O
  C539     1.0000 0.57020  0.18580  0.12120  Biso   1.000  C
  C540     1.0000 0.58940  0.14170  0.11280  Biso   1.000  C
  C541     1.0000 0.56610  0.11960  0.09210  Biso   1.000  C
  H206     1.0000 0.53940  0.13110  0.08570  Biso   1.000  H
  C542     1.0000 0.54310  0.08970  0.24950  Biso   1.000  C
  C543     1.0000 0.58230  0.11250  0.25200  Biso   1.000  C
  H207     1.0000 0.58620  0.14280  0.25330  Biso   1.000  H
  C544     1.0000 0.50430  0.23350  0.22300  Biso   1.000  C
  C545     1.0000 0.50260  0.18720  0.22600  Biso   1.000  C
  H208     1.0000 0.50340  0.17140  0.20800  Biso   1.000  H
  O207     1.0000 0.50520  0.23310  0.16730  Biso   1.000  O
  O208     1.0000 0.51380  0.30320  0.19720  Biso   1.000  O
  C546     1.0000 0.51240  0.25800  0.18980  Biso   1.000  C
  Zn53     1.0000 0.97834  0.24479  0.63005  Biso   1.000  Zn
  Zn54     1.0000 0.98745  0.15081  0.67314  Biso   1.000  Zn
  C547     1.0000 0.21960  0.25000  0.59600  Biso   1.000  C
  H209     1.0000 0.20700  0.23660  0.61280  Biso   1.000  H
  C548     1.0000 0.21050  0.24210  0.56760  Biso   1.000  C
  C549     1.0000 0.17570  0.20880  0.55160  Biso   1.000  C
  C550     1.0000 0.16730  0.19540  0.51960  Biso   1.000  C
  C551     1.0000 0.13750  0.16420  0.51520  Biso   1.000  C
  H210     1.0000 0.12150  0.14740  0.52890  Biso   1.000  H
  O209     1.0000 0.20600  0.06640  0.61600  Biso   1.000  O
  O210     1.0000 0.15350  0.06450  0.64890  Biso   1.000  O
  O211     1.0000 0.03130  0.16710  0.64400  Biso   1.000  O
  O212     1.0000 0.02650  0.22260  0.61230  Biso   1.000  O
  C552     1.0000 0.04850  0.19320  0.62060  Biso   1.000  C
  C553     1.0000 0.08890  0.17270  0.61170  Biso   1.000  C
  C554     1.0000 0.11100  0.13750  0.62330  Biso   1.000  C
  H211     1.0000 0.09760  0.12210  0.63890  Biso   1.000  H
  C555     1.0000 0.15050  0.12330  0.61390  Biso   1.000  C
  C556     1.0000 0.17310  0.08820  0.62660  Biso   1.000  C
  C557     1.0000 0.17420  0.14670  0.59210  Biso   1.000  C
  H212     1.0000 0.20280  0.13870  0.58730  Biso   1.000  H
  C558     1.0000 0.15440  0.18200  0.57790  Biso   1.000  C
  C559     1.0000 0.11360  0.19650  0.58970  Biso   1.000  C
  H213     1.0000 0.10230  0.22300  0.58270  Biso   1.000  H
  O213     1.0000 0.96720  0.29820  0.61060  Biso   1.000  O
  O214     1.0000 0.90630  0.29230  0.64090  Biso   1.000  O
  C560     1.0000 0.92980  0.31420  0.62120  Biso   1.000  C
  C561     1.0000 0.91060  0.35830  0.61280  Biso   1.000  C
  C562     1.0000 0.93390  0.38040  0.59210  Biso   1.000  C
  H214     1.0000 0.96060  0.36890  0.58570  Biso   1.000  H
  C563     1.0000 0.95690  0.41030  0.74950  Biso   1.000  C
  C564     1.0000 0.91770  0.38750  0.75200  Biso   1.000  C
  H215     1.0000 0.91380  0.35720  0.75330  Biso   1.000  H
  C565     1.0000 0.99570  0.26650  0.72300  Biso   1.000  C
  C566     1.0000 0.99740  0.31280  0.72600  Biso   1.000  C
  H216     1.0000 0.99660  0.32860  0.70800  Biso   1.000  H
  O215     1.0000 0.99480  0.26690  0.66730  Biso   1.000  O
  O216     1.0000 0.98620  0.19680  0.69720  Biso   1.000  O
  C567     1.0000 0.98760  0.24200  0.68980  Biso   1.000  C
  Zn55     1.0000 0.47834  0.74479  0.13005  Biso   1.000  Zn
  Zn56     1.0000 0.48745  0.65081  0.17314  Biso   1.000  Zn
  C568     1.0000 0.71960  0.75000  0.09600  Biso   1.000  C
  H217     1.0000 0.70700  0.73660  0.11280  Biso   1.000  H
  C569     1.0000 0.71050  0.74210  0.06760  Biso   1.000  C
  C570     1.0000 0.67570  0.70880  0.05160  Biso   1.000  C
  C571     1.0000 0.66730  0.69540  0.01960  Biso   1.000  C
  C572     1.0000 0.63750  0.66420  0.01520  Biso   1.000  C
  H218     1.0000 0.62150  0.64740  0.02890  Biso   1.000  H
  O217     1.0000 0.70600  0.56640  0.11600  Biso   1.000  O
  O218     1.0000 0.65350  0.56450  0.14890  Biso   1.000  O
  O219     1.0000 0.53130  0.66710  0.14400  Biso   1.000  O
  O220     1.0000 0.52650  0.72260  0.11230  Biso   1.000  O
  C573     1.0000 0.54850  0.69320  0.12060  Biso   1.000  C
  C574     1.0000 0.58890  0.67270  0.11170  Biso   1.000  C
  C575     1.0000 0.61100  0.63750  0.12330  Biso   1.000  C
  H219     1.0000 0.59760  0.62210  0.13890  Biso   1.000  H
  C576     1.0000 0.65050  0.62330  0.11390  Biso   1.000  C
  C577     1.0000 0.67310  0.58820  0.12660  Biso   1.000  C
  C578     1.0000 0.67420  0.64670  0.09210  Biso   1.000  C
  H220     1.0000 0.70280  0.63870  0.08730  Biso   1.000  H
  C579     1.0000 0.65440  0.68200  0.07790  Biso   1.000  C
  C580     1.0000 0.61360  0.69650  0.08970  Biso   1.000  C
  H221     1.0000 0.60230  0.72300  0.08270  Biso   1.000  H
  O221     1.0000 0.46720  0.79820  0.11060  Biso   1.000  O
  O222     1.0000 0.40630  0.79230  0.14090  Biso   1.000  O
  C581     1.0000 0.42980  0.81420  0.12120  Biso   1.000  C
  C582     1.0000 0.41060  0.85830  0.11280  Biso   1.000  C
  C583     1.0000 0.43390  0.88040  0.09210  Biso   1.000  C
  H222     1.0000 0.46060  0.86890  0.08570  Biso   1.000  H
  C584     1.0000 0.45690  0.91030  0.24950  Biso   1.000  C
  C585     1.0000 0.41770  0.88750  0.25200  Biso   1.000  C
  H223     1.0000 0.41380  0.85720  0.25330  Biso   1.000  H
  C586     1.0000 0.49570  0.76650  0.22300  Biso   1.000  C
  C587     1.0000 0.49740  0.81280  0.22600  Biso   1.000  C
  H224     1.0000 0.49660  0.82860  0.20800  Biso   1.000  H
  O223     1.0000 0.49480  0.76690  0.16730  Biso   1.000  O
  O224     1.0000 0.48620  0.69680  0.19720  Biso   1.000  O
  C588     1.0000 0.48760  0.74200  0.18980  Biso   1.000  C
  Zn57     1.0000 0.75521  0.97834  0.63005  Biso   1.000  Zn
  Zn58     1.0000 0.84919  0.98745  0.67314  Biso   1.000  Zn
  C589     1.0000 0.75000  0.21960  0.59600  Biso   1.000  C
  H225     1.0000 0.76340  0.20700  0.61280  Biso   1.000  H
  C590     1.0000 0.75790  0.21050  0.56760  Biso   1.000  C
  C591     1.0000 0.79120  0.17570  0.55160  Biso   1.000  C
  C592     1.0000 0.80460  0.16730  0.51960  Biso   1.000  C
  C593     1.0000 0.83580  0.13750  0.51520  Biso   1.000  C
  H226     1.0000 0.85260  0.12150  0.52890  Biso   1.000  H
  O225     1.0000 0.93360  0.20600  0.61600  Biso   1.000  O
  O226     1.0000 0.93550  0.15350  0.64890  Biso   1.000  O
  O227     1.0000 0.83290  0.03130  0.64400  Biso   1.000  O
  O228     1.0000 0.77740  0.02650  0.61230  Biso   1.000  O
  C594     1.0000 0.80680  0.04850  0.62060  Biso   1.000  C
  C595     1.0000 0.82730  0.08890  0.61170  Biso   1.000  C
  C596     1.0000 0.86250  0.11100  0.62330  Biso   1.000  C
  H227     1.0000 0.87790  0.09760  0.63890  Biso   1.000  H
  C597     1.0000 0.87670  0.15050  0.61390  Biso   1.000  C
  C598     1.0000 0.91180  0.17310  0.62660  Biso   1.000  C
  C599     1.0000 0.85330  0.17420  0.59210  Biso   1.000  C
  H228     1.0000 0.86130  0.20280  0.58730  Biso   1.000  H
  C600     1.0000 0.81800  0.15440  0.57790  Biso   1.000  C
  C601     1.0000 0.80350  0.11360  0.58970  Biso   1.000  C
  H229     1.0000 0.77700  0.10230  0.58270  Biso   1.000  H
  O229     1.0000 0.70180  0.96720  0.61060  Biso   1.000  O
  O230     1.0000 0.70770  0.90630  0.64090  Biso   1.000  O
  C602     1.0000 0.68580  0.92980  0.62120  Biso   1.000  C
  C603     1.0000 0.64170  0.91060  0.61280  Biso   1.000  C
  C604     1.0000 0.61960  0.93390  0.59210  Biso   1.000  C
  H230     1.0000 0.63110  0.96060  0.58570  Biso   1.000  H
  C605     1.0000 0.58970  0.95690  0.74950  Biso   1.000  C
  C606     1.0000 0.61250  0.91770  0.75200  Biso   1.000  C
  H231     1.0000 0.64280  0.91380  0.75330  Biso   1.000  H
  C607     1.0000 0.73350  0.99570  0.72300  Biso   1.000  C
  C608     1.0000 0.68720  0.99740  0.72600  Biso   1.000  C
  H232     1.0000 0.67140  0.99660  0.70800  Biso   1.000  H
  O231     1.0000 0.73310  0.99480  0.66730  Biso   1.000  O
  O232     1.0000 0.80320  0.98620  0.69720  Biso   1.000  O
  C609     1.0000 0.75800  0.98760  0.68980  Biso   1.000  C
  Zn59     1.0000 0.25521  0.47834  0.13005  Biso   1.000  Zn
  Zn60     1.0000 0.34919  0.48745  0.17314  Biso   1.000  Zn
  C610     1.0000 0.25000  0.71960  0.09600  Biso   1.000  C
  H233     1.0000 0.26340  0.70700  0.11280  Biso   1.000  H
  C611     1.0000 0.25790  0.71050  0.06760  Biso   1.000  C
  C612     1.0000 0.29120  0.67570  0.05160  Biso   1.000  C
  C613     1.0000 0.30460  0.66730  0.01960  Biso   1.000  C
  C614     1.0000 0.33580  0.63750  0.01520  Biso   1.000  C
  H234     1.0000 0.35260  0.62150  0.02890  Biso   1.000  H
  O233     1.0000 0.43360  0.70600  0.11600  Biso   1.000  O
  O234     1.0000 0.43550  0.65350  0.14890  Biso   1.000  O
  O235     1.0000 0.33290  0.53130  0.14400  Biso   1.000  O
  O236     1.0000 0.27740  0.52650  0.11230  Biso   1.000  O
  C615     1.0000 0.30680  0.54850  0.12060  Biso   1.000  C
  C616     1.0000 0.32730  0.58890  0.11170  Biso   1.000  C
  C617     1.0000 0.36250  0.61100  0.12330  Biso   1.000  C
  H235     1.0000 0.37790  0.59760  0.13890  Biso   1.000  H
  C618     1.0000 0.37670  0.65050  0.11390  Biso   1.000  C
  C619     1.0000 0.41180  0.67310  0.12660  Biso   1.000  C
  C620     1.0000 0.35330  0.67420  0.09210  Biso   1.000  C
  H236     1.0000 0.36130  0.70280  0.08730  Biso   1.000  H
  C621     1.0000 0.31800  0.65440  0.07790  Biso   1.000  C
  C622     1.0000 0.30350  0.61360  0.08970  Biso   1.000  C
  H237     1.0000 0.27700  0.60230  0.08270  Biso   1.000  H
  O237     1.0000 0.20180  0.46720  0.11060  Biso   1.000  O
  O238     1.0000 0.20770  0.40630  0.14090  Biso   1.000  O
  C623     1.0000 0.18580  0.42980  0.12120  Biso   1.000  C
  C624     1.0000 0.14170  0.41060  0.11280  Biso   1.000  C
  C625     1.0000 0.11960  0.43390  0.09210  Biso   1.000  C
  H238     1.0000 0.13110  0.46060  0.08570  Biso   1.000  H
  C626     1.0000 0.08970  0.45690  0.24950  Biso   1.000  C
  C627     1.0000 0.11250  0.41770  0.25200  Biso   1.000  C
  H239     1.0000 0.14280  0.41380  0.25330  Biso   1.000  H
  C628     1.0000 0.23350  0.49570  0.22300  Biso   1.000  C
  C629     1.0000 0.18720  0.49740  0.22600  Biso   1.000  C
  H240     1.0000 0.17140  0.49660  0.20800  Biso   1.000  H
  O239     1.0000 0.23310  0.49480  0.16730  Biso   1.000  O
  O240     1.0000 0.30320  0.48620  0.19720  Biso   1.000  O
  C630     1.0000 0.25800  0.48760  0.18980  Biso   1.000  C
  Zn61     1.0000 0.24479  0.02166  0.63005  Biso   1.000  Zn
  Zn62     1.0000 0.15081  0.01255  0.67314  Biso   1.000  Zn
  C631     1.0000 0.25000  0.78040  0.59600  Biso   1.000  C
  H241     1.0000 0.23660  0.79300  0.61280  Biso   1.000  H
  C632     1.0000 0.24210  0.78950  0.56760  Biso   1.000  C
  C633     1.0000 0.20880  0.82430  0.55160  Biso   1.000  C
  C634     1.0000 0.19540  0.83270  0.51960  Biso   1.000  C
  C635     1.0000 0.16420  0.86250  0.51520  Biso   1.000  C
  H242     1.0000 0.14740  0.87850  0.52890  Biso   1.000  H
  O241     1.0000 0.06640  0.79400  0.61600  Biso   1.000  O
  O242     1.0000 0.06450  0.84650  0.64890  Biso   1.000  O
  O243     1.0000 0.16710  0.96870  0.64400  Biso   1.000  O
  O244     1.0000 0.22260  0.97350  0.61230  Biso   1.000  O
  C636     1.0000 0.19320  0.95150  0.62060  Biso   1.000  C
  C637     1.0000 0.17270  0.91110  0.61170  Biso   1.000  C
  C638     1.0000 0.13750  0.88900  0.62330  Biso   1.000  C
  H243     1.0000 0.12210  0.90240  0.63890  Biso   1.000  H
  C639     1.0000 0.12330  0.84950  0.61390  Biso   1.000  C
  C640     1.0000 0.08820  0.82690  0.62660  Biso   1.000  C
  C641     1.0000 0.14670  0.82580  0.59210  Biso   1.000  C
  H244     1.0000 0.13870  0.79720  0.58730  Biso   1.000  H
  C642     1.0000 0.18200  0.84560  0.57790  Biso   1.000  C
  C643     1.0000 0.19650  0.88640  0.58970  Biso   1.000  C
  H245     1.0000 0.22300  0.89770  0.58270  Biso   1.000  H
  O245     1.0000 0.29820  0.03280  0.61060  Biso   1.000  O
  O246     1.0000 0.29230  0.09370  0.64090  Biso   1.000  O
  C644     1.0000 0.31420  0.07020  0.62120  Biso   1.000  C
  C645     1.0000 0.35830  0.08940  0.61280  Biso   1.000  C
  C646     1.0000 0.38040  0.06610  0.59210  Biso   1.000  C
  H246     1.0000 0.36890  0.03940  0.58570  Biso   1.000  H
  C647     1.0000 0.41030  0.04310  0.74950  Biso   1.000  C
  C648     1.0000 0.38750  0.08230  0.75200  Biso   1.000  C
  H247     1.0000 0.35720  0.08620  0.75330  Biso   1.000  H
  C649     1.0000 0.26650  0.00430  0.72300  Biso   1.000  C
  C650     1.0000 0.31280  0.00260  0.72600  Biso   1.000  C
  H248     1.0000 0.32860  0.00340  0.70800  Biso   1.000  H
  O247     1.0000 0.26690  0.00520  0.66730  Biso   1.000  O
  O248     1.0000 0.19680  0.01380  0.69720  Biso   1.000  O
  C651     1.0000 0.24200  0.01240  0.68980  Biso   1.000  C
  Zn63     1.0000 0.74479  0.52166  0.13005  Biso   1.000  Zn
  Zn64     1.0000 0.65081  0.51255  0.17314  Biso   1.000  Zn
  C652     1.0000 0.75000  0.28040  0.09600  Biso   1.000  C
  H249     1.0000 0.73660  0.29300  0.11280  Biso   1.000  H
  C653     1.0000 0.74210  0.28950  0.06760  Biso   1.000  C
  C654     1.0000 0.70880  0.32430  0.05160  Biso   1.000  C
  C655     1.0000 0.69540  0.33270  0.01960  Biso   1.000  C
  C656     1.0000 0.66420  0.36250  0.01520  Biso   1.000  C
  H250     1.0000 0.64740  0.37850  0.02890  Biso   1.000  H
  O249     1.0000 0.56640  0.29400  0.11600  Biso   1.000  O
  O250     1.0000 0.56450  0.34650  0.14890  Biso   1.000  O
  O251     1.0000 0.66710  0.46870  0.14400  Biso   1.000  O
  O252     1.0000 0.72260  0.47350  0.11230  Biso   1.000  O
  C657     1.0000 0.69320  0.45150  0.12060  Biso   1.000  C
  C658     1.0000 0.67270  0.41110  0.11170  Biso   1.000  C
  C659     1.0000 0.63750  0.38900  0.12330  Biso   1.000  C
  H251     1.0000 0.62210  0.40240  0.13890  Biso   1.000  H
  C660     1.0000 0.62330  0.34950  0.11390  Biso   1.000  C
  C661     1.0000 0.58820  0.32690  0.12660  Biso   1.000  C
  C662     1.0000 0.64670  0.32580  0.09210  Biso   1.000  C
  H252     1.0000 0.63870  0.29720  0.08730  Biso   1.000  H
  C663     1.0000 0.68200  0.34560  0.07790  Biso   1.000  C
  C664     1.0000 0.69650  0.38640  0.08970  Biso   1.000  C
  H253     1.0000 0.72300  0.39770  0.08270  Biso   1.000  H
  O253     1.0000 0.79820  0.53280  0.11060  Biso   1.000  O
  O254     1.0000 0.79230  0.59370  0.14090  Biso   1.000  O
  C665     1.0000 0.81420  0.57020  0.12120  Biso   1.000  C
  C666     1.0000 0.85830  0.58940  0.11280  Biso   1.000  C
  C667     1.0000 0.88040  0.56610  0.09210  Biso   1.000  C
  H254     1.0000 0.86890  0.53940  0.08570  Biso   1.000  H
  C668     1.0000 0.91030  0.54310  0.24950  Biso   1.000  C
  C669     1.0000 0.88750  0.58230  0.25200  Biso   1.000  C
  H255     1.0000 0.85720  0.58620  0.25330  Biso   1.000  H
  C670     1.0000 0.76650  0.50430  0.22300  Biso   1.000  C
  C671     1.0000 0.81280  0.50260  0.22600  Biso   1.000  C
  H256     1.0000 0.82860  0.50340  0.20800  Biso   1.000  H
  O255     1.0000 0.76690  0.50520  0.16730  Biso   1.000  O
  O256     1.0000 0.69680  0.51380  0.19720  Biso   1.000  O
  C672     1.0000 0.74200  0.51240  0.18980  Biso   1.000  C
  Mn1      1.0000 0.76769  0.26769  0.00000  Biso   1.000  Mn
  Cl1      1.0000 0.71010  0.21010  0.00000  Biso   1.000  Cl
  Cl2      1.0000 0.82030  0.32030  0.00000  Biso   1.000  Cl
  Cl3      1.0000 0.94690  0.44690  0.00000  Biso   1.000  Cl
  Mn2      1.0000 0.23231  0.73231  0.00000  Biso   1.000  Mn
  Cl4      1.0000 0.28990  0.78990  0.00000  Biso   1.000  Cl
  Cl5      1.0000 0.17970  0.67970  0.00000  Biso   1.000  Cl
  Cl6      1.0000 0.05310  0.55310  0.00000  Biso   1.000  Cl
  Mn3      1.0000 0.73231  0.76769  0.00000  Biso   1.000  Mn
  Cl7      1.0000 0.78990  0.71010  0.00000  Biso   1.000  Cl
  Cl8      1.0000 0.67970  0.82030  0.00000  Biso   1.000  Cl
  Cl9      1.0000 0.55310  0.94690  0.00000  Biso   1.000  Cl
  Mn4      1.0000 0.23231  0.26769  0.50000  Biso   1.000  Mn
  Cl10     1.0000 0.28990  0.21010  0.50000  Biso   1.000  Cl
  Cl11     1.0000 0.17970  0.32030  0.50000  Biso   1.000  Cl
  Cl12     1.0000 0.05310  0.44690  0.50000  Biso   1.000  Cl
  Mn5      1.0000 0.26769  0.23231  0.00000  Biso   1.000  Mn
  Cl13     1.0000 0.21010  0.28990  0.00000  Biso   1.000  Cl
  Cl14     1.0000 0.32030  0.17970  0.00000  Biso   1.000  Cl
  Cl15     1.0000 0.44690  0.05310  0.00000  Biso   1.000  Cl
  Mn6      1.0000 0.76769  0.73231  0.50000  Biso   1.000  Mn
  Cl16     1.0000 0.71010  0.78990  0.50000  Biso   1.000  Cl
  Cl17     1.0000 0.82030  0.67970  0.50000  Biso   1.000  Cl
  Cl18     1.0000 0.94690  0.55310  0.50000  Biso   1.000  Cl
  Mn7      1.0000 0.26769  0.76769  0.50000  Biso   1.000  Mn
  Cl19     1.0000 0.21010  0.71010  0.50000  Biso   1.000  Cl
  Cl20     1.0000 0.32030  0.82030  0.50000  Biso   1.000  Cl
  Cl21     1.0000 0.44690  0.94690  0.50000  Biso   1.000  Cl
  Mn8      1.0000 0.73231  0.23231  0.50000  Biso   1.000  Mn
  Cl22     1.0000 0.78990  0.28990  0.50000  Biso   1.000  Cl
  Cl23     1.0000 0.67970  0.17970  0.50000  Biso   1.000  Cl
  Cl24     1.0000 0.55310  0.05310  0.50000  Biso   1.000  Cl
  N1       1.0000 0.81200  0.21730  0.00000  Biso   1.000  N
  N2       1.0000 0.31200  0.71730  0.50000  Biso   1.000  N
  N3       1.0000 0.18800  0.78270  0.00000  Biso   1.000  N
  N4       1.0000 0.68800  0.28270  0.50000  Biso   1.000  N
  N5       1.0000 0.78270  0.81200  0.00000  Biso   1.000  N
  N6       1.0000 0.28270  0.31200  0.50000  Biso   1.000  N
  N7       1.0000 0.21730  0.18800  0.00000  Biso   1.000  N
  N8       1.0000 0.71730  0.68800  0.50000  Biso   1.000  N
  N9       1.0000 0.18800  0.21730  0.50000  Biso   1.000  N
  N10      1.0000 0.68800  0.71730  0.00000  Biso   1.000  N
  N11      1.0000 0.81200  0.78270  0.50000  Biso   1.000  N
  N12      1.0000 0.31200  0.28270  0.00000  Biso   1.000  N
  N13      1.0000 0.21730  0.81200  0.50000  Biso   1.000  N
  N14      1.0000 0.71730  0.31200  0.00000  Biso   1.000  N
  N15      1.0000 0.78270  0.18800  0.50000  Biso   1.000  N
  N16      1.0000 0.28270  0.68800  0.00000  Biso   1.000  N
  N17      1.0000 0.76560  0.26560  0.04390  Biso   1.000  N
  N18      1.0000 0.23440  0.73440  0.04390  Biso   1.000  N
  N19      1.0000 0.73440  0.76560  0.04390  Biso   1.000  N
  N20      1.0000 0.23440  0.26560  0.54390  Biso   1.000  N
  N21      1.0000 0.26560  0.23440  0.04390  Biso   1.000  N
  N22      1.0000 0.23440  0.26560  0.45610  Biso   1.000  N
  N23      1.0000 0.76560  0.73440  0.45610  Biso   1.000  N
  N24      1.0000 0.26560  0.76560  0.45610  Biso   1.000  N
  N25      1.0000 0.73440  0.23440  0.45610  Biso   1.000  N
  N26      1.0000 0.23440  0.73440  0.95610  Biso   1.000  N
  N27      1.0000 0.76560  0.26560  0.95610  Biso   1.000  N
  N28      1.0000 0.26560  0.23440  0.95610  Biso   1.000  N
  N29      1.0000 0.73440  0.76560  0.95610  Biso   1.000  N
  N30      1.0000 0.76560  0.73440  0.54390  Biso   1.000  N
  N31      1.0000 0.73440  0.23440  0.54390  Biso   1.000  N
  N32      1.0000 0.26560  0.76560  0.54390  Biso   1.000  N
  Mn9      1.0000 0.00000  0.50000  0.00000  Biso   1.000  Mn
  Mn10     1.0000 0.50000  0.00000  0.50000  Biso   1.000  Mn
  Mn11     1.0000 0.50000  0.00000  0.00000  Biso   1.000  Mn
  Mn12     1.0000 0.00000  0.50000  0.50000  Biso   1.000  Mn
  N33      1.0000 0.04670  0.45330  0.00000  Biso   1.000  N
  N34      1.0000 0.95330  0.54670  0.00000  Biso   1.000  N
  N35      1.0000 0.45330  0.04670  0.50000  Biso   1.000  N
  N36      1.0000 0.54670  0.04670  0.00000  Biso   1.000  N
  N37      1.0000 0.45330  0.95330  0.00000  Biso   1.000  N
  N38      1.0000 0.95330  0.45330  0.50000  Biso   1.000  N
  N39      1.0000 0.04670  0.54670  0.50000  Biso   1.000  N
  N40      1.0000 0.54670  0.95330  0.50000  Biso   1.000  N
  N41      1.0000 0.00000  0.50000  0.03270  Biso   1.000  N
  Cl25     1.0000 0.00000  0.50000  0.19850  Biso   1.000  Cl
  N42      1.0000 0.50000  0.00000  0.03270  Biso   1.000  N
  Cl26     1.0000 0.50000  0.00000  0.19850  Biso   1.000  Cl
  N43      1.0000 0.00000  0.50000  0.46730  Biso   1.000  N
  Cl27     1.0000 0.00000  0.50000  0.30150  Biso   1.000  Cl
  N44      1.0000 0.50000  0.00000  0.46730  Biso   1.000  N
  Cl28     1.0000 0.50000  0.00000  0.30150  Biso   1.000  Cl
  N45      1.0000 0.00000  0.50000  0.96730  Biso   1.000  N
  Cl29     1.0000 0.00000  0.50000  0.80150  Biso   1.000  Cl
  N46      1.0000 0.50000  0.00000  0.96730  Biso   1.000  N
  Cl30     1.0000 0.50000  0.00000  0.80150  Biso   1.000  Cl
  N47      1.0000 0.00000  0.50000  0.53270  Biso   1.000  N
  Cl31     1.0000 0.00000  0.50000  0.69850  Biso   1.000  Cl
  N48      1.0000 0.50000  0.00000  0.53270  Biso   1.000  N
  Cl32     1.0000 0.50000  0.00000  0.69850  Biso   1.000  Cl
  C673     1.0000 0.09830  0.40170  0.01430  Biso   1.000  C
  H257     1.0000 0.11570  0.38430  0.02680  Biso   1.000  H
  C674     1.0000 0.06530  0.43470  0.02420  Biso   1.000  C
  C675     1.0000 0.05440  0.44560  0.05510  Biso   1.000  C
  C676     1.0000 0.02120  0.47880  0.06160  Biso   1.000  C
  C677     1.0000 0.01480  0.48520  0.09360  Biso   1.000  C
  H258     1.0000 0.02860  0.47140  0.10980  Biso   1.000  H
  C678     1.0000 0.12460  0.37540  0.12510  Biso   1.000  C
  H259     1.0000 0.13710  0.36290  0.14210  Biso   1.000  H
  C679     1.0000 0.08050  0.41950  0.08010  Biso   1.000  C
  N49      1.0000 0.04730  0.45270  0.25090  Biso   1.000  N
  C680     1.0000 0.90170  0.59830  0.01430  Biso   1.000  C
  H260     1.0000 0.88430  0.61570  0.02680  Biso   1.000  H
  C681     1.0000 0.93470  0.56530  0.02420  Biso   1.000  C
  C682     1.0000 0.94560  0.55440  0.05510  Biso   1.000  C
  C683     1.0000 0.97880  0.52120  0.06160  Biso   1.000  C
  C684     1.0000 0.98520  0.51480  0.09360  Biso   1.000  C
  H261     1.0000 0.97140  0.52860  0.10980  Biso   1.000  H
  C685     1.0000 0.87540  0.62460  0.12510  Biso   1.000  C
  H262     1.0000 0.86290  0.63710  0.14210  Biso   1.000  H
  C686     1.0000 0.91950  0.58050  0.08010  Biso   1.000  C
  N50      1.0000 0.95270  0.54730  0.25090  Biso   1.000  N
  C687     1.0000 0.40170  0.09830  0.51430  Biso   1.000  C
  H263     1.0000 0.38430  0.11570  0.52680  Biso   1.000  H
  C688     1.0000 0.43470  0.06530  0.52420  Biso   1.000  C
  C689     1.0000 0.44560  0.05440  0.55510  Biso   1.000  C
  C690     1.0000 0.47880  0.02120  0.56160  Biso   1.000  C
  C691     1.0000 0.48520  0.01480  0.59360  Biso   1.000  C
  H264     1.0000 0.47140  0.02860  0.60980  Biso   1.000  H
  C692     1.0000 0.37540  0.12460  0.62510  Biso   1.000  C
  H265     1.0000 0.36290  0.13710  0.64210  Biso   1.000  H
  C693     1.0000 0.41950  0.08050  0.58010  Biso   1.000  C
  N51      1.0000 0.45270  0.04730  0.75090  Biso   1.000  N
  C694     1.0000 0.59830  0.09830  0.01430  Biso   1.000  C
  H266     1.0000 0.61570  0.11570  0.02680  Biso   1.000  H
  C695     1.0000 0.56530  0.06530  0.02420  Biso   1.000  C
  C696     1.0000 0.55440  0.05440  0.05510  Biso   1.000  C
  C697     1.0000 0.52120  0.02120  0.06160  Biso   1.000  C
  C698     1.0000 0.51480  0.01480  0.09360  Biso   1.000  C
  H267     1.0000 0.52860  0.02860  0.10980  Biso   1.000  H
  C699     1.0000 0.62460  0.12460  0.12510  Biso   1.000  C
  H268     1.0000 0.63710  0.13710  0.14210  Biso   1.000  H
  C700     1.0000 0.58050  0.08050  0.08010  Biso   1.000  C
  N52      1.0000 0.54730  0.04730  0.25090  Biso   1.000  N
  C701     1.0000 0.40170  0.90170  0.01430  Biso   1.000  C
  H269     1.0000 0.38430  0.88430  0.02680  Biso   1.000  H
  C702     1.0000 0.43470  0.93470  0.02420  Biso   1.000  C
  C703     1.0000 0.44560  0.94560  0.05510  Biso   1.000  C
  C704     1.0000 0.47880  0.97880  0.06160  Biso   1.000  C
  C705     1.0000 0.48520  0.98520  0.09360  Biso   1.000  C
  H270     1.0000 0.47140  0.97140  0.10980  Biso   1.000  H
  C706     1.0000 0.37540  0.87540  0.12510  Biso   1.000  C
  H271     1.0000 0.36290  0.86290  0.14210  Biso   1.000  H
  C707     1.0000 0.41950  0.91950  0.08010  Biso   1.000  C
  N53      1.0000 0.45270  0.95270  0.25090  Biso   1.000  N
  C708     1.0000 0.90170  0.40170  0.48570  Biso   1.000  C
  H272     1.0000 0.88430  0.38430  0.47320  Biso   1.000  H
  C709     1.0000 0.93470  0.43470  0.47580  Biso   1.000  C
  C710     1.0000 0.94560  0.44560  0.44490  Biso   1.000  C
  C711     1.0000 0.97880  0.47880  0.43840  Biso   1.000  C
  C712     1.0000 0.98520  0.48520  0.40640  Biso   1.000  C
  H273     1.0000 0.97140  0.47140  0.39020  Biso   1.000  H
  C713     1.0000 0.87540  0.37540  0.37490  Biso   1.000  C
  H274     1.0000 0.86290  0.36290  0.35790  Biso   1.000  H
  C714     1.0000 0.91950  0.41950  0.41990  Biso   1.000  C
  N54      1.0000 0.95270  0.45270  0.24910  Biso   1.000  N
  C715     1.0000 0.09830  0.59830  0.48570  Biso   1.000  C
  H275     1.0000 0.11570  0.61570  0.47320  Biso   1.000  H
  C716     1.0000 0.06530  0.56530  0.47580  Biso   1.000  C
  C717     1.0000 0.05440  0.55440  0.44490  Biso   1.000  C
  C718     1.0000 0.02120  0.52120  0.43840  Biso   1.000  C
  C719     1.0000 0.01480  0.51480  0.40640  Biso   1.000  C
  H276     1.0000 0.02860  0.52860  0.39020  Biso   1.000  H
  C720     1.0000 0.12460  0.62460  0.37490  Biso   1.000  C
  H277     1.0000 0.13710  0.63710  0.35790  Biso   1.000  H
  C721     1.0000 0.08050  0.58050  0.41990  Biso   1.000  C
  N55      1.0000 0.04730  0.54730  0.24910  Biso   1.000  N
  C722     1.0000 0.40170  0.09830  0.48570  Biso   1.000  C
  H278     1.0000 0.38430  0.11570  0.47320  Biso   1.000  H
  C723     1.0000 0.43470  0.06530  0.47580  Biso   1.000  C
  C724     1.0000 0.44560  0.05440  0.44490  Biso   1.000  C
  C725     1.0000 0.47880  0.02120  0.43840  Biso   1.000  C
  C726     1.0000 0.48520  0.01480  0.40640  Biso   1.000  C
  H279     1.0000 0.47140  0.02860  0.39020  Biso   1.000  H
  C727     1.0000 0.37540  0.12460  0.37490  Biso   1.000  C
  H280     1.0000 0.36290  0.13710  0.35790  Biso   1.000  H
  C728     1.0000 0.41950  0.08050  0.41990  Biso   1.000  C
  N56      1.0000 0.45270  0.04730  0.24910  Biso   1.000  N
  C729     1.0000 0.59830  0.90170  0.48570  Biso   1.000  C
  H281     1.0000 0.61570  0.88430  0.47320  Biso   1.000  H
  C730     1.0000 0.56530  0.93470  0.47580  Biso   1.000  C
  C731     1.0000 0.55440  0.94560  0.44490  Biso   1.000  C
  C732     1.0000 0.52120  0.97880  0.43840  Biso   1.000  C
  C733     1.0000 0.51480  0.98520  0.40640  Biso   1.000  C
  H282     1.0000 0.52860  0.97140  0.39020  Biso   1.000  H
  C734     1.0000 0.62460  0.87540  0.37490  Biso   1.000  C
  H283     1.0000 0.63710  0.86290  0.35790  Biso   1.000  H
  C735     1.0000 0.58050  0.91950  0.41990  Biso   1.000  C
  N57      1.0000 0.54730  0.95270  0.24910  Biso   1.000  N
  C736     1.0000 0.90170  0.59830  0.98570  Biso   1.000  C
  H284     1.0000 0.88430  0.61570  0.97320  Biso   1.000  H
  C737     1.0000 0.93470  0.56530  0.97580  Biso   1.000  C
  C738     1.0000 0.94560  0.55440  0.94490  Biso   1.000  C
  C739     1.0000 0.97880  0.52120  0.93840  Biso   1.000  C
  C740     1.0000 0.98520  0.51480  0.90640  Biso   1.000  C
  H285     1.0000 0.97140  0.52860  0.89020  Biso   1.000  H
  C741     1.0000 0.87540  0.62460  0.87490  Biso   1.000  C
  H286     1.0000 0.86290  0.63710  0.85790  Biso   1.000  H
  C742     1.0000 0.91950  0.58050  0.91990  Biso   1.000  C
  N58      1.0000 0.95270  0.54730  0.74910  Biso   1.000  N
  C743     1.0000 0.09830  0.40170  0.98570  Biso   1.000  C
  H287     1.0000 0.11570  0.38430  0.97320  Biso   1.000  H
  C744     1.0000 0.06530  0.43470  0.97580  Biso   1.000  C
  C745     1.0000 0.05440  0.44560  0.94490  Biso   1.000  C
  C746     1.0000 0.02120  0.47880  0.93840  Biso   1.000  C
  C747     1.0000 0.01480  0.48520  0.90640  Biso   1.000  C
  H288     1.0000 0.02860  0.47140  0.89020  Biso   1.000  H
  C748     1.0000 0.12460  0.37540  0.87490  Biso   1.000  C
  H289     1.0000 0.13710  0.36290  0.85790  Biso   1.000  H
  C749     1.0000 0.08050  0.41950  0.91990  Biso   1.000  C
  N59      1.0000 0.04730  0.45270  0.74910  Biso   1.000  N
  C750     1.0000 0.40170  0.90170  0.98570  Biso   1.000  C
  H290     1.0000 0.38430  0.88430  0.97320  Biso   1.000  H
  C751     1.0000 0.43470  0.93470  0.97580  Biso   1.000  C
  C752     1.0000 0.44560  0.94560  0.94490  Biso   1.000  C
  C753     1.0000 0.47880  0.97880  0.93840  Biso   1.000  C
  C754     1.0000 0.48520  0.98520  0.90640  Biso   1.000  C
  H291     1.0000 0.47140  0.97140  0.89020  Biso   1.000  H
  C755     1.0000 0.37540  0.87540  0.87490  Biso   1.000  C
  H292     1.0000 0.36290  0.86290  0.85790  Biso   1.000  H
  C756     1.0000 0.41950  0.91950  0.91990  Biso   1.000  C
  N60      1.0000 0.45270  0.95270  0.74910  Biso   1.000  N
  C757     1.0000 0.59830  0.09830  0.98570  Biso   1.000  C
  H293     1.0000 0.61570  0.11570  0.97320  Biso   1.000  H
  C758     1.0000 0.56530  0.06530  0.97580  Biso   1.000  C
  C759     1.0000 0.55440  0.05440  0.94490  Biso   1.000  C
  C760     1.0000 0.52120  0.02120  0.93840  Biso   1.000  C
  C761     1.0000 0.51480  0.01480  0.90640  Biso   1.000  C
  H294     1.0000 0.52860  0.02860  0.89020  Biso   1.000  H
  C762     1.0000 0.62460  0.12460  0.87490  Biso   1.000  C
  H295     1.0000 0.63710  0.13710  0.85790  Biso   1.000  H
  C763     1.0000 0.58050  0.08050  0.91990  Biso   1.000  C
  N61      1.0000 0.54730  0.04730  0.74910  Biso   1.000  N
  C764     1.0000 0.09830  0.59830  0.51430  Biso   1.000  C
  H296     1.0000 0.11570  0.61570  0.52680  Biso   1.000  H
  C765     1.0000 0.06530  0.56530  0.52420  Biso   1.000  C
  C766     1.0000 0.05440  0.55440  0.55510  Biso   1.000  C
  C767     1.0000 0.02120  0.52120  0.56160  Biso   1.000  C
  C768     1.0000 0.01480  0.51480  0.59360  Biso   1.000  C
  H297     1.0000 0.02860  0.52860  0.60980  Biso   1.000  H
  C769     1.0000 0.12460  0.62460  0.62510  Biso   1.000  C
  H298     1.0000 0.13710  0.63710  0.64210  Biso   1.000  H
  C770     1.0000 0.08050  0.58050  0.58010  Biso   1.000  C
  N62      1.0000 0.04730  0.54730  0.75090  Biso   1.000  N
  C771     1.0000 0.90170  0.40170  0.51430  Biso   1.000  C
  H299     1.0000 0.88430  0.38430  0.52680  Biso   1.000  H
  C772     1.0000 0.93470  0.43470  0.52420  Biso   1.000  C
  C773     1.0000 0.94560  0.44560  0.55510  Biso   1.000  C
  C774     1.0000 0.97880  0.47880  0.56160  Biso   1.000  C
  C775     1.0000 0.98520  0.48520  0.59360  Biso   1.000  C
  H300     1.0000 0.97140  0.47140  0.60980  Biso   1.000  H
  C776     1.0000 0.87540  0.37540  0.62510  Biso   1.000  C
  H301     1.0000 0.86290  0.36290  0.64210  Biso   1.000  H
  C777     1.0000 0.91950  0.41950  0.58010  Biso   1.000  C
  N63      1.0000 0.95270  0.45270  0.75090  Biso   1.000  N
  C778     1.0000 0.59830  0.90170  0.51430  Biso   1.000  C
  H302     1.0000 0.61570  0.88430  0.52680  Biso   1.000  H
  C779     1.0000 0.56530  0.93470  0.52420  Biso   1.000  C
  C780     1.0000 0.55440  0.94560  0.55510  Biso   1.000  C
  C781     1.0000 0.52120  0.97880  0.56160  Biso   1.000  C
  C782     1.0000 0.51480  0.98520  0.59360  Biso   1.000  C
  H303     1.0000 0.52860  0.97140  0.60980  Biso   1.000  H
  C783     1.0000 0.62460  0.87540  0.62510  Biso   1.000  C
  H304     1.0000 0.63710  0.86290  0.64210  Biso   1.000  H
  C784     1.0000 0.58050  0.91950  0.58010  Biso   1.000  C
  N64      1.0000 0.54730  0.95270  0.75090  Biso   1.000  N
  Mn13     1.0000 0.00000  0.50000  0.25000  Biso   1.000  Mn
  Mn14     1.0000 0.50000  0.00000  0.25000  Biso   1.000  Mn
  Mn15     1.0000 0.00000  0.50000  0.75000  Biso   1.000  Mn
  Mn16     1.0000 0.50000  0.00000  0.75000  Biso   1.000  Mn
  C785     1.0000 0.00000  0.38720  0.25000  Biso   1.000  C
  C786     1.0000 0.00000  0.24520  0.25000  Biso   1.000  C
  H305     1.0000 0.00000  0.21470  0.25000  Biso   1.000  H
  C787     1.0000 0.00000  0.33580  0.25000  Biso   1.000  C
  C788     1.0000 0.50000  0.88720  0.75000  Biso   1.000  C
  C789     1.0000 0.50000  0.74520  0.75000  Biso   1.000  C
  H306     1.0000 0.50000  0.71470  0.75000  Biso   1.000  H
  C790     1.0000 0.50000  0.83580  0.75000  Biso   1.000  C
  C791     1.0000 0.00000  0.61280  0.25000  Biso   1.000  C
  C792     1.0000 0.00000  0.75480  0.25000  Biso   1.000  C
  H307     1.0000 0.00000  0.78530  0.25000  Biso   1.000  H
  C793     1.0000 0.00000  0.66420  0.25000  Biso   1.000  C
  C794     1.0000 0.50000  0.11280  0.75000  Biso   1.000  C
  C795     1.0000 0.50000  0.25480  0.75000  Biso   1.000  C
  H308     1.0000 0.50000  0.28530  0.75000  Biso   1.000  H
  C796     1.0000 0.50000  0.16420  0.75000  Biso   1.000  C
  C797     1.0000 0.61280  0.00000  0.25000  Biso   1.000  C
  C798     1.0000 0.75480  0.00000  0.25000  Biso   1.000  C
  H309     1.0000 0.78530  0.00000  0.25000  Biso   1.000  H
  C799     1.0000 0.66420  0.00000  0.25000  Biso   1.000  C
  C800     1.0000 0.11280  0.50000  0.75000  Biso   1.000  C
  C801     1.0000 0.25480  0.50000  0.75000  Biso   1.000  C
  H310     1.0000 0.28530  0.50000  0.75000  Biso   1.000  H
  C802     1.0000 0.16420  0.50000  0.75000  Biso   1.000  C
  C803     1.0000 0.38720  0.00000  0.25000  Biso   1.000  C
  C804     1.0000 0.24520  0.00000  0.25000  Biso   1.000  C
  H311     1.0000 0.21470  0.00000  0.25000  Biso   1.000  H
  C805     1.0000 0.33580  0.00000  0.25000  Biso   1.000  C
  C806     1.0000 0.88720  0.50000  0.75000  Biso   1.000  C
  C807     1.0000 0.74520  0.50000  0.75000  Biso   1.000  C
  H312     1.0000 0.71470  0.50000  0.75000  Biso   1.000  H
  C808     1.0000 0.83580  0.50000  0.75000  Biso   1.000  C
  C809     1.0000 0.00000  0.61280  0.75000  Biso   1.000  C
  C810     1.0000 0.00000  0.75480  0.75000  Biso   1.000  C
  H313     1.0000 0.00000  0.78530  0.75000  Biso   1.000  H
  C811     1.0000 0.00000  0.66420  0.75000  Biso   1.000  C
  C812     1.0000 0.50000  0.11280  0.25000  Biso   1.000  C
  C813     1.0000 0.50000  0.25480  0.25000  Biso   1.000  C
  H314     1.0000 0.50000  0.28530  0.25000  Biso   1.000  H
  C814     1.0000 0.50000  0.16420  0.25000  Biso   1.000  C
  C815     1.0000 0.00000  0.38720  0.75000  Biso   1.000  C
  C816     1.0000 0.00000  0.24520  0.75000  Biso   1.000  C
  H315     1.0000 0.00000  0.21470  0.75000  Biso   1.000  H
  C817     1.0000 0.00000  0.33580  0.75000  Biso   1.000  C
  C818     1.0000 0.50000  0.88720  0.25000  Biso   1.000  C
  C819     1.0000 0.50000  0.74520  0.25000  Biso   1.000  C
  H316     1.0000 0.50000  0.71470  0.25000  Biso   1.000  H
  C820     1.0000 0.50000  0.83580  0.25000  Biso   1.000  C
  C821     1.0000 0.38720  0.00000  0.75000  Biso   1.000  C
  C822     1.0000 0.24520  0.00000  0.75000  Biso   1.000  C
  H317     1.0000 0.21470  0.00000  0.75000  Biso   1.000  H
  C823     1.0000 0.33580  0.00000  0.75000  Biso   1.000  C
  C824     1.0000 0.88720  0.50000  0.25000  Biso   1.000  C
  C825     1.0000 0.74520  0.50000  0.25000  Biso   1.000  C
  H318     1.0000 0.71470  0.50000  0.25000  Biso   1.000  H
  C826     1.0000 0.83580  0.50000  0.25000  Biso   1.000  C
  C827     1.0000 0.61280  0.00000  0.75000  Biso   1.000  C
  C828     1.0000 0.75480  0.00000  0.75000  Biso   1.000  C
  H319     1.0000 0.78530  0.00000  0.75000  Biso   1.000  H
  C829     1.0000 0.66420  0.00000  0.75000  Biso   1.000  C
  C830     1.0000 0.11280  0.50000  0.25000  Biso   1.000  C
  C831     1.0000 0.25480  0.50000  0.25000  Biso   1.000  C
  H320     1.0000 0.28530  0.50000  0.25000  Biso   1.000  H
  C832     1.0000 0.16420  0.50000  0.25000  Biso   1.000  C
