data_image0
_cell_length_a       17.046
_cell_length_b       24.0462
_cell_length_c       28.8442
_cell_angle_alpha    90
_cell_angle_beta     90
_cell_angle_gamma    90

_symmetry_space_group_name_H-M    "P 1"
_symmetry_int_tables_number       1

loop_
  _symmetry_equiv_pos_as_xyz
  'x, y, z'

loop_
  _atom_site_label
  _atom_site_occupancy
  _atom_site_fract_x
  _atom_site_fract_y
  _atom_site_fract_z
  _atom_site_thermal_displace_type
  _atom_site_B_iso_or_equiv
  _atom_site_type_symbol
  Cd1      1.0000 0.59146  0.59846  0.70902  Biso   1.000  Cd
  Cd2      1.0000 0.90933  0.67107  0.20919  Biso   1.000  Cd
  O1       1.0000 0.58070  0.15410  0.67330  Biso   1.000  O
  O2       1.0000 0.59430  0.04120  0.67300  Biso   1.000  O
  O3       1.0000 0.71410  0.62070  0.66347  Biso   1.000  O
  O4       1.0000 0.59960  0.60340  0.62933  Biso   1.000  O
  O5       1.0000 0.82880  0.67440  0.27286  Biso   1.000  O
  O6       1.0000 0.45500  0.59290  0.70340  Biso   1.000  O
  O7       1.0000 0.33230  0.59870  0.72590  Biso   1.000  O
  O8       1.0000 0.88410  0.22540  0.19000  Biso   1.000  O
  O9       1.0000 0.90050  0.11600  0.19100  Biso   1.000  O
  O10      1.0000 0.09420  0.66820  0.37120  Biso   1.000  O
  O11      1.0000 0.21210  0.67580  0.34000  Biso   1.000  O
  O12      1.0000 0.95270  0.66620  0.29540  Biso   1.000  O
  N1       1.0000 0.63370  0.15240  0.76460  Biso   1.000  N
  N2       1.0000 0.65650  0.04490  0.76170  Biso   1.000  N
  N3       1.0000 0.57190  0.69310  0.70940  Biso   1.000  N
  N4       1.0000 0.58610  0.50430  0.70400  Biso   1.000  N
  N5       1.0000 0.91970  0.76600  0.20950  Biso   1.000  N
  N6       1.0000 0.90690  0.57480  0.21310  Biso   1.000  N
  N7       1.0000 0.81730  0.22250  0.27510  Biso   1.000  N
  N8       1.0000 0.85070  0.11530  0.28120  Biso   1.000  N
  C1       1.0000 0.58220  0.20900  0.67710  Biso   1.000  C
  C2       1.0000 0.56610  0.24330  0.63840  Biso   1.000  C
  C3       1.0000 0.56480  0.30050  0.64500  Biso   1.000  C
  H1       1.0000 0.55250  0.32340  0.61920  Biso   1.000  H
  C4       1.0000 0.58040  0.32600  0.68720  Biso   1.000  C
  C5       1.0000 0.59980  0.29320  0.72420  Biso   1.000  C
  H2       1.0000 0.61240  0.30990  0.75310  Biso   1.000  H
  C6       1.0000 0.60110  0.23440  0.71990  Biso   1.000  C
  C7       1.0000 0.55170  0.21750  0.59110  Biso   1.000  C
  C8       1.0000 0.48040  0.17850  0.59180  Biso   1.000  C
  H3       1.0000 0.48760  0.15040  0.61600  Biso   1.000  H
  H4       1.0000 0.47530  0.16020  0.56160  Biso   1.000  H
  H5       1.0000 0.43290  0.20010  0.59830  Biso   1.000  H
  C9       1.0000 0.53450  0.26160  0.55240  Biso   1.000  C
  H6       1.0000 0.48010  0.27430  0.55500  Biso   1.000  H
  H7       1.0000 0.54260  0.24470  0.52180  Biso   1.000  H
  H8       1.0000 0.57000  0.29330  0.55610  Biso   1.000  H
  C10      1.0000 0.62780  0.18440  0.57510  Biso   1.000  C
  H9       1.0000 0.67170  0.21050  0.57150  Biso   1.000  H
  H10      1.0000 0.61760  0.16610  0.54540  Biso   1.000  H
  H11      1.0000 0.64120  0.15640  0.59840  Biso   1.000  H
  C11      1.0000 0.58000  0.38810  0.69240  Biso   1.000  C
  C12      1.0000 0.54690  0.42250  0.66300  Biso   1.000  C
  H12      1.0000 0.52040  0.40730  0.63690  Biso   1.000  H
  C13      1.0000 0.61810  0.41350  0.73020  Biso   1.000  C
  H13      1.0000 0.64180  0.39150  0.75370  Biso   1.000  H
  C14      1.0000 0.62260  0.20550  0.76180  Biso   1.000  C
  H14      1.0000 0.62900  0.22690  0.78920  Biso   1.000  H
  C15      1.0000 0.65100  0.12610  0.81080  Biso   1.000  C
  H15      1.0000 0.60000  0.11480  0.82510  Biso   1.000  H
  C16      1.0000 0.69520  0.16210  0.84560  Biso   1.000  C
  H16      1.0000 0.66400  0.19560  0.85320  Biso   1.000  H
  H17      1.0000 0.74590  0.17410  0.83220  Biso   1.000  H
  C17      1.0000 0.70910  0.12740  0.88930  Biso   1.000  C
  H18      1.0000 0.73820  0.15010  0.91220  Biso   1.000  H
  H19      1.0000 0.65800  0.11720  0.90310  Biso   1.000  H
  C18      1.0000 0.75490  0.07530  0.87910  Biso   1.000  C
  H20      1.0000 0.76150  0.05360  0.90800  Biso   1.000  H
  H21      1.0000 0.80770  0.08540  0.86760  Biso   1.000  H
  C19      1.0000 0.71350  0.04010  0.84340  Biso   1.000  C
  H22      1.0000 0.66310  0.02670  0.85620  Biso   1.000  H
  H23      1.0000 0.74620  0.00730  0.83600  Biso   1.000  H
  C20      1.0000 0.69820  0.07290  0.79960  Biso   1.000  C
  H24      1.0000 0.75030  0.08490  0.78720  Biso   1.000  H
  C21      1.0000 0.64270  0.99350  0.76090  Biso   1.000  C
  H25      1.0000 0.65600  0.97300  0.78790  Biso   1.000  H
  C22      1.0000 0.60880  0.96280  0.72330  Biso   1.000  C
  C23      1.0000 0.59860  0.90460  0.72980  Biso   1.000  C
  H26      1.0000 0.61000  0.88880  0.75920  Biso   1.000  H
  C24      1.0000 0.57300  0.87080  0.69480  Biso   1.000  C
  C25      1.0000 0.55730  0.89560  0.65140  Biso   1.000  C
  H27      1.0000 0.53860  0.87280  0.62690  Biso   1.000  H
  C26      1.0000 0.56810  0.95230  0.64310  Biso   1.000  C
  C27      1.0000 0.59080  0.98650  0.68030  Biso   1.000  C
  C28      1.0000 0.55590  0.97640  0.59400  Biso   1.000  C
  C29      1.0000 0.63300  0.00650  0.57760  Biso   1.000  C
  H28      1.0000 0.67800  0.98170  0.58200  Biso   1.000  H
  H29      1.0000 0.64070  0.04050  0.59590  Biso   1.000  H
  H30      1.0000 0.62840  0.01620  0.54470  Biso   1.000  H
  C30      1.0000 0.53810  0.92980  0.55780  Biso   1.000  C
  H31      1.0000 0.57450  0.89870  0.56240  Biso   1.000  H
  H32      1.0000 0.54450  0.94470  0.52640  Biso   1.000  H
  H33      1.0000 0.48410  0.91660  0.56190  Biso   1.000  H
  C31      1.0000 0.48690  0.01600  0.59340  Biso   1.000  C
  H34      1.0000 0.48760  0.03750  0.56460  Biso   1.000  H
  H35      1.0000 0.49050  0.04130  0.62000  Biso   1.000  H
  H36      1.0000 0.43790  0.99470  0.59540  Biso   1.000  H
  C32      1.0000 0.56810  0.81010  0.70120  Biso   1.000  C
  C33      1.0000 0.60300  0.78360  0.73870  Biso   1.000  C
  H37      1.0000 0.62560  0.80530  0.76280  Biso   1.000  H
  C34      1.0000 0.60560  0.72640  0.74170  Biso   1.000  C
  H38      1.0000 0.63190  0.70970  0.76720  Biso   1.000  H
  C35      1.0000 0.53610  0.71780  0.67390  Biso   1.000  C
  H39      1.0000 0.51180  0.69490  0.65110  Biso   1.000  H
  C36      1.0000 0.53230  0.77520  0.66810  Biso   1.000  C
  H40      1.0000 0.50580  0.79070  0.64220  Biso   1.000  H
  C37      1.0000 0.62080  0.47100  0.73270  Biso   1.000  C
  H41      1.0000 0.65020  0.48720  0.75720  Biso   1.000  H
  C38      1.0000 0.54860  0.48030  0.66800  Biso   1.000  C
  H42      1.0000 0.52290  0.50300  0.64580  Biso   1.000  H
  C39      1.0000 0.67180  0.61790  0.62850  Biso   1.000  C
  C40      1.0000 0.70510  0.62990  0.58150  Biso   1.000  C
  C41      1.0000 0.65710  0.62380  0.54210  Biso   1.000  C
  H43      1.0000 0.60370  0.61330  0.54580  Biso   1.000  H
  C42      1.0000 0.68680  0.63300  0.49810  Biso   1.000  C
  H44      1.0000 0.65340  0.62880  0.47190  Biso   1.000  H
  C43      1.0000 0.76620  0.64830  0.49150  Biso   1.000  C
  C44      1.0000 0.81440  0.65440  0.53160  Biso   1.000  C
  H45      1.0000 0.86780  0.66500  0.52850  Biso   1.000  H
  C45      1.0000 0.78250  0.64450  0.57540  Biso   1.000  C
  H46      1.0000 0.81520  0.64810  0.60180  Biso   1.000  H
  C46      1.0000 0.79810  0.65610  0.44410  Biso   1.000  C
  C47      1.0000 0.75000  0.67360  0.40920  Biso   1.000  C
  H47      1.0000 0.69710  0.68310  0.41600  Biso   1.000  H
  C48      1.0000 0.77710  0.67780  0.36380  Biso   1.000  C
  H48      1.0000 0.74240  0.68840  0.33960  Biso   1.000  H
  C49      1.0000 0.85410  0.66650  0.35410  Biso   1.000  C
  C50      1.0000 0.90530  0.65090  0.38890  Biso   1.000  C
  H49      1.0000 0.95890  0.64360  0.38210  Biso   1.000  H
  C51      1.0000 0.87730  0.64630  0.43380  Biso   1.000  C
  H50      1.0000 0.91230  0.63630  0.45800  Biso   1.000  H
  C52      1.0000 0.87970  0.66930  0.30410  Biso   1.000  C
  C53      1.0000 0.38400  0.59960  0.69510  Biso   1.000  C
  C54      1.0000 0.35630  0.61110  0.64650  Biso   1.000  C
  C55      1.0000 0.27760  0.62380  0.63960  Biso   1.000  C
  H51      1.0000 0.24280  0.62600  0.66530  Biso   1.000  H
  C56      1.0000 0.25000  0.63330  0.59520  Biso   1.000  C
  H52      1.0000 0.19570  0.64020  0.59050  Biso   1.000  H
  C57      1.0000 0.30000  0.63300  0.55720  Biso   1.000  C
  C58      1.0000 0.37910  0.62200  0.56440  Biso   1.000  C
  H53      1.0000 0.41470  0.62190  0.53910  Biso   1.000  H
  C59      1.0000 0.40610  0.61090  0.60950  Biso   1.000  C
  H54      1.0000 0.46010  0.60310  0.61440  Biso   1.000  H
  C60      1.0000 0.26680  0.64300  0.50940  Biso   1.000  C
  C61      1.0000 0.19210  0.62580  0.49880  Biso   1.000  C
  H55      1.0000 0.16220  0.60630  0.52130  Biso   1.000  H
  C62      1.0000 0.15990  0.63650  0.45590  Biso   1.000  C
  H56      1.0000 0.10740  0.62550  0.44960  Biso   1.000  H
  C63      1.0000 0.20300  0.66290  0.42200  Biso   1.000  C
  C64      1.0000 0.27940  0.67900  0.43220  Biso   1.000  C
  H57      1.0000 0.31150  0.69450  0.40860  Biso   1.000  H
  C65      1.0000 0.30870  0.67240  0.47630  Biso   1.000  C
  H58      1.0000 0.35810  0.68820  0.48410  Biso   1.000  H
  C66      1.0000 0.91870  0.94530  0.20360  Biso   1.000  C
  C67      1.0000 0.92340  0.88330  0.20670  Biso   1.000  C
  C68      1.0000 0.88050  0.85460  0.23960  Biso   1.000  C
  H59      1.0000 0.85100  0.87440  0.26210  Biso   1.000  H
  C69      1.0000 0.88040  0.79620  0.23990  Biso   1.000  C
  H60      1.0000 0.85070  0.77760  0.26310  Biso   1.000  H
  C70      1.0000 0.96170  0.79320  0.17820  Biso   1.000  C
  H61      1.0000 0.99190  0.77210  0.15690  Biso   1.000  H
  C71      1.0000 0.96410  0.85120  0.17460  Biso   1.000  C
  H62      1.0000 0.99320  0.86850  0.15050  Biso   1.000  H
  C72      1.0000 0.85060  0.54650  0.23480  Biso   1.000  C
  H63      1.0000 0.81150  0.56640  0.25130  Biso   1.000  H
  C73      1.0000 0.84730  0.48850  0.23400  Biso   1.000  C
  H64      1.0000 0.80590  0.46990  0.24950  Biso   1.000  H
  C74      1.0000 0.90240  0.45850  0.21130  Biso   1.000  C
  C75      1.0000 0.96210  0.48760  0.19060  Biso   1.000  C
  H65      1.0000 0.00350  0.46800  0.17570  Biso   1.000  H
  C76      1.0000 0.96260  0.54600  0.19120  Biso   1.000  C
  H66      1.0000 0.00350  0.56540  0.17580  Biso   1.000  H
  C77      1.0000 0.89590  0.39730  0.20740  Biso   1.000  C
  C78      1.0000 0.86190  0.36480  0.24040  Biso   1.000  C
  H67      1.0000 0.84100  0.38160  0.26750  Biso   1.000  H
  C79      1.0000 0.85720  0.30620  0.23490  Biso   1.000  C
  C80      1.0000 0.88600  0.27970  0.19540  Biso   1.000  C
  C81      1.0000 0.92160  0.31360  0.15990  Biso   1.000  C
  C82      1.0000 0.92610  0.37060  0.16790  Biso   1.000  C
  H68      1.0000 0.95130  0.39300  0.14510  Biso   1.000  H
  C83      1.0000 0.95790  0.28650  0.11690  Biso   1.000  C
  C84      1.0000 0.89880  0.24950  0.09040  Biso   1.000  C
  H69      1.0000 0.88400  0.21780  0.10980  Biso   1.000  H
  H70      1.0000 0.92310  0.23600  0.06170  Biso   1.000  H
  H71      1.0000 0.85190  0.27130  0.08280  Biso   1.000  H
  C85      1.0000 0.02760  0.25170  0.13200  Biso   1.000  C
  H72      1.0000 0.06870  0.27610  0.14420  Biso   1.000  H
  H73      1.0000 0.04800  0.23100  0.10540  Biso   1.000  H
  H74      1.0000 0.01100  0.22560  0.15620  Biso   1.000  H
  C86      1.0000 0.98770  0.33070  0.08230  Biso   1.000  C
  H75      1.0000 0.94930  0.36090  0.08000  Biso   1.000  H
  H76      1.0000 0.99470  0.31360  0.05170  Biso   1.000  H
  H77      1.0000 0.03790  0.34560  0.09310  Biso   1.000  H
  C87      1.0000 0.81970  0.27530  0.27300  Biso   1.000  C
  H78      1.0000 0.79620  0.29590  0.29740  Biso   1.000  H
  C88      1.0000 0.77710  0.19260  0.31430  Biso   1.000  C
  H79      1.0000 0.72670  0.17750  0.30190  Biso   1.000  H
  C89      1.0000 0.75720  0.22710  0.35620  Biso   1.000  C
  H80      1.0000 0.71930  0.25640  0.34740  Biso   1.000  H
  H81      1.0000 0.80530  0.24540  0.36800  Biso   1.000  H
  C90      1.0000 0.72110  0.18950  0.39490  Biso   1.000  C
  H82      1.0000 0.71520  0.21170  0.42360  Biso   1.000  H
  H83      1.0000 0.66820  0.17730  0.38510  Biso   1.000  H
  C91      1.0000 0.77050  0.13890  0.40520  Biso   1.000  C
  H84      1.0000 0.74300  0.11510  0.42800  Biso   1.000  H
  H85      1.0000 0.82090  0.15070  0.41910  Biso   1.000  H
  C92      1.0000 0.78660  0.10520  0.36050  Biso   1.000  C
  H86      1.0000 0.81820  0.07180  0.36790  Biso   1.000  H
  H87      1.0000 0.73630  0.09280  0.34670  Biso   1.000  H
  C93      1.0000 0.83070  0.14170  0.32620  Biso   1.000  C
  H88      1.0000 0.87990  0.15550  0.34120  Biso   1.000  H
  C94      1.0000 0.86660  0.06400  0.27960  Biso   1.000  C
  H89      1.0000 0.86240  0.04300  0.30740  Biso   1.000  H
  C95      1.0000 0.89100  0.03540  0.23780  Biso   1.000  C
  C96      1.0000 0.89720  0.97680  0.24110  Biso   1.000  C
  H90      1.0000 0.88630  0.95900  0.26980  Biso   1.000  H
  C97      1.0000 0.93150  0.97120  0.16140  Biso   1.000  C
  H91      1.0000 0.94600  0.94910  0.13550  Biso   1.000  H
  C98      1.0000 0.92410  0.02850  0.15560  Biso   1.000  C
  C99      1.0000 0.90560  0.06110  0.19390  Biso   1.000  C
  C100     1.0000 0.93120  0.05490  0.10650  Biso   1.000  C
  C101     1.0000 0.85480  0.08430  0.09410  Biso   1.000  C
  H92      1.0000 0.81080  0.05860  0.09820  Biso   1.000  H
  H93      1.0000 0.85690  0.09660  0.06170  Biso   1.000  H
  H94      1.0000 0.84770  0.11660  0.11440  Biso   1.000  H
  C102     1.0000 0.94930  0.01190  0.06720  Biso   1.000  C
  H95      1.0000 0.99350  0.98830  0.07660  Biso   1.000  H
  H96      1.0000 0.96280  0.03170  0.03860  Biso   1.000  H
  H97      1.0000 0.90300  0.98860  0.06180  Biso   1.000  H
  C103     1.0000 0.99890  0.09750  0.10470  Biso   1.000  C
  H98      1.0000 0.98690  0.12890  0.12520  Biso   1.000  H
  H99      1.0000 0.00520  0.11100  0.07290  Biso   1.000  H
  H100     1.0000 0.04760  0.07960  0.11490  Biso   1.000  H
  C104     1.0000 0.16850  0.67010  0.37390  Biso   1.000  C
  V1       1.0000 0.64455  0.10030  0.70571  Biso   1.000  V
  V2       1.0000 0.83193  0.16517  0.22345  Biso   1.000  V
  V3       1.0000 0.58400  0.09669  0.72322  Biso   1.000  V
  V4       1.0000 0.90760  0.17458  0.23578  Biso   1.000  V
  Cd3      1.0000 0.40854  0.59846  0.79098  Biso   1.000  Cd
  Cd4      1.0000 0.09067  0.67107  0.29081  Biso   1.000  Cd
  O13      1.0000 0.41930  0.15410  0.82670  Biso   1.000  O
  O14      1.0000 0.40570  0.04120  0.82700  Biso   1.000  O
  O15      1.0000 0.28590  0.62070  0.83653  Biso   1.000  O
  O16      1.0000 0.40040  0.60340  0.87067  Biso   1.000  O
  O17      1.0000 0.17120  0.67440  0.22714  Biso   1.000  O
  O18      1.0000 0.54500  0.59290  0.79660  Biso   1.000  O
  O19      1.0000 0.66770  0.59870  0.77410  Biso   1.000  O
  O20      1.0000 0.11590  0.22540  0.31000  Biso   1.000  O
  O21      1.0000 0.09950  0.11600  0.30900  Biso   1.000  O
  O22      1.0000 0.90580  0.66820  0.12880  Biso   1.000  O
  O23      1.0000 0.78790  0.67580  0.16000  Biso   1.000  O
  O24      1.0000 0.04730  0.66620  0.20460  Biso   1.000  O
  N9       1.0000 0.36630  0.15240  0.73540  Biso   1.000  N
  N10      1.0000 0.34350  0.04490  0.73830  Biso   1.000  N
  N11      1.0000 0.42810  0.69310  0.79060  Biso   1.000  N
  N12      1.0000 0.41390  0.50430  0.79600  Biso   1.000  N
  N13      1.0000 0.08030  0.76600  0.29050  Biso   1.000  N
  N14      1.0000 0.09310  0.57480  0.28690  Biso   1.000  N
  N15      1.0000 0.18270  0.22250  0.22490  Biso   1.000  N
  N16      1.0000 0.14930  0.11530  0.21880  Biso   1.000  N
  C105     1.0000 0.41780  0.20900  0.82290  Biso   1.000  C
  C106     1.0000 0.43390  0.24330  0.86160  Biso   1.000  C
  C107     1.0000 0.43520  0.30050  0.85500  Biso   1.000  C
  H101     1.0000 0.44750  0.32340  0.88080  Biso   1.000  H
  C108     1.0000 0.41960  0.32600  0.81280  Biso   1.000  C
  C109     1.0000 0.40020  0.29320  0.77580  Biso   1.000  C
  H102     1.0000 0.38760  0.30990  0.74690  Biso   1.000  H
  C110     1.0000 0.39890  0.23440  0.78010  Biso   1.000  C
  C111     1.0000 0.44830  0.21750  0.90890  Biso   1.000  C
  C112     1.0000 0.51960  0.17850  0.90820  Biso   1.000  C
  H103     1.0000 0.51240  0.15040  0.88400  Biso   1.000  H
  H104     1.0000 0.52470  0.16020  0.93840  Biso   1.000  H
  H105     1.0000 0.56710  0.20010  0.90170  Biso   1.000  H
  C113     1.0000 0.46550  0.26160  0.94760  Biso   1.000  C
  H106     1.0000 0.51990  0.27430  0.94500  Biso   1.000  H
  H107     1.0000 0.45740  0.24470  0.97820  Biso   1.000  H
  H108     1.0000 0.43000  0.29330  0.94390  Biso   1.000  H
  C114     1.0000 0.37220  0.18440  0.92490  Biso   1.000  C
  H109     1.0000 0.32830  0.21050  0.92850  Biso   1.000  H
  H110     1.0000 0.38240  0.16610  0.95460  Biso   1.000  H
  H111     1.0000 0.35880  0.15640  0.90160  Biso   1.000  H
  C115     1.0000 0.42000  0.38810  0.80760  Biso   1.000  C
  C116     1.0000 0.45310  0.42250  0.83700  Biso   1.000  C
  H112     1.0000 0.47960  0.40730  0.86310  Biso   1.000  H
  C117     1.0000 0.38190  0.41350  0.76980  Biso   1.000  C
  H113     1.0000 0.35820  0.39150  0.74630  Biso   1.000  H
  C118     1.0000 0.37740  0.20550  0.73820  Biso   1.000  C
  H114     1.0000 0.37100  0.22690  0.71080  Biso   1.000  H
  C119     1.0000 0.34900  0.12610  0.68920  Biso   1.000  C
  H115     1.0000 0.40000  0.11480  0.67490  Biso   1.000  H
  C120     1.0000 0.30480  0.16210  0.65440  Biso   1.000  C
  H116     1.0000 0.33600  0.19560  0.64680  Biso   1.000  H
  H117     1.0000 0.25410  0.17410  0.66780  Biso   1.000  H
  C121     1.0000 0.29090  0.12740  0.61070  Biso   1.000  C
  H118     1.0000 0.26180  0.15010  0.58780  Biso   1.000  H
  H119     1.0000 0.34200  0.11720  0.59690  Biso   1.000  H
  C122     1.0000 0.24510  0.07530  0.62090  Biso   1.000  C
  H120     1.0000 0.23850  0.05360  0.59200  Biso   1.000  H
  H121     1.0000 0.19230  0.08540  0.63240  Biso   1.000  H
  C123     1.0000 0.28650  0.04010  0.65660  Biso   1.000  C
  H122     1.0000 0.33690  0.02670  0.64380  Biso   1.000  H
  H123     1.0000 0.25380  0.00730  0.66400  Biso   1.000  H
  C124     1.0000 0.30180  0.07290  0.70040  Biso   1.000  C
  H124     1.0000 0.24970  0.08490  0.71280  Biso   1.000  H
  C125     1.0000 0.35730  0.99350  0.73910  Biso   1.000  C
  H125     1.0000 0.34400  0.97300  0.71210  Biso   1.000  H
  C126     1.0000 0.39120  0.96280  0.77670  Biso   1.000  C
  C127     1.0000 0.40140  0.90460  0.77020  Biso   1.000  C
  H126     1.0000 0.39000  0.88880  0.74080  Biso   1.000  H
  C128     1.0000 0.42700  0.87080  0.80520  Biso   1.000  C
  C129     1.0000 0.44270  0.89560  0.84860  Biso   1.000  C
  H127     1.0000 0.46140  0.87280  0.87310  Biso   1.000  H
  C130     1.0000 0.43190  0.95230  0.85690  Biso   1.000  C
  C131     1.0000 0.40920  0.98650  0.81970  Biso   1.000  C
  C132     1.0000 0.44410  0.97640  0.90600  Biso   1.000  C
  C133     1.0000 0.36700  0.00650  0.92240  Biso   1.000  C
  H128     1.0000 0.32200  0.98170  0.91800  Biso   1.000  H
  H129     1.0000 0.35930  0.04050  0.90410  Biso   1.000  H
  H130     1.0000 0.37160  0.01620  0.95530  Biso   1.000  H
  C134     1.0000 0.46190  0.92980  0.94220  Biso   1.000  C
  H131     1.0000 0.42550  0.89870  0.93760  Biso   1.000  H
  H132     1.0000 0.45550  0.94470  0.97360  Biso   1.000  H
  H133     1.0000 0.51590  0.91660  0.93810  Biso   1.000  H
  C135     1.0000 0.51310  0.01600  0.90660  Biso   1.000  C
  H134     1.0000 0.51240  0.03750  0.93540  Biso   1.000  H
  H135     1.0000 0.50950  0.04130  0.88000  Biso   1.000  H
  H136     1.0000 0.56210  0.99470  0.90460  Biso   1.000  H
  C136     1.0000 0.43190  0.81010  0.79880  Biso   1.000  C
  C137     1.0000 0.39700  0.78360  0.76130  Biso   1.000  C
  H137     1.0000 0.37440  0.80530  0.73720  Biso   1.000  H
  C138     1.0000 0.39440  0.72640  0.75830  Biso   1.000  C
  H138     1.0000 0.36810  0.70970  0.73280  Biso   1.000  H
  C139     1.0000 0.46390  0.71780  0.82610  Biso   1.000  C
  H139     1.0000 0.48820  0.69490  0.84890  Biso   1.000  H
  C140     1.0000 0.46770  0.77520  0.83190  Biso   1.000  C
  H140     1.0000 0.49420  0.79070  0.85780  Biso   1.000  H
  C141     1.0000 0.37920  0.47100  0.76730  Biso   1.000  C
  H141     1.0000 0.34980  0.48720  0.74280  Biso   1.000  H
  C142     1.0000 0.45140  0.48030  0.83200  Biso   1.000  C
  H142     1.0000 0.47710  0.50300  0.85420  Biso   1.000  H
  C143     1.0000 0.32820  0.61790  0.87150  Biso   1.000  C
  C144     1.0000 0.29490  0.62990  0.91850  Biso   1.000  C
  C145     1.0000 0.34290  0.62380  0.95790  Biso   1.000  C
  H143     1.0000 0.39630  0.61330  0.95420  Biso   1.000  H
  C146     1.0000 0.31320  0.63300  0.00190  Biso   1.000  C
  H144     1.0000 0.34660  0.62880  0.02810  Biso   1.000  H
  C147     1.0000 0.23380  0.64830  0.00850  Biso   1.000  C
  C148     1.0000 0.18560  0.65440  0.96840  Biso   1.000  C
  H145     1.0000 0.13220  0.66500  0.97150  Biso   1.000  H
  C149     1.0000 0.21750  0.64450  0.92460  Biso   1.000  C
  H146     1.0000 0.18480  0.64810  0.89820  Biso   1.000  H
  C150     1.0000 0.20190  0.65610  0.05590  Biso   1.000  C
  C151     1.0000 0.25000  0.67360  0.09080  Biso   1.000  C
  H147     1.0000 0.30290  0.68310  0.08400  Biso   1.000  H
  C152     1.0000 0.22290  0.67780  0.13620  Biso   1.000  C
  H148     1.0000 0.25760  0.68840  0.16040  Biso   1.000  H
  C153     1.0000 0.14590  0.66650  0.14590  Biso   1.000  C
  C154     1.0000 0.09470  0.65090  0.11110  Biso   1.000  C
  H149     1.0000 0.04110  0.64360  0.11790  Biso   1.000  H
  C155     1.0000 0.12270  0.64630  0.06620  Biso   1.000  C
  H150     1.0000 0.08770  0.63630  0.04200  Biso   1.000  H
  C156     1.0000 0.12030  0.66930  0.19590  Biso   1.000  C
  C157     1.0000 0.61600  0.59960  0.80490  Biso   1.000  C
  C158     1.0000 0.64370  0.61110  0.85350  Biso   1.000  C
  C159     1.0000 0.72240  0.62380  0.86040  Biso   1.000  C
  H151     1.0000 0.75720  0.62600  0.83470  Biso   1.000  H
  C160     1.0000 0.75000  0.63330  0.90480  Biso   1.000  C
  H152     1.0000 0.80430  0.64020  0.90950  Biso   1.000  H
  C161     1.0000 0.70000  0.63300  0.94280  Biso   1.000  C
  C162     1.0000 0.62090  0.62200  0.93560  Biso   1.000  C
  H153     1.0000 0.58530  0.62190  0.96090  Biso   1.000  H
  C163     1.0000 0.59390  0.61090  0.89050  Biso   1.000  C
  H154     1.0000 0.53990  0.60310  0.88560  Biso   1.000  H
  C164     1.0000 0.73320  0.64300  0.99060  Biso   1.000  C
  C165     1.0000 0.80790  0.62580  0.00120  Biso   1.000  C
  H155     1.0000 0.83780  0.60630  0.97870  Biso   1.000  H
  C166     1.0000 0.84010  0.63650  0.04410  Biso   1.000  C
  H156     1.0000 0.89260  0.62550  0.05040  Biso   1.000  H
  C167     1.0000 0.79700  0.66290  0.07800  Biso   1.000  C
  C168     1.0000 0.72060  0.67900  0.06780  Biso   1.000  C
  H157     1.0000 0.68850  0.69450  0.09140  Biso   1.000  H
  C169     1.0000 0.69130  0.67240  0.02370  Biso   1.000  C
  H158     1.0000 0.64190  0.68820  0.01590  Biso   1.000  H
  C170     1.0000 0.08130  0.94530  0.29640  Biso   1.000  C
  C171     1.0000 0.07660  0.88330  0.29330  Biso   1.000  C
  C172     1.0000 0.11950  0.85460  0.26040  Biso   1.000  C
  H159     1.0000 0.14900  0.87440  0.23790  Biso   1.000  H
  C173     1.0000 0.11960  0.79620  0.26010  Biso   1.000  C
  H160     1.0000 0.14930  0.77760  0.23690  Biso   1.000  H
  C174     1.0000 0.03830  0.79320  0.32180  Biso   1.000  C
  H161     1.0000 0.00810  0.77210  0.34310  Biso   1.000  H
  C175     1.0000 0.03590  0.85120  0.32540  Biso   1.000  C
  H162     1.0000 0.00680  0.86850  0.34950  Biso   1.000  H
  C176     1.0000 0.14940  0.54650  0.26520  Biso   1.000  C
  H163     1.0000 0.18850  0.56640  0.24870  Biso   1.000  H
  C177     1.0000 0.15270  0.48850  0.26600  Biso   1.000  C
  H164     1.0000 0.19410  0.46990  0.25050  Biso   1.000  H
  C178     1.0000 0.09760  0.45850  0.28870  Biso   1.000  C
  C179     1.0000 0.03790  0.48760  0.30940  Biso   1.000  C
  H165     1.0000 0.99650  0.46800  0.32430  Biso   1.000  H
  C180     1.0000 0.03740  0.54600  0.30880  Biso   1.000  C
  H166     1.0000 0.99650  0.56540  0.32420  Biso   1.000  H
  C181     1.0000 0.10410  0.39730  0.29260  Biso   1.000  C
  C182     1.0000 0.13810  0.36480  0.25960  Biso   1.000  C
  H167     1.0000 0.15900  0.38160  0.23250  Biso   1.000  H
  C183     1.0000 0.14280  0.30620  0.26510  Biso   1.000  C
  C184     1.0000 0.11400  0.27970  0.30460  Biso   1.000  C
  C185     1.0000 0.07840  0.31360  0.34010  Biso   1.000  C
  C186     1.0000 0.07390  0.37060  0.33210  Biso   1.000  C
  H168     1.0000 0.04870  0.39300  0.35490  Biso   1.000  H
  C187     1.0000 0.04210  0.28650  0.38310  Biso   1.000  C
  C188     1.0000 0.10120  0.24950  0.40960  Biso   1.000  C
  H169     1.0000 0.11600  0.21780  0.39020  Biso   1.000  H
  H170     1.0000 0.07690  0.23600  0.43830  Biso   1.000  H
  H171     1.0000 0.14810  0.27130  0.41720  Biso   1.000  H
  C189     1.0000 0.97240  0.25170  0.36800  Biso   1.000  C
  H172     1.0000 0.93130  0.27610  0.35580  Biso   1.000  H
  H173     1.0000 0.95200  0.23100  0.39460  Biso   1.000  H
  H174     1.0000 0.98900  0.22560  0.34380  Biso   1.000  H
  C190     1.0000 0.01230  0.33070  0.41770  Biso   1.000  C
  H175     1.0000 0.05070  0.36090  0.42000  Biso   1.000  H
  H176     1.0000 0.00530  0.31360  0.44830  Biso   1.000  H
  H177     1.0000 0.96210  0.34560  0.40690  Biso   1.000  H
  C191     1.0000 0.18030  0.27530  0.22700  Biso   1.000  C
  H178     1.0000 0.20380  0.29590  0.20260  Biso   1.000  H
  C192     1.0000 0.22290  0.19260  0.18570  Biso   1.000  C
  H179     1.0000 0.27330  0.17750  0.19810  Biso   1.000  H
  C193     1.0000 0.24280  0.22710  0.14380  Biso   1.000  C
  H180     1.0000 0.28070  0.25640  0.15260  Biso   1.000  H
  H181     1.0000 0.19470  0.24540  0.13200  Biso   1.000  H
  C194     1.0000 0.27890  0.18950  0.10510  Biso   1.000  C
  H182     1.0000 0.28480  0.21170  0.07640  Biso   1.000  H
  H183     1.0000 0.33180  0.17730  0.11490  Biso   1.000  H
  C195     1.0000 0.22950  0.13890  0.09480  Biso   1.000  C
  H184     1.0000 0.25700  0.11510  0.07200  Biso   1.000  H
  H185     1.0000 0.17910  0.15070  0.08090  Biso   1.000  H
  C196     1.0000 0.21340  0.10520  0.13950  Biso   1.000  C
  H186     1.0000 0.18180  0.07180  0.13210  Biso   1.000  H
  H187     1.0000 0.26370  0.09280  0.15330  Biso   1.000  H
  C197     1.0000 0.16930  0.14170  0.17380  Biso   1.000  C
  H188     1.0000 0.12010  0.15550  0.15880  Biso   1.000  H
  C198     1.0000 0.13340  0.06400  0.22040  Biso   1.000  C
  H189     1.0000 0.13760  0.04300  0.19260  Biso   1.000  H
  C199     1.0000 0.10900  0.03540  0.26220  Biso   1.000  C
  C200     1.0000 0.10280  0.97680  0.25890  Biso   1.000  C
  H190     1.0000 0.11370  0.95900  0.23020  Biso   1.000  H
  C201     1.0000 0.06850  0.97120  0.33860  Biso   1.000  C
  H191     1.0000 0.05400  0.94910  0.36450  Biso   1.000  H
  C202     1.0000 0.07590  0.02850  0.34440  Biso   1.000  C
  C203     1.0000 0.09440  0.06110  0.30610  Biso   1.000  C
  C204     1.0000 0.06880  0.05490  0.39350  Biso   1.000  C
  C205     1.0000 0.14520  0.08430  0.40590  Biso   1.000  C
  H192     1.0000 0.18920  0.05860  0.40180  Biso   1.000  H
  H193     1.0000 0.14310  0.09660  0.43830  Biso   1.000  H
  H194     1.0000 0.15230  0.11660  0.38560  Biso   1.000  H
  C206     1.0000 0.05070  0.01190  0.43280  Biso   1.000  C
  H195     1.0000 0.00650  0.98830  0.42340  Biso   1.000  H
  H196     1.0000 0.03720  0.03170  0.46140  Biso   1.000  H
  H197     1.0000 0.09700  0.98860  0.43820  Biso   1.000  H
  C207     1.0000 0.00110  0.09750  0.39530  Biso   1.000  C
  H198     1.0000 0.01310  0.12890  0.37480  Biso   1.000  H
  H199     1.0000 0.99480  0.11100  0.42710  Biso   1.000  H
  H200     1.0000 0.95240  0.07960  0.38510  Biso   1.000  H
  C208     1.0000 0.83150  0.67010  0.12610  Biso   1.000  C
  V5       1.0000 0.35545  0.10030  0.79429  Biso   1.000  V
  V6       1.0000 0.16807  0.16517  0.27655  Biso   1.000  V
  V7       1.0000 0.41600  0.09669  0.77678  Biso   1.000  V
  V8       1.0000 0.09240  0.17458  0.26422  Biso   1.000  V
  O25      1.0000 0.50000  0.08890  0.75000  Biso   1.000  O
  O26      1.0000 0.00000  0.18480  0.25000  Biso   1.000  O
  Cd5      1.0000 0.40854  0.40154  0.20902  Biso   1.000  Cd
  Cd6      1.0000 0.09067  0.32893  0.70919  Biso   1.000  Cd
  O27      1.0000 0.41930  0.84590  0.17330  Biso   1.000  O
  O28      1.0000 0.40570  0.95880  0.17300  Biso   1.000  O
  O29      1.0000 0.28590  0.37930  0.16347  Biso   1.000  O
  O30      1.0000 0.40040  0.39660  0.12933  Biso   1.000  O
  O31      1.0000 0.17120  0.32560  0.77286  Biso   1.000  O
  O32      1.0000 0.54500  0.40710  0.20340  Biso   1.000  O
  O33      1.0000 0.66770  0.40130  0.22590  Biso   1.000  O
  O34      1.0000 0.11590  0.77460  0.69000  Biso   1.000  O
  O35      1.0000 0.09950  0.88400  0.69100  Biso   1.000  O
  O36      1.0000 0.90580  0.33180  0.87120  Biso   1.000  O
  O37      1.0000 0.78790  0.32420  0.84000  Biso   1.000  O
  O38      1.0000 0.04730  0.33380  0.79540  Biso   1.000  O
  N17      1.0000 0.36630  0.84760  0.26460  Biso   1.000  N
  N18      1.0000 0.34350  0.95510  0.26170  Biso   1.000  N
  N19      1.0000 0.42810  0.30690  0.20940  Biso   1.000  N
  N20      1.0000 0.41390  0.49570  0.20400  Biso   1.000  N
  N21      1.0000 0.08030  0.23400  0.70950  Biso   1.000  N
  N22      1.0000 0.09310  0.42520  0.71310  Biso   1.000  N
  N23      1.0000 0.18270  0.77750  0.77510  Biso   1.000  N
  N24      1.0000 0.14930  0.88470  0.78120  Biso   1.000  N
  C209     1.0000 0.41780  0.79100  0.17710  Biso   1.000  C
  C210     1.0000 0.43390  0.75670  0.13840  Biso   1.000  C
  C211     1.0000 0.43520  0.69950  0.14500  Biso   1.000  C
  H201     1.0000 0.44750  0.67660  0.11920  Biso   1.000  H
  C212     1.0000 0.41960  0.67400  0.18720  Biso   1.000  C
  C213     1.0000 0.40020  0.70680  0.22420  Biso   1.000  C
  H202     1.0000 0.38760  0.69010  0.25310  Biso   1.000  H
  C214     1.0000 0.39890  0.76560  0.21990  Biso   1.000  C
  C215     1.0000 0.44830  0.78250  0.09110  Biso   1.000  C
  C216     1.0000 0.51960  0.82150  0.09180  Biso   1.000  C
  H203     1.0000 0.51240  0.84960  0.11600  Biso   1.000  H
  H204     1.0000 0.52470  0.83980  0.06160  Biso   1.000  H
  H205     1.0000 0.56710  0.79990  0.09830  Biso   1.000  H
  C217     1.0000 0.46550  0.73840  0.05240  Biso   1.000  C
  H206     1.0000 0.51990  0.72570  0.05500  Biso   1.000  H
  H207     1.0000 0.45740  0.75530  0.02180  Biso   1.000  H
  H208     1.0000 0.43000  0.70670  0.05610  Biso   1.000  H
  C218     1.0000 0.37220  0.81560  0.07510  Biso   1.000  C
  H209     1.0000 0.32830  0.78950  0.07150  Biso   1.000  H
  H210     1.0000 0.38240  0.83390  0.04540  Biso   1.000  H
  H211     1.0000 0.35880  0.84360  0.09840  Biso   1.000  H
  C219     1.0000 0.42000  0.61190  0.19240  Biso   1.000  C
  C220     1.0000 0.45310  0.57750  0.16300  Biso   1.000  C
  H212     1.0000 0.47960  0.59270  0.13690  Biso   1.000  H
  C221     1.0000 0.38190  0.58650  0.23020  Biso   1.000  C
  H213     1.0000 0.35820  0.60850  0.25370  Biso   1.000  H
  C222     1.0000 0.37740  0.79450  0.26180  Biso   1.000  C
  H214     1.0000 0.37100  0.77310  0.28920  Biso   1.000  H
  C223     1.0000 0.34900  0.87390  0.31080  Biso   1.000  C
  H215     1.0000 0.40000  0.88520  0.32510  Biso   1.000  H
  C224     1.0000 0.30480  0.83790  0.34560  Biso   1.000  C
  H216     1.0000 0.33600  0.80440  0.35320  Biso   1.000  H
  H217     1.0000 0.25410  0.82590  0.33220  Biso   1.000  H
  C225     1.0000 0.29090  0.87260  0.38930  Biso   1.000  C
  H218     1.0000 0.26180  0.84990  0.41220  Biso   1.000  H
  H219     1.0000 0.34200  0.88280  0.40310  Biso   1.000  H
  C226     1.0000 0.24510  0.92470  0.37910  Biso   1.000  C
  H220     1.0000 0.23850  0.94640  0.40800  Biso   1.000  H
  H221     1.0000 0.19230  0.91460  0.36760  Biso   1.000  H
  C227     1.0000 0.28650  0.95990  0.34340  Biso   1.000  C
  H222     1.0000 0.33690  0.97330  0.35620  Biso   1.000  H
  H223     1.0000 0.25380  0.99270  0.33600  Biso   1.000  H
  C228     1.0000 0.30180  0.92710  0.29960  Biso   1.000  C
  H224     1.0000 0.24970  0.91510  0.28720  Biso   1.000  H
  C229     1.0000 0.35730  0.00650  0.26090  Biso   1.000  C
  H225     1.0000 0.34400  0.02700  0.28790  Biso   1.000  H
  C230     1.0000 0.39120  0.03720  0.22330  Biso   1.000  C
  C231     1.0000 0.40140  0.09540  0.22980  Biso   1.000  C
  H226     1.0000 0.39000  0.11120  0.25920  Biso   1.000  H
  C232     1.0000 0.42700  0.12920  0.19480  Biso   1.000  C
  C233     1.0000 0.44270  0.10440  0.15140  Biso   1.000  C
  H227     1.0000 0.46140  0.12720  0.12690  Biso   1.000  H
  C234     1.0000 0.43190  0.04770  0.14310  Biso   1.000  C
  C235     1.0000 0.40920  0.01350  0.18030  Biso   1.000  C
  C236     1.0000 0.44410  0.02360  0.09400  Biso   1.000  C
  C237     1.0000 0.36700  0.99350  0.07760  Biso   1.000  C
  H228     1.0000 0.32200  0.01830  0.08200  Biso   1.000  H
  H229     1.0000 0.35930  0.95950  0.09590  Biso   1.000  H
  H230     1.0000 0.37160  0.98380  0.04470  Biso   1.000  H
  C238     1.0000 0.46190  0.07020  0.05780  Biso   1.000  C
  H231     1.0000 0.42550  0.10130  0.06240  Biso   1.000  H
  H232     1.0000 0.45550  0.05530  0.02640  Biso   1.000  H
  H233     1.0000 0.51590  0.08340  0.06190  Biso   1.000  H
  C239     1.0000 0.51310  0.98400  0.09340  Biso   1.000  C
  H234     1.0000 0.51240  0.96250  0.06460  Biso   1.000  H
  H235     1.0000 0.50950  0.95870  0.12000  Biso   1.000  H
  H236     1.0000 0.56210  0.00530  0.09540  Biso   1.000  H
  C240     1.0000 0.43190  0.18990  0.20120  Biso   1.000  C
  C241     1.0000 0.39700  0.21640  0.23870  Biso   1.000  C
  H237     1.0000 0.37440  0.19470  0.26280  Biso   1.000  H
  C242     1.0000 0.39440  0.27360  0.24170  Biso   1.000  C
  H238     1.0000 0.36810  0.29030  0.26720  Biso   1.000  H
  C243     1.0000 0.46390  0.28220  0.17390  Biso   1.000  C
  H239     1.0000 0.48820  0.30510  0.15110  Biso   1.000  H
  C244     1.0000 0.46770  0.22480  0.16810  Biso   1.000  C
  H240     1.0000 0.49420  0.20930  0.14220  Biso   1.000  H
  C245     1.0000 0.37920  0.52900  0.23270  Biso   1.000  C
  H241     1.0000 0.34980  0.51280  0.25720  Biso   1.000  H
  C246     1.0000 0.45140  0.51970  0.16800  Biso   1.000  C
  H242     1.0000 0.47710  0.49700  0.14580  Biso   1.000  H
  C247     1.0000 0.32820  0.38210  0.12850  Biso   1.000  C
  C248     1.0000 0.29490  0.37010  0.08150  Biso   1.000  C
  C249     1.0000 0.34290  0.37620  0.04210  Biso   1.000  C
  H243     1.0000 0.39630  0.38670  0.04580  Biso   1.000  H
  C250     1.0000 0.31320  0.36700  0.99810  Biso   1.000  C
  H244     1.0000 0.34660  0.37120  0.97190  Biso   1.000  H
  C251     1.0000 0.23380  0.35170  0.99150  Biso   1.000  C
  C252     1.0000 0.18560  0.34560  0.03160  Biso   1.000  C
  H245     1.0000 0.13220  0.33500  0.02850  Biso   1.000  H
  C253     1.0000 0.21750  0.35550  0.07540  Biso   1.000  C
  H246     1.0000 0.18480  0.35190  0.10180  Biso   1.000  H
  C254     1.0000 0.20190  0.34390  0.94410  Biso   1.000  C
  C255     1.0000 0.25000  0.32640  0.90920  Biso   1.000  C
  H247     1.0000 0.30290  0.31690  0.91600  Biso   1.000  H
  C256     1.0000 0.22290  0.32220  0.86380  Biso   1.000  C
  H248     1.0000 0.25760  0.31160  0.83960  Biso   1.000  H
  C257     1.0000 0.14590  0.33350  0.85410  Biso   1.000  C
  C258     1.0000 0.09470  0.34910  0.88890  Biso   1.000  C
  H249     1.0000 0.04110  0.35640  0.88210  Biso   1.000  H
  C259     1.0000 0.12270  0.35370  0.93380  Biso   1.000  C
  H250     1.0000 0.08770  0.36370  0.95800  Biso   1.000  H
  C260     1.0000 0.12030  0.33070  0.80410  Biso   1.000  C
  C261     1.0000 0.61600  0.40040  0.19510  Biso   1.000  C
  C262     1.0000 0.64370  0.38890  0.14650  Biso   1.000  C
  C263     1.0000 0.72240  0.37620  0.13960  Biso   1.000  C
  H251     1.0000 0.75720  0.37400  0.16530  Biso   1.000  H
  C264     1.0000 0.75000  0.36670  0.09520  Biso   1.000  C
  H252     1.0000 0.80430  0.35980  0.09050  Biso   1.000  H
  C265     1.0000 0.70000  0.36700  0.05720  Biso   1.000  C
  C266     1.0000 0.62090  0.37800  0.06440  Biso   1.000  C
  H253     1.0000 0.58530  0.37810  0.03910  Biso   1.000  H
  C267     1.0000 0.59390  0.38910  0.10950  Biso   1.000  C
  H254     1.0000 0.53990  0.39690  0.11440  Biso   1.000  H
  C268     1.0000 0.73320  0.35700  0.00940  Biso   1.000  C
  C269     1.0000 0.80790  0.37420  0.99880  Biso   1.000  C
  H255     1.0000 0.83780  0.39370  0.02130  Biso   1.000  H
  C270     1.0000 0.84010  0.36350  0.95590  Biso   1.000  C
  H256     1.0000 0.89260  0.37450  0.94960  Biso   1.000  H
  C271     1.0000 0.79700  0.33710  0.92200  Biso   1.000  C
  C272     1.0000 0.72060  0.32100  0.93220  Biso   1.000  C
  H257     1.0000 0.68850  0.30550  0.90860  Biso   1.000  H
  C273     1.0000 0.69130  0.32760  0.97630  Biso   1.000  C
  H258     1.0000 0.64190  0.31180  0.98410  Biso   1.000  H
  C274     1.0000 0.08130  0.05470  0.70360  Biso   1.000  C
  C275     1.0000 0.07660  0.11670  0.70670  Biso   1.000  C
  C276     1.0000 0.11950  0.14540  0.73960  Biso   1.000  C
  H259     1.0000 0.14900  0.12560  0.76210  Biso   1.000  H
  C277     1.0000 0.11960  0.20380  0.73990  Biso   1.000  C
  H260     1.0000 0.14930  0.22240  0.76310  Biso   1.000  H
  C278     1.0000 0.03830  0.20680  0.67820  Biso   1.000  C
  H261     1.0000 0.00810  0.22790  0.65690  Biso   1.000  H
  C279     1.0000 0.03590  0.14880  0.67460  Biso   1.000  C
  H262     1.0000 0.00680  0.13150  0.65050  Biso   1.000  H
  C280     1.0000 0.14940  0.45350  0.73480  Biso   1.000  C
  H263     1.0000 0.18850  0.43360  0.75130  Biso   1.000  H
  C281     1.0000 0.15270  0.51150  0.73400  Biso   1.000  C
  H264     1.0000 0.19410  0.53010  0.74950  Biso   1.000  H
  C282     1.0000 0.09760  0.54150  0.71130  Biso   1.000  C
  C283     1.0000 0.03790  0.51240  0.69060  Biso   1.000  C
  H265     1.0000 0.99650  0.53200  0.67570  Biso   1.000  H
  C284     1.0000 0.03740  0.45400  0.69120  Biso   1.000  C
  H266     1.0000 0.99650  0.43460  0.67580  Biso   1.000  H
  C285     1.0000 0.10410  0.60270  0.70740  Biso   1.000  C
  C286     1.0000 0.13810  0.63520  0.74040  Biso   1.000  C
  H267     1.0000 0.15900  0.61840  0.76750  Biso   1.000  H
  C287     1.0000 0.14280  0.69380  0.73490  Biso   1.000  C
  C288     1.0000 0.11400  0.72030  0.69540  Biso   1.000  C
  C289     1.0000 0.07840  0.68640  0.65990  Biso   1.000  C
  C290     1.0000 0.07390  0.62940  0.66790  Biso   1.000  C
  H268     1.0000 0.04870  0.60700  0.64510  Biso   1.000  H
  C291     1.0000 0.04210  0.71350  0.61690  Biso   1.000  C
  C292     1.0000 0.10120  0.75050  0.59040  Biso   1.000  C
  H269     1.0000 0.11600  0.78220  0.60980  Biso   1.000  H
  H270     1.0000 0.07690  0.76400  0.56170  Biso   1.000  H
  H271     1.0000 0.14810  0.72870  0.58280  Biso   1.000  H
  C293     1.0000 0.97240  0.74830  0.63200  Biso   1.000  C
  H272     1.0000 0.93130  0.72390  0.64420  Biso   1.000  H
  H273     1.0000 0.95200  0.76900  0.60540  Biso   1.000  H
  H274     1.0000 0.98900  0.77440  0.65620  Biso   1.000  H
  C294     1.0000 0.01230  0.66930  0.58230  Biso   1.000  C
  H275     1.0000 0.05070  0.63910  0.58000  Biso   1.000  H
  H276     1.0000 0.00530  0.68640  0.55170  Biso   1.000  H
  H277     1.0000 0.96210  0.65440  0.59310  Biso   1.000  H
  C295     1.0000 0.18030  0.72470  0.77300  Biso   1.000  C
  H278     1.0000 0.20380  0.70410  0.79740  Biso   1.000  H
  C296     1.0000 0.22290  0.80740  0.81430  Biso   1.000  C
  H279     1.0000 0.27330  0.82250  0.80190  Biso   1.000  H
  C297     1.0000 0.24280  0.77290  0.85620  Biso   1.000  C
  H280     1.0000 0.28070  0.74360  0.84740  Biso   1.000  H
  H281     1.0000 0.19470  0.75460  0.86800  Biso   1.000  H
  C298     1.0000 0.27890  0.81050  0.89490  Biso   1.000  C
  H282     1.0000 0.28480  0.78830  0.92360  Biso   1.000  H
  H283     1.0000 0.33180  0.82270  0.88510  Biso   1.000  H
  C299     1.0000 0.22950  0.86110  0.90520  Biso   1.000  C
  H284     1.0000 0.25700  0.88490  0.92800  Biso   1.000  H
  H285     1.0000 0.17910  0.84930  0.91910  Biso   1.000  H
  C300     1.0000 0.21340  0.89480  0.86050  Biso   1.000  C
  H286     1.0000 0.18180  0.92820  0.86790  Biso   1.000  H
  H287     1.0000 0.26370  0.90720  0.84670  Biso   1.000  H
  C301     1.0000 0.16930  0.85830  0.82620  Biso   1.000  C
  H288     1.0000 0.12010  0.84450  0.84120  Biso   1.000  H
  C302     1.0000 0.13340  0.93600  0.77960  Biso   1.000  C
  H289     1.0000 0.13760  0.95700  0.80740  Biso   1.000  H
  C303     1.0000 0.10900  0.96460  0.73780  Biso   1.000  C
  C304     1.0000 0.10280  0.02320  0.74110  Biso   1.000  C
  H290     1.0000 0.11370  0.04100  0.76980  Biso   1.000  H
  C305     1.0000 0.06850  0.02880  0.66140  Biso   1.000  C
  H291     1.0000 0.05400  0.05090  0.63550  Biso   1.000  H
  C306     1.0000 0.07590  0.97150  0.65560  Biso   1.000  C
  C307     1.0000 0.09440  0.93890  0.69390  Biso   1.000  C
  C308     1.0000 0.06880  0.94510  0.60650  Biso   1.000  C
  C309     1.0000 0.14520  0.91570  0.59410  Biso   1.000  C
  H292     1.0000 0.18920  0.94140  0.59820  Biso   1.000  H
  H293     1.0000 0.14310  0.90340  0.56170  Biso   1.000  H
  H294     1.0000 0.15230  0.88340  0.61440  Biso   1.000  H
  C310     1.0000 0.05070  0.98810  0.56720  Biso   1.000  C
  H295     1.0000 0.00650  0.01170  0.57660  Biso   1.000  H
  H296     1.0000 0.03720  0.96830  0.53860  Biso   1.000  H
  H297     1.0000 0.09700  0.01140  0.56180  Biso   1.000  H
  C311     1.0000 0.00110  0.90250  0.60470  Biso   1.000  C
  H298     1.0000 0.01310  0.87110  0.62520  Biso   1.000  H
  H299     1.0000 0.99480  0.88900  0.57290  Biso   1.000  H
  H300     1.0000 0.95240  0.92040  0.61490  Biso   1.000  H
  C312     1.0000 0.83150  0.32990  0.87390  Biso   1.000  C
  V9       1.0000 0.35545  0.89970  0.20571  Biso   1.000  V
  V10      1.0000 0.16807  0.83483  0.72345  Biso   1.000  V
  V11      1.0000 0.41600  0.90331  0.22322  Biso   1.000  V
  V12      1.0000 0.09240  0.82542  0.73578  Biso   1.000  V
  Cd7      1.0000 0.59146  0.40154  0.29098  Biso   1.000  Cd
  Cd8      1.0000 0.90933  0.32893  0.79081  Biso   1.000  Cd
  O39      1.0000 0.58070  0.84590  0.32670  Biso   1.000  O
  O40      1.0000 0.59430  0.95880  0.32700  Biso   1.000  O
  O41      1.0000 0.71410  0.37930  0.33653  Biso   1.000  O
  O42      1.0000 0.59960  0.39660  0.37067  Biso   1.000  O
  O43      1.0000 0.82880  0.32560  0.72714  Biso   1.000  O
  O44      1.0000 0.45500  0.40710  0.29660  Biso   1.000  O
  O45      1.0000 0.33230  0.40130  0.27410  Biso   1.000  O
  O46      1.0000 0.88410  0.77460  0.81000  Biso   1.000  O
  O47      1.0000 0.90050  0.88400  0.80900  Biso   1.000  O
  O48      1.0000 0.09420  0.33180  0.62880  Biso   1.000  O
  O49      1.0000 0.21210  0.32420  0.66000  Biso   1.000  O
  O50      1.0000 0.95270  0.33380  0.70460  Biso   1.000  O
  N25      1.0000 0.63370  0.84760  0.23540  Biso   1.000  N
  N26      1.0000 0.65650  0.95510  0.23830  Biso   1.000  N
  N27      1.0000 0.57190  0.30690  0.29060  Biso   1.000  N
  N28      1.0000 0.58610  0.49570  0.29600  Biso   1.000  N
  N29      1.0000 0.91970  0.23400  0.79050  Biso   1.000  N
  N30      1.0000 0.90690  0.42520  0.78690  Biso   1.000  N
  N31      1.0000 0.81730  0.77750  0.72490  Biso   1.000  N
  N32      1.0000 0.85070  0.88470  0.71880  Biso   1.000  N
  C313     1.0000 0.58220  0.79100  0.32290  Biso   1.000  C
  C314     1.0000 0.56610  0.75670  0.36160  Biso   1.000  C
  C315     1.0000 0.56480  0.69950  0.35500  Biso   1.000  C
  H301     1.0000 0.55250  0.67660  0.38080  Biso   1.000  H
  C316     1.0000 0.58040  0.67400  0.31280  Biso   1.000  C
  C317     1.0000 0.59980  0.70680  0.27580  Biso   1.000  C
  H302     1.0000 0.61240  0.69010  0.24690  Biso   1.000  H
  C318     1.0000 0.60110  0.76560  0.28010  Biso   1.000  C
  C319     1.0000 0.55170  0.78250  0.40890  Biso   1.000  C
  C320     1.0000 0.48040  0.82150  0.40820  Biso   1.000  C
  H303     1.0000 0.48760  0.84960  0.38400  Biso   1.000  H
  H304     1.0000 0.47530  0.83980  0.43840  Biso   1.000  H
  H305     1.0000 0.43290  0.79990  0.40170  Biso   1.000  H
  C321     1.0000 0.53450  0.73840  0.44760  Biso   1.000  C
  H306     1.0000 0.48010  0.72570  0.44500  Biso   1.000  H
  H307     1.0000 0.54260  0.75530  0.47820  Biso   1.000  H
  H308     1.0000 0.57000  0.70670  0.44390  Biso   1.000  H
  C322     1.0000 0.62780  0.81560  0.42490  Biso   1.000  C
  H309     1.0000 0.67170  0.78950  0.42850  Biso   1.000  H
  H310     1.0000 0.61760  0.83390  0.45460  Biso   1.000  H
  H311     1.0000 0.64120  0.84360  0.40160  Biso   1.000  H
  C323     1.0000 0.58000  0.61190  0.30760  Biso   1.000  C
  C324     1.0000 0.54690  0.57750  0.33700  Biso   1.000  C
  H312     1.0000 0.52040  0.59270  0.36310  Biso   1.000  H
  C325     1.0000 0.61810  0.58650  0.26980  Biso   1.000  C
  H313     1.0000 0.64180  0.60850  0.24630  Biso   1.000  H
  C326     1.0000 0.62260  0.79450  0.23820  Biso   1.000  C
  H314     1.0000 0.62900  0.77310  0.21080  Biso   1.000  H
  C327     1.0000 0.65100  0.87390  0.18920  Biso   1.000  C
  H315     1.0000 0.60000  0.88520  0.17490  Biso   1.000  H
  C328     1.0000 0.69520  0.83790  0.15440  Biso   1.000  C
  H316     1.0000 0.66400  0.80440  0.14680  Biso   1.000  H
  H317     1.0000 0.74590  0.82590  0.16780  Biso   1.000  H
  C329     1.0000 0.70910  0.87260  0.11070  Biso   1.000  C
  H318     1.0000 0.73820  0.84990  0.08780  Biso   1.000  H
  H319     1.0000 0.65800  0.88280  0.09690  Biso   1.000  H
  C330     1.0000 0.75490  0.92470  0.12090  Biso   1.000  C
  H320     1.0000 0.76150  0.94640  0.09200  Biso   1.000  H
  H321     1.0000 0.80770  0.91460  0.13240  Biso   1.000  H
  C331     1.0000 0.71350  0.95990  0.15660  Biso   1.000  C
  H322     1.0000 0.66310  0.97330  0.14380  Biso   1.000  H
  H323     1.0000 0.74620  0.99270  0.16400  Biso   1.000  H
  C332     1.0000 0.69820  0.92710  0.20040  Biso   1.000  C
  H324     1.0000 0.75030  0.91510  0.21280  Biso   1.000  H
  C333     1.0000 0.64270  0.00650  0.23910  Biso   1.000  C
  H325     1.0000 0.65600  0.02700  0.21210  Biso   1.000  H
  C334     1.0000 0.60880  0.03720  0.27670  Biso   1.000  C
  C335     1.0000 0.59860  0.09540  0.27020  Biso   1.000  C
  H326     1.0000 0.61000  0.11120  0.24080  Biso   1.000  H
  C336     1.0000 0.57300  0.12920  0.30520  Biso   1.000  C
  C337     1.0000 0.55730  0.10440  0.34860  Biso   1.000  C
  H327     1.0000 0.53860  0.12720  0.37310  Biso   1.000  H
  C338     1.0000 0.56810  0.04770  0.35690  Biso   1.000  C
  C339     1.0000 0.59080  0.01350  0.31970  Biso   1.000  C
  C340     1.0000 0.55590  0.02360  0.40600  Biso   1.000  C
  C341     1.0000 0.63300  0.99350  0.42240  Biso   1.000  C
  H328     1.0000 0.67800  0.01830  0.41800  Biso   1.000  H
  H329     1.0000 0.64070  0.95950  0.40410  Biso   1.000  H
  H330     1.0000 0.62840  0.98380  0.45530  Biso   1.000  H
  C342     1.0000 0.53810  0.07020  0.44220  Biso   1.000  C
  H331     1.0000 0.57450  0.10130  0.43760  Biso   1.000  H
  H332     1.0000 0.54450  0.05530  0.47360  Biso   1.000  H
  H333     1.0000 0.48410  0.08340  0.43810  Biso   1.000  H
  C343     1.0000 0.48690  0.98400  0.40660  Biso   1.000  C
  H334     1.0000 0.48760  0.96250  0.43540  Biso   1.000  H
  H335     1.0000 0.49050  0.95870  0.38000  Biso   1.000  H
  H336     1.0000 0.43790  0.00530  0.40460  Biso   1.000  H
  C344     1.0000 0.56810  0.18990  0.29880  Biso   1.000  C
  C345     1.0000 0.60300  0.21640  0.26130  Biso   1.000  C
  H337     1.0000 0.62560  0.19470  0.23720  Biso   1.000  H
  C346     1.0000 0.60560  0.27360  0.25830  Biso   1.000  C
  H338     1.0000 0.63190  0.29030  0.23280  Biso   1.000  H
  C347     1.0000 0.53610  0.28220  0.32610  Biso   1.000  C
  H339     1.0000 0.51180  0.30510  0.34890  Biso   1.000  H
  C348     1.0000 0.53230  0.22480  0.33190  Biso   1.000  C
  H340     1.0000 0.50580  0.20930  0.35780  Biso   1.000  H
  C349     1.0000 0.62080  0.52900  0.26730  Biso   1.000  C
  H341     1.0000 0.65020  0.51280  0.24280  Biso   1.000  H
  C350     1.0000 0.54860  0.51970  0.33200  Biso   1.000  C
  H342     1.0000 0.52290  0.49700  0.35420  Biso   1.000  H
  C351     1.0000 0.67180  0.38210  0.37150  Biso   1.000  C
  C352     1.0000 0.70510  0.37010  0.41850  Biso   1.000  C
  C353     1.0000 0.65710  0.37620  0.45790  Biso   1.000  C
  H343     1.0000 0.60370  0.38670  0.45420  Biso   1.000  H
  C354     1.0000 0.68680  0.36700  0.50190  Biso   1.000  C
  H344     1.0000 0.65340  0.37120  0.52810  Biso   1.000  H
  C355     1.0000 0.76620  0.35170  0.50850  Biso   1.000  C
  C356     1.0000 0.81440  0.34560  0.46840  Biso   1.000  C
  H345     1.0000 0.86780  0.33500  0.47150  Biso   1.000  H
  C357     1.0000 0.78250  0.35550  0.42460  Biso   1.000  C
  H346     1.0000 0.81520  0.35190  0.39820  Biso   1.000  H
  C358     1.0000 0.79810  0.34390  0.55590  Biso   1.000  C
  C359     1.0000 0.75000  0.32640  0.59080  Biso   1.000  C
  H347     1.0000 0.69710  0.31690  0.58400  Biso   1.000  H
  C360     1.0000 0.77710  0.32220  0.63620  Biso   1.000  C
  H348     1.0000 0.74240  0.31160  0.66040  Biso   1.000  H
  C361     1.0000 0.85410  0.33350  0.64590  Biso   1.000  C
  C362     1.0000 0.90530  0.34910  0.61110  Biso   1.000  C
  H349     1.0000 0.95890  0.35640  0.61790  Biso   1.000  H
  C363     1.0000 0.87730  0.35370  0.56620  Biso   1.000  C
  H350     1.0000 0.91230  0.36370  0.54200  Biso   1.000  H
  C364     1.0000 0.87970  0.33070  0.69590  Biso   1.000  C
  C365     1.0000 0.38400  0.40040  0.30490  Biso   1.000  C
  C366     1.0000 0.35630  0.38890  0.35350  Biso   1.000  C
  C367     1.0000 0.27760  0.37620  0.36040  Biso   1.000  C
  H351     1.0000 0.24280  0.37400  0.33470  Biso   1.000  H
  C368     1.0000 0.25000  0.36670  0.40480  Biso   1.000  C
  H352     1.0000 0.19570  0.35980  0.40950  Biso   1.000  H
  C369     1.0000 0.30000  0.36700  0.44280  Biso   1.000  C
  C370     1.0000 0.37910  0.37800  0.43560  Biso   1.000  C
  H353     1.0000 0.41470  0.37810  0.46090  Biso   1.000  H
  C371     1.0000 0.40610  0.38910  0.39050  Biso   1.000  C
  H354     1.0000 0.46010  0.39690  0.38560  Biso   1.000  H
  C372     1.0000 0.26680  0.35700  0.49060  Biso   1.000  C
  C373     1.0000 0.19210  0.37420  0.50120  Biso   1.000  C
  H355     1.0000 0.16220  0.39370  0.47870  Biso   1.000  H
  C374     1.0000 0.15990  0.36350  0.54410  Biso   1.000  C
  H356     1.0000 0.10740  0.37450  0.55040  Biso   1.000  H
  C375     1.0000 0.20300  0.33710  0.57800  Biso   1.000  C
  C376     1.0000 0.27940  0.32100  0.56780  Biso   1.000  C
  H357     1.0000 0.31150  0.30550  0.59140  Biso   1.000  H
  C377     1.0000 0.30870  0.32760  0.52370  Biso   1.000  C
  H358     1.0000 0.35810  0.31180  0.51590  Biso   1.000  H
  C378     1.0000 0.91870  0.05470  0.79640  Biso   1.000  C
  C379     1.0000 0.92340  0.11670  0.79330  Biso   1.000  C
  C380     1.0000 0.88050  0.14540  0.76040  Biso   1.000  C
  H359     1.0000 0.85100  0.12560  0.73790  Biso   1.000  H
  C381     1.0000 0.88040  0.20380  0.76010  Biso   1.000  C
  H360     1.0000 0.85070  0.22240  0.73690  Biso   1.000  H
  C382     1.0000 0.96170  0.20680  0.82180  Biso   1.000  C
  H361     1.0000 0.99190  0.22790  0.84310  Biso   1.000  H
  C383     1.0000 0.96410  0.14880  0.82540  Biso   1.000  C
  H362     1.0000 0.99320  0.13150  0.84950  Biso   1.000  H
  C384     1.0000 0.85060  0.45350  0.76520  Biso   1.000  C
  H363     1.0000 0.81150  0.43360  0.74870  Biso   1.000  H
  C385     1.0000 0.84730  0.51150  0.76600  Biso   1.000  C
  H364     1.0000 0.80590  0.53010  0.75050  Biso   1.000  H
  C386     1.0000 0.90240  0.54150  0.78870  Biso   1.000  C
  C387     1.0000 0.96210  0.51240  0.80940  Biso   1.000  C
  H365     1.0000 0.00350  0.53200  0.82430  Biso   1.000  H
  C388     1.0000 0.96260  0.45400  0.80880  Biso   1.000  C
  H366     1.0000 0.00350  0.43460  0.82420  Biso   1.000  H
  C389     1.0000 0.89590  0.60270  0.79260  Biso   1.000  C
  C390     1.0000 0.86190  0.63520  0.75960  Biso   1.000  C
  H367     1.0000 0.84100  0.61840  0.73250  Biso   1.000  H
  C391     1.0000 0.85720  0.69380  0.76510  Biso   1.000  C
  C392     1.0000 0.88600  0.72030  0.80460  Biso   1.000  C
  C393     1.0000 0.92160  0.68640  0.84010  Biso   1.000  C
  C394     1.0000 0.92610  0.62940  0.83210  Biso   1.000  C
  H368     1.0000 0.95130  0.60700  0.85490  Biso   1.000  H
  C395     1.0000 0.95790  0.71350  0.88310  Biso   1.000  C
  C396     1.0000 0.89880  0.75050  0.90960  Biso   1.000  C
  H369     1.0000 0.88400  0.78220  0.89020  Biso   1.000  H
  H370     1.0000 0.92310  0.76400  0.93830  Biso   1.000  H
  H371     1.0000 0.85190  0.72870  0.91720  Biso   1.000  H
  C397     1.0000 0.02760  0.74830  0.86800  Biso   1.000  C
  H372     1.0000 0.06870  0.72390  0.85580  Biso   1.000  H
  H373     1.0000 0.04800  0.76900  0.89460  Biso   1.000  H
  H374     1.0000 0.01100  0.77440  0.84380  Biso   1.000  H
  C398     1.0000 0.98770  0.66930  0.91770  Biso   1.000  C
  H375     1.0000 0.94930  0.63910  0.92000  Biso   1.000  H
  H376     1.0000 0.99470  0.68640  0.94830  Biso   1.000  H
  H377     1.0000 0.03790  0.65440  0.90690  Biso   1.000  H
  C399     1.0000 0.81970  0.72470  0.72700  Biso   1.000  C
  H378     1.0000 0.79620  0.70410  0.70260  Biso   1.000  H
  C400     1.0000 0.77710  0.80740  0.68570  Biso   1.000  C
  H379     1.0000 0.72670  0.82250  0.69810  Biso   1.000  H
  C401     1.0000 0.75720  0.77290  0.64380  Biso   1.000  C
  H380     1.0000 0.71930  0.74360  0.65260  Biso   1.000  H
  H381     1.0000 0.80530  0.75460  0.63200  Biso   1.000  H
  C402     1.0000 0.72110  0.81050  0.60510  Biso   1.000  C
  H382     1.0000 0.71520  0.78830  0.57640  Biso   1.000  H
  H383     1.0000 0.66820  0.82270  0.61490  Biso   1.000  H
  C403     1.0000 0.77050  0.86110  0.59480  Biso   1.000  C
  H384     1.0000 0.74300  0.88490  0.57200  Biso   1.000  H
  H385     1.0000 0.82090  0.84930  0.58090  Biso   1.000  H
  C404     1.0000 0.78660  0.89480  0.63950  Biso   1.000  C
  H386     1.0000 0.81820  0.92820  0.63210  Biso   1.000  H
  H387     1.0000 0.73630  0.90720  0.65330  Biso   1.000  H
  C405     1.0000 0.83070  0.85830  0.67380  Biso   1.000  C
  H388     1.0000 0.87990  0.84450  0.65880  Biso   1.000  H
  C406     1.0000 0.86660  0.93600  0.72040  Biso   1.000  C
  H389     1.0000 0.86240  0.95700  0.69260  Biso   1.000  H
  C407     1.0000 0.89100  0.96460  0.76220  Biso   1.000  C
  C408     1.0000 0.89720  0.02320  0.75890  Biso   1.000  C
  H390     1.0000 0.88630  0.04100  0.73020  Biso   1.000  H
  C409     1.0000 0.93150  0.02880  0.83860  Biso   1.000  C
  H391     1.0000 0.94600  0.05090  0.86450  Biso   1.000  H
  C410     1.0000 0.92410  0.97150  0.84440  Biso   1.000  C
  C411     1.0000 0.90560  0.93890  0.80610  Biso   1.000  C
  C412     1.0000 0.93120  0.94510  0.89350  Biso   1.000  C
  C413     1.0000 0.85480  0.91570  0.90590  Biso   1.000  C
  H392     1.0000 0.81080  0.94140  0.90180  Biso   1.000  H
  H393     1.0000 0.85690  0.90340  0.93830  Biso   1.000  H
  H394     1.0000 0.84770  0.88340  0.88560  Biso   1.000  H
  C414     1.0000 0.94930  0.98810  0.93280  Biso   1.000  C
  H395     1.0000 0.99350  0.01170  0.92340  Biso   1.000  H
  H396     1.0000 0.96280  0.96830  0.96140  Biso   1.000  H
  H397     1.0000 0.90300  0.01140  0.93820  Biso   1.000  H
  C415     1.0000 0.99890  0.90250  0.89530  Biso   1.000  C
  H398     1.0000 0.98690  0.87110  0.87480  Biso   1.000  H
  H399     1.0000 0.00520  0.88900  0.92710  Biso   1.000  H
  H400     1.0000 0.04760  0.92040  0.88510  Biso   1.000  H
  C416     1.0000 0.16850  0.32990  0.62610  Biso   1.000  C
  V13      1.0000 0.64455  0.89970  0.29429  Biso   1.000  V
  V14      1.0000 0.83193  0.83483  0.77655  Biso   1.000  V
  V15      1.0000 0.58400  0.90331  0.27678  Biso   1.000  V
  V16      1.0000 0.90760  0.82542  0.76422  Biso   1.000  V
  O51      1.0000 0.50000  0.91110  0.25000  Biso   1.000  O
  O52      1.0000 0.00000  0.81520  0.75000  Biso   1.000  O
