data_image0
_cell_length_a       32.9676
_cell_length_b       32.9676
_cell_length_c       26.6956
_cell_angle_alpha    90
_cell_angle_beta     90
_cell_angle_gamma    90

_symmetry_space_group_name_H-M    "P 1"
_symmetry_int_tables_number       1

loop_
  _symmetry_equiv_pos_as_xyz
  'x, y, z'

loop_
  _atom_site_label
  _atom_site_occupancy
  _atom_site_fract_x
  _atom_site_fract_y
  _atom_site_fract_z
  _atom_site_thermal_displace_type
  _atom_site_B_iso_or_equiv
  _atom_site_type_symbol
  Cd1      1.0000 0.35814  0.37058  0.06276  Biso   1.000  Cd
  O1       1.0000 0.32035  0.37225  0.70810  Biso   1.000  O
  O2       1.0000 0.45824  0.47416  0.27291  Biso   1.000  O
  O3       1.0000 0.17762  0.19422  0.54541  Biso   1.000  O
  O4       1.0000 0.33309  0.37127  0.14498  Biso   1.000  O
  O5       1.0000 0.43907  0.46175  0.67499  Biso   1.000  O
  O6       1.0000 0.43874  0.46219  0.34995  Biso   1.000  O
  O7       1.0000 0.45709  0.47395  0.59804  Biso   1.000  O
  O8       1.0000 0.28846  0.34340  0.64638  Biso   1.000  O
  O9       1.0000 0.38810  0.40744  0.13107  Biso   1.000  O
  O10      1.0000 0.21012  0.26122  0.29409  Biso   1.000  O
  O11      1.0000 0.16701  0.21100  0.31057  Biso   1.000  O
  O12      1.0000 0.15307  0.15884  0.48347  Biso   1.000  O
  O13      1.0000 0.42713  0.36371  0.03440  Biso   1.000  O
  O14      1.0000 0.40061  0.31608  0.08173  Biso   1.000  O
  C1       1.0000 0.43433  0.45774  0.30442  Biso   1.000  C
  C2       1.0000 0.31499  0.36828  0.66180  Biso   1.000  C
  N1       1.0000 0.31667  0.36570  0.33032  Biso   1.000  N
  H1       1.0000 0.29920  0.35140  0.31420  Biso   1.000  H
  O15      1.0000 0.62085  0.22783  0.26260  Biso   1.000  O
  N2       1.0000 0.28990  0.33430  0.39670  Biso   1.000  N
  C3       1.0000 0.36243  0.39288  0.15959  Biso   1.000  C
  N3       1.0000 0.35590  0.40470  0.48914  Biso   1.000  N
  H2       1.0000 0.36920  0.42280  0.47280  Biso   1.000  H
  C4       1.0000 0.17476  0.18779  0.49940  Biso   1.000  C
  C5       1.0000 0.34386  0.38890  0.30000  Biso   1.000  C
  N4       1.0000 0.33690  0.38760  0.41032  Biso   1.000  N
  C6       1.0000 0.19450  0.21525  0.46330  Biso   1.000  C
  C7       1.0000 0.43438  0.45761  0.62919  Biso   1.000  C
  C8       1.0000 0.39172  0.42940  0.55859  Biso   1.000  C
  H3       1.0000 0.40900  0.44230  0.53610  Biso   1.000  H
  C9       1.0000 0.19396  0.23700  0.32440  Biso   1.000  C
  O16      1.0000 0.66929  0.19768  0.30334  Biso   1.000  O
  C10      1.0000 0.37360  0.41380  0.31800  Biso   1.000  C
  H4       1.0000 0.37620  0.41820  0.35230  Biso   1.000  H
  N5       1.0000 0.30840  0.35300  0.47998  Biso   1.000  N
  C11      1.0000 0.42964  0.33040  0.05590  Biso   1.000  C
  C12      1.0000 0.40025  0.43283  0.28410  Biso   1.000  C
  C13      1.0000 0.20244  0.24006  0.37880  Biso   1.000  C
  C14      1.0000 0.35950  0.40660  0.54109  Biso   1.000  C
  C15      1.0000 0.39610  0.42648  0.23326  Biso   1.000  C
  H5       1.0000 0.41400  0.43870  0.21100  Biso   1.000  H
  C16      1.0000 0.39864  0.43326  0.61146  Biso   1.000  C
  C17      1.0000 0.33380  0.38630  0.57460  Biso   1.000  C
  C18      1.0000 0.63460  0.19610  0.28300  Biso   1.000  C
  C19      1.0000 0.36491  0.40156  0.21533  Biso   1.000  C
  C20      1.0000 0.34067  0.39046  0.62649  Biso   1.000  C
  C21      1.0000 0.22080  0.24500  0.48000  Biso   1.000  C
  H6       1.0000 0.22660  0.24680  0.51400  Biso   1.000  H
  C22      1.0000 0.31440  0.36300  0.38340  Biso   1.000  C
  C23      1.0000 0.18510  0.21249  0.41370  Biso   1.000  C
  H7       1.0000 0.16730  0.19250  0.40260  Biso   1.000  H
  C24      1.0000 0.33917  0.38314  0.24890  Biso   1.000  C
  H8       1.0000 0.31840  0.36660  0.23720  Biso   1.000  H
  C25      1.0000 0.33370  0.37760  0.45990  Biso   1.000  C
  C26      1.0000 0.23020  0.26900  0.39564  Biso   1.000  C
  H9       1.0000 0.24300  0.28610  0.37280  Biso   1.000  H
  C27      1.0000 0.23880  0.27250  0.44670  Biso   1.000  C
  C28      1.0000 0.61000  0.15810  0.28220  Biso   1.000  C
  C29      1.0000 0.46790  0.30630  0.05370  Biso   1.000  C
  C30      1.0000 0.49890  0.31830  0.02090  Biso   1.000  C
  H10      1.0000 0.49600  0.34150  0.00160  Biso   1.000  H
  O17      1.0000 0.22060  0.17357  0.23500  Biso   1.000  O
  O18      1.0000 0.24879  0.22485  0.19410  Biso   1.000  O
  C31      1.0000 0.28840  0.32950  0.44660  Biso   1.000  C
  N6       1.0000 0.26410  0.30110  0.46785  Biso   1.000  N
  H11      1.0000 0.26450  0.30080  0.50010  Biso   1.000  H
  C32      1.0000 0.37348  0.41471  0.64345  Biso   1.000  C
  H12      1.0000 0.37760  0.41780  0.67770  Biso   1.000  H
  O19      1.0000 0.56770  0.34440  0.96930  Biso   1.000  O
  N7       1.0000 0.52006  0.21880  0.11500  Biso   1.000  N
  H13      1.0000 0.54520  0.21180  0.11580  Biso   1.000  H
  N8       1.0000 0.39346  0.18430  0.17110  Biso   1.000  N
  H14      1.0000 0.38580  0.20220  0.14970  Biso   1.000  H
  N9       1.0000 0.50690  0.12670  0.24390  Biso   1.000  N
  H15      1.0000 0.49040  0.10990  0.25770  Biso   1.000  H
  C33      1.0000 0.53990  0.26300  0.04830  Biso   1.000  C
  H16      1.0000 0.56450  0.24920  0.04670  Biso   1.000  H
  C34      1.0000 0.54660  0.12540  0.26090  Biso   1.000  C
  C35      1.0000 0.43480  0.17770  0.17420  Biso   1.000  C
  N10      1.0000 0.45588  0.20170  0.14140  Biso   1.000  N
  C36      1.0000 0.49500  0.19830  0.14580  Biso   1.000  C
  C37      1.0000 0.57060  0.15960  0.25960  Biso   1.000  C
  H17      1.0000 0.56150  0.18320  0.24420  Biso   1.000  H
  C38      1.0000 0.47371  0.27310  0.08280  Biso   1.000  C
  H18      1.0000 0.45280  0.26520  0.10400  Biso   1.000  H
  C39      1.0000 0.51030  0.24970  0.08260  Biso   1.000  C
  N11      1.0000 0.51452  0.17140  0.17700  Biso   1.000  N
  C40      1.0000 0.36650  0.13370  0.22920  Biso   1.000  C
  H19      1.0000 0.39150  0.12080  0.23270  Biso   1.000  H
  C41      1.0000 0.29070  0.17050  0.22000  Biso   1.000  C
  N12      1.0000 0.44960  0.15190  0.20620  Biso   1.000  N
  C42      1.0000 0.32420  0.18420  0.19250  Biso   1.000  C
  H20      1.0000 0.32140  0.20570  0.17030  Biso   1.000  H
  C43      1.0000 0.24995  0.19170  0.21370  Biso   1.000  C
  C44      1.0000 0.29600  0.13750  0.24920  Biso   1.000  C
  H21      1.0000 0.27360  0.12630  0.26530  Biso   1.000  H
  C45      1.0000 0.62340  0.12290  0.30300  Biso   1.000  C
  H22      1.0000 0.64900  0.12220  0.31770  Biso   1.000  H
  C46      1.0000 0.36230  0.16530  0.19880  Biso   1.000  C
  C47      1.0000 0.53400  0.29540  0.01730  Biso   1.000  C
  C48      1.0000 0.60040  0.08870  0.30280  Biso   1.000  C
  O20      1.0000 0.64910  0.04720  0.33840  Biso   1.000  O
  C49      1.0000 0.61510  0.04920  0.32320  Biso   1.000  C
  O21      1.0000 0.59610  0.02010  0.32520  Biso   1.000  O
  O22      1.0000 0.37320  0.06620  0.29580  Biso   1.000  O
  C50      1.0000 0.56050  0.08950  0.28140  Biso   1.000  C
  H23      1.0000 0.54430  0.06630  0.28130  Biso   1.000  H
  O23      1.0000 0.30980  0.07430  0.32100  Biso   1.000  O
  C51      1.0000 0.49040  0.15190  0.20700  Biso   1.000  C
  C52      1.0000 0.33300  0.12020  0.25570  Biso   1.000  C
  C53      1.0000 0.33940  0.08560  0.29500  Biso   1.000  C
  O24      1.0000 0.59040  0.27890  0.96420  Biso   1.000  O
  C54      1.0000 0.56680  0.30690  0.98070  Biso   1.000  C
  Cd2      1.0000 0.65089  0.98006  0.35313  Biso   1.000  Cd
  Cd3      1.0000 0.26714  0.32037  0.72294  Biso   1.000  Cd
  Cd4      1.0000 0.64185  0.62942  0.06276  Biso   1.000  Cd
  O25      1.0000 0.67965  0.62775  0.70810  Biso   1.000  O
  O26      1.0000 0.54176  0.52584  0.27291  Biso   1.000  O
  O27      1.0000 0.82238  0.80578  0.54541  Biso   1.000  O
  O28      1.0000 0.66691  0.62873  0.14498  Biso   1.000  O
  O29      1.0000 0.56093  0.53825  0.67499  Biso   1.000  O
  O30      1.0000 0.56126  0.53781  0.34995  Biso   1.000  O
  O31      1.0000 0.54291  0.52605  0.59804  Biso   1.000  O
  O32      1.0000 0.71154  0.65660  0.64638  Biso   1.000  O
  O33      1.0000 0.61190  0.59256  0.13107  Biso   1.000  O
  O34      1.0000 0.78988  0.73878  0.29409  Biso   1.000  O
  O35      1.0000 0.83299  0.78900  0.31057  Biso   1.000  O
  O36      1.0000 0.84693  0.84116  0.48347  Biso   1.000  O
  O37      1.0000 0.57287  0.63629  0.03440  Biso   1.000  O
  O38      1.0000 0.59939  0.68392  0.08173  Biso   1.000  O
  C55      1.0000 0.56567  0.54226  0.30442  Biso   1.000  C
  C56      1.0000 0.68501  0.63172  0.66180  Biso   1.000  C
  N13      1.0000 0.68333  0.63430  0.33032  Biso   1.000  N
  H24      1.0000 0.70080  0.64860  0.31420  Biso   1.000  H
  O39      1.0000 0.37915  0.77217  0.26260  Biso   1.000  O
  N14      1.0000 0.71010  0.66570  0.39670  Biso   1.000  N
  C57      1.0000 0.63757  0.60712  0.15959  Biso   1.000  C
  N15      1.0000 0.64410  0.59530  0.48914  Biso   1.000  N
  H25      1.0000 0.63080  0.57720  0.47280  Biso   1.000  H
  C58      1.0000 0.82524  0.81221  0.49940  Biso   1.000  C
  C59      1.0000 0.65614  0.61110  0.30000  Biso   1.000  C
  N16      1.0000 0.66310  0.61240  0.41032  Biso   1.000  N
  C60      1.0000 0.80550  0.78475  0.46330  Biso   1.000  C
  C61      1.0000 0.56562  0.54239  0.62919  Biso   1.000  C
  C62      1.0000 0.60828  0.57060  0.55859  Biso   1.000  C
  H26      1.0000 0.59100  0.55770  0.53610  Biso   1.000  H
  C63      1.0000 0.80604  0.76300  0.32440  Biso   1.000  C
  O40      1.0000 0.33071  0.80232  0.30334  Biso   1.000  O
  C64      1.0000 0.62640  0.58620  0.31800  Biso   1.000  C
  H27      1.0000 0.62380  0.58180  0.35230  Biso   1.000  H
  N17      1.0000 0.69160  0.64700  0.47998  Biso   1.000  N
  C65      1.0000 0.57036  0.66960  0.05590  Biso   1.000  C
  C66      1.0000 0.59975  0.56717  0.28410  Biso   1.000  C
  C67      1.0000 0.79756  0.75994  0.37880  Biso   1.000  C
  C68      1.0000 0.64050  0.59340  0.54109  Biso   1.000  C
  C69      1.0000 0.60390  0.57352  0.23326  Biso   1.000  C
  H28      1.0000 0.58600  0.56130  0.21100  Biso   1.000  H
  C70      1.0000 0.60136  0.56674  0.61146  Biso   1.000  C
  C71      1.0000 0.66620  0.61370  0.57460  Biso   1.000  C
  C72      1.0000 0.36540  0.80390  0.28300  Biso   1.000  C
  C73      1.0000 0.63509  0.59844  0.21533  Biso   1.000  C
  C74      1.0000 0.65933  0.60954  0.62649  Biso   1.000  C
  C75      1.0000 0.77920  0.75500  0.48000  Biso   1.000  C
  H29      1.0000 0.77340  0.75320  0.51400  Biso   1.000  H
  C76      1.0000 0.68560  0.63700  0.38340  Biso   1.000  C
  C77      1.0000 0.81490  0.78751  0.41370  Biso   1.000  C
  H30      1.0000 0.83270  0.80750  0.40260  Biso   1.000  H
  C78      1.0000 0.66083  0.61686  0.24890  Biso   1.000  C
  H31      1.0000 0.68160  0.63340  0.23720  Biso   1.000  H
  C79      1.0000 0.66630  0.62240  0.45990  Biso   1.000  C
  C80      1.0000 0.76980  0.73100  0.39564  Biso   1.000  C
  H32      1.0000 0.75700  0.71390  0.37280  Biso   1.000  H
  C81      1.0000 0.76120  0.72750  0.44670  Biso   1.000  C
  C82      1.0000 0.39000  0.84190  0.28220  Biso   1.000  C
  C83      1.0000 0.53210  0.69370  0.05370  Biso   1.000  C
  C84      1.0000 0.50110  0.68170  0.02090  Biso   1.000  C
  H33      1.0000 0.50400  0.65850  0.00160  Biso   1.000  H
  O41      1.0000 0.77940  0.82643  0.23500  Biso   1.000  O
  O42      1.0000 0.75121  0.77515  0.19410  Biso   1.000  O
  C85      1.0000 0.71160  0.67050  0.44660  Biso   1.000  C
  N18      1.0000 0.73590  0.69890  0.46785  Biso   1.000  N
  H34      1.0000 0.73550  0.69920  0.50010  Biso   1.000  H
  C86      1.0000 0.62652  0.58529  0.64345  Biso   1.000  C
  H35      1.0000 0.62240  0.58220  0.67770  Biso   1.000  H
  O43      1.0000 0.43230  0.65560  0.96930  Biso   1.000  O
  N19      1.0000 0.47994  0.78120  0.11500  Biso   1.000  N
  H36      1.0000 0.45480  0.78820  0.11580  Biso   1.000  H
  N20      1.0000 0.60654  0.81570  0.17110  Biso   1.000  N
  H37      1.0000 0.61420  0.79780  0.14970  Biso   1.000  H
  N21      1.0000 0.49310  0.87330  0.24390  Biso   1.000  N
  H38      1.0000 0.50960  0.89010  0.25770  Biso   1.000  H
  C87      1.0000 0.46010  0.73700  0.04830  Biso   1.000  C
  H39      1.0000 0.43550  0.75080  0.04670  Biso   1.000  H
  C88      1.0000 0.45340  0.87460  0.26090  Biso   1.000  C
  C89      1.0000 0.56520  0.82230  0.17420  Biso   1.000  C
  N22      1.0000 0.54412  0.79830  0.14140  Biso   1.000  N
  C90      1.0000 0.50500  0.80170  0.14580  Biso   1.000  C
  C91      1.0000 0.42940  0.84040  0.25960  Biso   1.000  C
  H40      1.0000 0.43850  0.81680  0.24420  Biso   1.000  H
  C92      1.0000 0.52629  0.72690  0.08280  Biso   1.000  C
  H41      1.0000 0.54720  0.73480  0.10400  Biso   1.000  H
  C93      1.0000 0.48970  0.75030  0.08260  Biso   1.000  C
  N23      1.0000 0.48548  0.82860  0.17700  Biso   1.000  N
  C94      1.0000 0.63350  0.86630  0.22920  Biso   1.000  C
  H42      1.0000 0.60850  0.87920  0.23270  Biso   1.000  H
  C95      1.0000 0.70930  0.82950  0.22000  Biso   1.000  C
  N24      1.0000 0.55040  0.84810  0.20620  Biso   1.000  N
  C96      1.0000 0.67580  0.81580  0.19250  Biso   1.000  C
  H43      1.0000 0.67860  0.79430  0.17030  Biso   1.000  H
  C97      1.0000 0.75005  0.80830  0.21370  Biso   1.000  C
  C98      1.0000 0.70400  0.86250  0.24920  Biso   1.000  C
  H44      1.0000 0.72640  0.87370  0.26530  Biso   1.000  H
  C99      1.0000 0.37660  0.87710  0.30300  Biso   1.000  C
  H45      1.0000 0.35100  0.87780  0.31770  Biso   1.000  H
  C100     1.0000 0.63770  0.83470  0.19880  Biso   1.000  C
  C101     1.0000 0.46600  0.70460  0.01730  Biso   1.000  C
  C102     1.0000 0.39960  0.91130  0.30280  Biso   1.000  C
  O44      1.0000 0.35090  0.95280  0.33840  Biso   1.000  O
  C103     1.0000 0.38490  0.95080  0.32320  Biso   1.000  C
  O45      1.0000 0.40390  0.97990  0.32520  Biso   1.000  O
  O46      1.0000 0.62680  0.93380  0.29580  Biso   1.000  O
  C104     1.0000 0.43950  0.91050  0.28140  Biso   1.000  C
  H46      1.0000 0.45570  0.93370  0.28130  Biso   1.000  H
  O47      1.0000 0.69020  0.92570  0.32100  Biso   1.000  O
  C105     1.0000 0.50960  0.84810  0.20700  Biso   1.000  C
  C106     1.0000 0.66700  0.87980  0.25570  Biso   1.000  C
  C107     1.0000 0.66060  0.91440  0.29500  Biso   1.000  C
  O48      1.0000 0.40960  0.72110  0.96420  Biso   1.000  O
  C108     1.0000 0.43320  0.69310  0.98070  Biso   1.000  C
  Cd5      1.0000 0.34911  0.01994  0.35313  Biso   1.000  Cd
  Cd6      1.0000 0.73286  0.67963  0.72294  Biso   1.000  Cd
  Cd7      1.0000 0.37058  0.64186  0.93724  Biso   1.000  Cd
  O49      1.0000 0.37225  0.67965  0.29190  Biso   1.000  O
  O50      1.0000 0.47416  0.54176  0.72709  Biso   1.000  O
  O51      1.0000 0.19422  0.82238  0.45459  Biso   1.000  O
  O52      1.0000 0.37127  0.66691  0.85502  Biso   1.000  O
  O53      1.0000 0.46175  0.56093  0.32501  Biso   1.000  O
  O54      1.0000 0.46219  0.56126  0.65005  Biso   1.000  O
  O55      1.0000 0.47395  0.54291  0.40196  Biso   1.000  O
  O56      1.0000 0.34340  0.71154  0.35362  Biso   1.000  O
  O57      1.0000 0.40744  0.61190  0.86893  Biso   1.000  O
  O58      1.0000 0.26122  0.78988  0.70591  Biso   1.000  O
  O59      1.0000 0.21100  0.83299  0.68943  Biso   1.000  O
  O60      1.0000 0.15884  0.84693  0.51653  Biso   1.000  O
  O61      1.0000 0.36371  0.57287  0.96560  Biso   1.000  O
  O62      1.0000 0.31608  0.59939  0.91827  Biso   1.000  O
  C109     1.0000 0.45774  0.56567  0.69558  Biso   1.000  C
  C110     1.0000 0.36828  0.68501  0.33820  Biso   1.000  C
  N25      1.0000 0.36570  0.68333  0.66968  Biso   1.000  N
  H47      1.0000 0.35140  0.70080  0.68580  Biso   1.000  H
  O63      1.0000 0.22783  0.37915  0.73740  Biso   1.000  O
  N26      1.0000 0.33430  0.71010  0.60330  Biso   1.000  N
  C111     1.0000 0.39288  0.63757  0.84041  Biso   1.000  C
  N27      1.0000 0.40470  0.64410  0.51086  Biso   1.000  N
  H48      1.0000 0.42280  0.63080  0.52720  Biso   1.000  H
  C112     1.0000 0.18779  0.82524  0.50060  Biso   1.000  C
  C113     1.0000 0.38890  0.65614  0.70000  Biso   1.000  C
  N28      1.0000 0.38760  0.66310  0.58968  Biso   1.000  N
  C114     1.0000 0.21525  0.80550  0.53670  Biso   1.000  C
  C115     1.0000 0.45761  0.56562  0.37081  Biso   1.000  C
  C116     1.0000 0.42940  0.60828  0.44141  Biso   1.000  C
  H49      1.0000 0.44230  0.59100  0.46390  Biso   1.000  H
  C117     1.0000 0.23700  0.80604  0.67560  Biso   1.000  C
  O64      1.0000 0.19768  0.33071  0.69666  Biso   1.000  O
  C118     1.0000 0.41380  0.62640  0.68200  Biso   1.000  C
  H50      1.0000 0.41820  0.62380  0.64770  Biso   1.000  H
  N29      1.0000 0.35300  0.69160  0.52002  Biso   1.000  N
  C119     1.0000 0.33040  0.57036  0.94410  Biso   1.000  C
  C120     1.0000 0.43283  0.59975  0.71590  Biso   1.000  C
  C121     1.0000 0.24006  0.79756  0.62120  Biso   1.000  C
  C122     1.0000 0.40660  0.64050  0.45891  Biso   1.000  C
  C123     1.0000 0.42648  0.60390  0.76674  Biso   1.000  C
  H51      1.0000 0.43870  0.58600  0.78900  Biso   1.000  H
  C124     1.0000 0.43326  0.60136  0.38854  Biso   1.000  C
  C125     1.0000 0.38630  0.66620  0.42540  Biso   1.000  C
  C126     1.0000 0.19610  0.36540  0.71700  Biso   1.000  C
  C127     1.0000 0.40156  0.63509  0.78467  Biso   1.000  C
  C128     1.0000 0.39046  0.65933  0.37351  Biso   1.000  C
  C129     1.0000 0.24500  0.77920  0.52000  Biso   1.000  C
  H52      1.0000 0.24680  0.77340  0.48600  Biso   1.000  H
  C130     1.0000 0.36300  0.68560  0.61660  Biso   1.000  C
  C131     1.0000 0.21249  0.81490  0.58630  Biso   1.000  C
  H53      1.0000 0.19250  0.83270  0.59740  Biso   1.000  H
  C132     1.0000 0.38314  0.66083  0.75110  Biso   1.000  C
  H54      1.0000 0.36660  0.68160  0.76280  Biso   1.000  H
  C133     1.0000 0.37760  0.66630  0.54010  Biso   1.000  C
  C134     1.0000 0.26900  0.76980  0.60436  Biso   1.000  C
  H55      1.0000 0.28610  0.75700  0.62720  Biso   1.000  H
  C135     1.0000 0.27250  0.76120  0.55330  Biso   1.000  C
  C136     1.0000 0.15810  0.39000  0.71780  Biso   1.000  C
  C137     1.0000 0.30630  0.53210  0.94630  Biso   1.000  C
  C138     1.0000 0.31830  0.50110  0.97910  Biso   1.000  C
  H56      1.0000 0.34150  0.50400  0.99840  Biso   1.000  H
  O65      1.0000 0.17357  0.77940  0.76500  Biso   1.000  O
  O66      1.0000 0.22485  0.75121  0.80590  Biso   1.000  O
  C139     1.0000 0.32950  0.71160  0.55340  Biso   1.000  C
  N30      1.0000 0.30110  0.73590  0.53215  Biso   1.000  N
  H57      1.0000 0.30080  0.73550  0.49990  Biso   1.000  H
  C140     1.0000 0.41471  0.62652  0.35655  Biso   1.000  C
  H58      1.0000 0.41780  0.62240  0.32230  Biso   1.000  H
  O67      1.0000 0.34440  0.43230  0.03070  Biso   1.000  O
  N31      1.0000 0.21880  0.47994  0.88500  Biso   1.000  N
  H59      1.0000 0.21180  0.45480  0.88420  Biso   1.000  H
  N32      1.0000 0.18430  0.60654  0.82890  Biso   1.000  N
  H60      1.0000 0.20220  0.61420  0.85030  Biso   1.000  H
  N33      1.0000 0.12670  0.49310  0.75610  Biso   1.000  N
  H61      1.0000 0.10990  0.50960  0.74230  Biso   1.000  H
  C141     1.0000 0.26300  0.46010  0.95170  Biso   1.000  C
  H62      1.0000 0.24920  0.43550  0.95330  Biso   1.000  H
  C142     1.0000 0.12540  0.45340  0.73910  Biso   1.000  C
  C143     1.0000 0.17770  0.56520  0.82580  Biso   1.000  C
  N34      1.0000 0.20170  0.54412  0.85860  Biso   1.000  N
  C144     1.0000 0.19830  0.50500  0.85420  Biso   1.000  C
  C145     1.0000 0.15960  0.42940  0.74040  Biso   1.000  C
  H63      1.0000 0.18320  0.43850  0.75580  Biso   1.000  H
  C146     1.0000 0.27310  0.52629  0.91720  Biso   1.000  C
  H64      1.0000 0.26520  0.54720  0.89600  Biso   1.000  H
  C147     1.0000 0.24970  0.48970  0.91740  Biso   1.000  C
  N35      1.0000 0.17140  0.48548  0.82300  Biso   1.000  N
  C148     1.0000 0.13370  0.63350  0.77080  Biso   1.000  C
  H65      1.0000 0.12080  0.60850  0.76730  Biso   1.000  H
  C149     1.0000 0.17050  0.70930  0.78000  Biso   1.000  C
  N36      1.0000 0.15190  0.55040  0.79380  Biso   1.000  N
  C150     1.0000 0.18420  0.67580  0.80750  Biso   1.000  C
  H66      1.0000 0.20570  0.67860  0.82970  Biso   1.000  H
  C151     1.0000 0.19170  0.75005  0.78630  Biso   1.000  C
  C152     1.0000 0.13750  0.70400  0.75080  Biso   1.000  C
  H67      1.0000 0.12630  0.72640  0.73470  Biso   1.000  H
  C153     1.0000 0.12290  0.37660  0.69700  Biso   1.000  C
  H68      1.0000 0.12220  0.35100  0.68230  Biso   1.000  H
  C154     1.0000 0.16530  0.63770  0.80120  Biso   1.000  C
  C155     1.0000 0.29540  0.46600  0.98270  Biso   1.000  C
  C156     1.0000 0.08870  0.39960  0.69720  Biso   1.000  C
  O68      1.0000 0.04720  0.35090  0.66160  Biso   1.000  O
  C157     1.0000 0.04920  0.38490  0.67680  Biso   1.000  C
  O69      1.0000 0.02010  0.40390  0.67480  Biso   1.000  O
  O70      1.0000 0.06620  0.62680  0.70420  Biso   1.000  O
  C158     1.0000 0.08950  0.43950  0.71860  Biso   1.000  C
  H69      1.0000 0.06630  0.45570  0.71870  Biso   1.000  H
  O71      1.0000 0.07430  0.69020  0.67900  Biso   1.000  O
  C159     1.0000 0.15190  0.50960  0.79300  Biso   1.000  C
  C160     1.0000 0.12020  0.66700  0.74430  Biso   1.000  C
  C161     1.0000 0.08560  0.66060  0.70500  Biso   1.000  C
  O72      1.0000 0.27890  0.40960  0.03580  Biso   1.000  O
  C162     1.0000 0.30690  0.43320  0.01930  Biso   1.000  C
  Cd8      1.0000 0.98006  0.34911  0.64687  Biso   1.000  Cd
  Cd9      1.0000 0.32037  0.73286  0.27706  Biso   1.000  Cd
  Cd10     1.0000 0.62942  0.35814  0.93724  Biso   1.000  Cd
  O73      1.0000 0.62775  0.32035  0.29190  Biso   1.000  O
  O74      1.0000 0.52584  0.45824  0.72709  Biso   1.000  O
  O75      1.0000 0.80578  0.17762  0.45459  Biso   1.000  O
  O76      1.0000 0.62873  0.33309  0.85502  Biso   1.000  O
  O77      1.0000 0.53825  0.43907  0.32501  Biso   1.000  O
  O78      1.0000 0.53781  0.43874  0.65005  Biso   1.000  O
  O79      1.0000 0.52605  0.45709  0.40196  Biso   1.000  O
  O80      1.0000 0.65660  0.28846  0.35362  Biso   1.000  O
  O81      1.0000 0.59256  0.38810  0.86893  Biso   1.000  O
  O82      1.0000 0.73878  0.21012  0.70591  Biso   1.000  O
  O83      1.0000 0.78900  0.16701  0.68943  Biso   1.000  O
  O84      1.0000 0.84116  0.15307  0.51653  Biso   1.000  O
  O85      1.0000 0.63629  0.42713  0.96560  Biso   1.000  O
  O86      1.0000 0.68392  0.40061  0.91827  Biso   1.000  O
  C163     1.0000 0.54226  0.43433  0.69558  Biso   1.000  C
  C164     1.0000 0.63172  0.31499  0.33820  Biso   1.000  C
  N37      1.0000 0.63430  0.31667  0.66968  Biso   1.000  N
  H70      1.0000 0.64860  0.29920  0.68580  Biso   1.000  H
  O87      1.0000 0.77217  0.62085  0.73740  Biso   1.000  O
  N38      1.0000 0.66570  0.28990  0.60330  Biso   1.000  N
  C165     1.0000 0.60712  0.36243  0.84041  Biso   1.000  C
  N39      1.0000 0.59530  0.35590  0.51086  Biso   1.000  N
  H71      1.0000 0.57720  0.36920  0.52720  Biso   1.000  H
  C166     1.0000 0.81221  0.17476  0.50060  Biso   1.000  C
  C167     1.0000 0.61110  0.34386  0.70000  Biso   1.000  C
  N40      1.0000 0.61240  0.33690  0.58968  Biso   1.000  N
  C168     1.0000 0.78475  0.19450  0.53670  Biso   1.000  C
  C169     1.0000 0.54239  0.43438  0.37081  Biso   1.000  C
  C170     1.0000 0.57060  0.39172  0.44141  Biso   1.000  C
  H72      1.0000 0.55770  0.40900  0.46390  Biso   1.000  H
  C171     1.0000 0.76300  0.19396  0.67560  Biso   1.000  C
  O88      1.0000 0.80232  0.66929  0.69666  Biso   1.000  O
  C172     1.0000 0.58620  0.37360  0.68200  Biso   1.000  C
  H73      1.0000 0.58180  0.37620  0.64770  Biso   1.000  H
  N41      1.0000 0.64700  0.30840  0.52002  Biso   1.000  N
  C173     1.0000 0.66960  0.42964  0.94410  Biso   1.000  C
  C174     1.0000 0.56717  0.40025  0.71590  Biso   1.000  C
  C175     1.0000 0.75994  0.20244  0.62120  Biso   1.000  C
  C176     1.0000 0.59340  0.35950  0.45891  Biso   1.000  C
  C177     1.0000 0.57352  0.39610  0.76674  Biso   1.000  C
  H74      1.0000 0.56130  0.41400  0.78900  Biso   1.000  H
  C178     1.0000 0.56674  0.39864  0.38854  Biso   1.000  C
  C179     1.0000 0.61370  0.33380  0.42540  Biso   1.000  C
  C180     1.0000 0.80390  0.63460  0.71700  Biso   1.000  C
  C181     1.0000 0.59844  0.36491  0.78467  Biso   1.000  C
  C182     1.0000 0.60954  0.34067  0.37351  Biso   1.000  C
  C183     1.0000 0.75500  0.22080  0.52000  Biso   1.000  C
  H75      1.0000 0.75320  0.22660  0.48600  Biso   1.000  H
  C184     1.0000 0.63700  0.31440  0.61660  Biso   1.000  C
  C185     1.0000 0.78751  0.18510  0.58630  Biso   1.000  C
  H76      1.0000 0.80750  0.16730  0.59740  Biso   1.000  H
  C186     1.0000 0.61686  0.33917  0.75110  Biso   1.000  C
  H77      1.0000 0.63340  0.31840  0.76280  Biso   1.000  H
  C187     1.0000 0.62240  0.33370  0.54010  Biso   1.000  C
  C188     1.0000 0.73100  0.23020  0.60436  Biso   1.000  C
  H78      1.0000 0.71390  0.24300  0.62720  Biso   1.000  H
  C189     1.0000 0.72750  0.23880  0.55330  Biso   1.000  C
  C190     1.0000 0.84190  0.61000  0.71780  Biso   1.000  C
  C191     1.0000 0.69370  0.46790  0.94630  Biso   1.000  C
  C192     1.0000 0.68170  0.49890  0.97910  Biso   1.000  C
  H79      1.0000 0.65850  0.49600  0.99840  Biso   1.000  H
  O89      1.0000 0.82643  0.22060  0.76500  Biso   1.000  O
  O90      1.0000 0.77515  0.24879  0.80590  Biso   1.000  O
  C193     1.0000 0.67050  0.28840  0.55340  Biso   1.000  C
  N42      1.0000 0.69890  0.26410  0.53215  Biso   1.000  N
  H80      1.0000 0.69920  0.26450  0.49990  Biso   1.000  H
  C194     1.0000 0.58529  0.37348  0.35655  Biso   1.000  C
  H81      1.0000 0.58220  0.37760  0.32230  Biso   1.000  H
  O91      1.0000 0.65560  0.56770  0.03070  Biso   1.000  O
  N43      1.0000 0.78120  0.52006  0.88500  Biso   1.000  N
  H82      1.0000 0.78820  0.54520  0.88420  Biso   1.000  H
  N44      1.0000 0.81570  0.39346  0.82890  Biso   1.000  N
  H83      1.0000 0.79780  0.38580  0.85030  Biso   1.000  H
  N45      1.0000 0.87330  0.50690  0.75610  Biso   1.000  N
  H84      1.0000 0.89010  0.49040  0.74230  Biso   1.000  H
  C195     1.0000 0.73700  0.53990  0.95170  Biso   1.000  C
  H85      1.0000 0.75080  0.56450  0.95330  Biso   1.000  H
  C196     1.0000 0.87460  0.54660  0.73910  Biso   1.000  C
  C197     1.0000 0.82230  0.43480  0.82580  Biso   1.000  C
  N46      1.0000 0.79830  0.45588  0.85860  Biso   1.000  N
  C198     1.0000 0.80170  0.49500  0.85420  Biso   1.000  C
  C199     1.0000 0.84040  0.57060  0.74040  Biso   1.000  C
  H86      1.0000 0.81680  0.56150  0.75580  Biso   1.000  H
  C200     1.0000 0.72690  0.47371  0.91720  Biso   1.000  C
  H87      1.0000 0.73480  0.45280  0.89600  Biso   1.000  H
  C201     1.0000 0.75030  0.51030  0.91740  Biso   1.000  C
  N47      1.0000 0.82860  0.51452  0.82300  Biso   1.000  N
  C202     1.0000 0.86630  0.36650  0.77080  Biso   1.000  C
  H88      1.0000 0.87920  0.39150  0.76730  Biso   1.000  H
  C203     1.0000 0.82950  0.29070  0.78000  Biso   1.000  C
  N48      1.0000 0.84810  0.44960  0.79380  Biso   1.000  N
  C204     1.0000 0.81580  0.32420  0.80750  Biso   1.000  C
  H89      1.0000 0.79430  0.32140  0.82970  Biso   1.000  H
  C205     1.0000 0.80830  0.24995  0.78630  Biso   1.000  C
  C206     1.0000 0.86250  0.29600  0.75080  Biso   1.000  C
  H90      1.0000 0.87370  0.27360  0.73470  Biso   1.000  H
  C207     1.0000 0.87710  0.62340  0.69700  Biso   1.000  C
  H91      1.0000 0.87780  0.64900  0.68230  Biso   1.000  H
  C208     1.0000 0.83470  0.36230  0.80120  Biso   1.000  C
  C209     1.0000 0.70460  0.53400  0.98270  Biso   1.000  C
  C210     1.0000 0.91130  0.60040  0.69720  Biso   1.000  C
  O92      1.0000 0.95280  0.64910  0.66160  Biso   1.000  O
  C211     1.0000 0.95080  0.61510  0.67680  Biso   1.000  C
  O93      1.0000 0.97990  0.59610  0.67480  Biso   1.000  O
  O94      1.0000 0.93380  0.37320  0.70420  Biso   1.000  O
  C212     1.0000 0.91050  0.56050  0.71860  Biso   1.000  C
  H92      1.0000 0.93370  0.54430  0.71870  Biso   1.000  H
  O95      1.0000 0.92570  0.30980  0.67900  Biso   1.000  O
  C213     1.0000 0.84810  0.49040  0.79300  Biso   1.000  C
  C214     1.0000 0.87980  0.33300  0.74430  Biso   1.000  C
  C215     1.0000 0.91440  0.33940  0.70500  Biso   1.000  C
  O96      1.0000 0.72110  0.59040  0.03580  Biso   1.000  O
  C216     1.0000 0.69310  0.56680  0.01930  Biso   1.000  C
  Cd11     1.0000 0.01994  0.65089  0.64687  Biso   1.000  Cd
  Cd12     1.0000 0.67963  0.26714  0.27706  Biso   1.000  Cd
  Cd13     1.0000 0.14186  0.87058  0.43724  Biso   1.000  Cd
  O97      1.0000 0.17965  0.87225  0.79190  Biso   1.000  O
  O98      1.0000 0.04176  0.97416  0.22709  Biso   1.000  O
  O99      1.0000 0.32238  0.69422  0.95459  Biso   1.000  O
  O100     1.0000 0.16691  0.87127  0.35502  Biso   1.000  O
  O101     1.0000 0.06093  0.96175  0.82501  Biso   1.000  O
  O102     1.0000 0.06126  0.96219  0.15005  Biso   1.000  O
  O103     1.0000 0.04291  0.97395  0.90196  Biso   1.000  O
  O104     1.0000 0.21154  0.84340  0.85362  Biso   1.000  O
  O105     1.0000 0.11190  0.90744  0.36893  Biso   1.000  O
  O106     1.0000 0.28988  0.76122  0.20591  Biso   1.000  O
  O107     1.0000 0.33299  0.71100  0.18943  Biso   1.000  O
  O108     1.0000 0.34693  0.65884  0.01653  Biso   1.000  O
  O109     1.0000 0.07287  0.86371  0.46560  Biso   1.000  O
  O110     1.0000 0.09939  0.81608  0.41827  Biso   1.000  O
  C217     1.0000 0.06567  0.95774  0.19558  Biso   1.000  C
  C218     1.0000 0.18501  0.86828  0.83820  Biso   1.000  C
  N49      1.0000 0.18333  0.86570  0.16968  Biso   1.000  N
  H93      1.0000 0.20080  0.85140  0.18580  Biso   1.000  H
  O111     1.0000 0.87915  0.72783  0.23740  Biso   1.000  O
  N50      1.0000 0.21010  0.83430  0.10330  Biso   1.000  N
  C219     1.0000 0.13757  0.89288  0.34041  Biso   1.000  C
  N51      1.0000 0.14410  0.90470  0.01086  Biso   1.000  N
  H94      1.0000 0.13080  0.92280  0.02720  Biso   1.000  H
  C220     1.0000 0.32524  0.68779  0.00060  Biso   1.000  C
  C221     1.0000 0.15614  0.88890  0.20000  Biso   1.000  C
  N52      1.0000 0.16310  0.88760  0.08968  Biso   1.000  N
  C222     1.0000 0.30550  0.71525  0.03670  Biso   1.000  C
  C223     1.0000 0.06562  0.95761  0.87081  Biso   1.000  C
  C224     1.0000 0.10828  0.92940  0.94141  Biso   1.000  C
  H95      1.0000 0.09100  0.94230  0.96390  Biso   1.000  H
  C225     1.0000 0.30604  0.73700  0.17560  Biso   1.000  C
  O112     1.0000 0.83071  0.69768  0.19666  Biso   1.000  O
  C226     1.0000 0.12640  0.91380  0.18200  Biso   1.000  C
  H96      1.0000 0.12380  0.91820  0.14770  Biso   1.000  H
  N53      1.0000 0.19160  0.85300  0.02002  Biso   1.000  N
  C227     1.0000 0.07036  0.83040  0.44410  Biso   1.000  C
  C228     1.0000 0.09975  0.93283  0.21590  Biso   1.000  C
  C229     1.0000 0.29756  0.74006  0.12120  Biso   1.000  C
  C230     1.0000 0.14050  0.90660  0.95891  Biso   1.000  C
  C231     1.0000 0.10390  0.92648  0.26674  Biso   1.000  C
  H97      1.0000 0.08600  0.93870  0.28900  Biso   1.000  H
  C232     1.0000 0.10136  0.93326  0.88854  Biso   1.000  C
  C233     1.0000 0.16620  0.88630  0.92540  Biso   1.000  C
  C234     1.0000 0.86540  0.69610  0.21700  Biso   1.000  C
  C235     1.0000 0.13509  0.90156  0.28467  Biso   1.000  C
  C236     1.0000 0.15933  0.89046  0.87351  Biso   1.000  C
  C237     1.0000 0.27920  0.74500  0.02000  Biso   1.000  C
  H98      1.0000 0.27340  0.74680  0.98600  Biso   1.000  H
  C238     1.0000 0.18560  0.86300  0.11660  Biso   1.000  C
  C239     1.0000 0.31490  0.71249  0.08630  Biso   1.000  C
  H99      1.0000 0.33270  0.69250  0.09740  Biso   1.000  H
  C240     1.0000 0.16083  0.88314  0.25110  Biso   1.000  C
  H100     1.0000 0.18160  0.86660  0.26280  Biso   1.000  H
  C241     1.0000 0.16630  0.87760  0.04010  Biso   1.000  C
  C242     1.0000 0.26980  0.76900  0.10436  Biso   1.000  C
  H101     1.0000 0.25700  0.78610  0.12720  Biso   1.000  H
  C243     1.0000 0.26120  0.77250  0.05330  Biso   1.000  C
  C244     1.0000 0.89000  0.65810  0.21780  Biso   1.000  C
  C245     1.0000 0.03210  0.80630  0.44630  Biso   1.000  C
  C246     1.0000 0.00110  0.81830  0.47910  Biso   1.000  C
  H102     1.0000 0.00400  0.84150  0.49840  Biso   1.000  H
  O113     1.0000 0.27940  0.67357  0.26500  Biso   1.000  O
  O114     1.0000 0.25121  0.72485  0.30590  Biso   1.000  O
  C247     1.0000 0.21160  0.82950  0.05340  Biso   1.000  C
  N54      1.0000 0.23590  0.80110  0.03215  Biso   1.000  N
  H103     1.0000 0.23550  0.80080  0.99990  Biso   1.000  H
  C248     1.0000 0.12652  0.91471  0.85655  Biso   1.000  C
  H104     1.0000 0.12240  0.91780  0.82230  Biso   1.000  H
  O115     1.0000 0.93230  0.84440  0.53070  Biso   1.000  O
  N55      1.0000 0.97994  0.71880  0.38500  Biso   1.000  N
  H105     1.0000 0.95480  0.71180  0.38420  Biso   1.000  H
  N56      1.0000 0.10654  0.68430  0.32890  Biso   1.000  N
  H106     1.0000 0.11420  0.70220  0.35030  Biso   1.000  H
  N57      1.0000 0.99310  0.62670  0.25610  Biso   1.000  N
  H107     1.0000 0.00960  0.60990  0.24230  Biso   1.000  H
  C249     1.0000 0.96010  0.76300  0.45170  Biso   1.000  C
  H108     1.0000 0.93550  0.74920  0.45330  Biso   1.000  H
  C250     1.0000 0.95340  0.62540  0.23910  Biso   1.000  C
  C251     1.0000 0.06520  0.67770  0.32580  Biso   1.000  C
  N58      1.0000 0.04412  0.70170  0.35860  Biso   1.000  N
  C252     1.0000 0.00500  0.69830  0.35420  Biso   1.000  C
  C253     1.0000 0.92940  0.65960  0.24040  Biso   1.000  C
  H109     1.0000 0.93850  0.68320  0.25580  Biso   1.000  H
  C254     1.0000 0.02629  0.77310  0.41720  Biso   1.000  C
  H110     1.0000 0.04720  0.76520  0.39600  Biso   1.000  H
  C255     1.0000 0.98970  0.74970  0.41740  Biso   1.000  C
  N59      1.0000 0.98548  0.67140  0.32300  Biso   1.000  N
  C256     1.0000 0.13350  0.63370  0.27080  Biso   1.000  C
  H111     1.0000 0.10850  0.62080  0.26730  Biso   1.000  H
  C257     1.0000 0.20930  0.67050  0.28000  Biso   1.000  C
  N60      1.0000 0.05040  0.65190  0.29380  Biso   1.000  N
  C258     1.0000 0.17580  0.68420  0.30750  Biso   1.000  C
  H112     1.0000 0.17860  0.70570  0.32970  Biso   1.000  H
  C259     1.0000 0.25005  0.69170  0.28630  Biso   1.000  C
  C260     1.0000 0.20400  0.63750  0.25080  Biso   1.000  C
  H113     1.0000 0.22640  0.62630  0.23470  Biso   1.000  H
  C261     1.0000 0.87660  0.62290  0.19700  Biso   1.000  C
  H114     1.0000 0.85100  0.62220  0.18230  Biso   1.000  H
  C262     1.0000 0.13770  0.66530  0.30120  Biso   1.000  C
  C263     1.0000 0.96600  0.79540  0.48270  Biso   1.000  C
  C264     1.0000 0.89960  0.58870  0.19720  Biso   1.000  C
  O116     1.0000 0.85090  0.54720  0.16160  Biso   1.000  O
  C265     1.0000 0.88490  0.54920  0.17680  Biso   1.000  C
  O117     1.0000 0.90390  0.52010  0.17480  Biso   1.000  O
  O118     1.0000 0.12680  0.56620  0.20420  Biso   1.000  O
  C266     1.0000 0.93950  0.58950  0.21860  Biso   1.000  C
  H115     1.0000 0.95570  0.56630  0.21870  Biso   1.000  H
  O119     1.0000 0.19020  0.57430  0.17900  Biso   1.000  O
  C267     1.0000 0.00960  0.65190  0.29300  Biso   1.000  C
  C268     1.0000 0.16700  0.62020  0.24430  Biso   1.000  C
  C269     1.0000 0.16060  0.58560  0.20500  Biso   1.000  C
  O120     1.0000 0.90960  0.77890  0.53580  Biso   1.000  O
  C270     1.0000 0.93320  0.80690  0.51930  Biso   1.000  C
  Cd14     1.0000 0.84911  0.48006  0.14687  Biso   1.000  Cd
  Cd15     1.0000 0.23286  0.82037  0.77706  Biso   1.000  Cd
  Cd16     1.0000 0.85814  0.12942  0.43724  Biso   1.000  Cd
  O121     1.0000 0.82035  0.12775  0.79190  Biso   1.000  O
  O122     1.0000 0.95824  0.02584  0.22709  Biso   1.000  O
  O123     1.0000 0.67762  0.30578  0.95459  Biso   1.000  O
  O124     1.0000 0.83309  0.12873  0.35502  Biso   1.000  O
  O125     1.0000 0.93907  0.03825  0.82501  Biso   1.000  O
  O126     1.0000 0.93874  0.03781  0.15005  Biso   1.000  O
  O127     1.0000 0.95709  0.02605  0.90196  Biso   1.000  O
  O128     1.0000 0.78846  0.15660  0.85362  Biso   1.000  O
  O129     1.0000 0.88810  0.09256  0.36893  Biso   1.000  O
  O130     1.0000 0.71012  0.23878  0.20591  Biso   1.000  O
  O131     1.0000 0.66701  0.28900  0.18943  Biso   1.000  O
  O132     1.0000 0.65307  0.34116  0.01653  Biso   1.000  O
  O133     1.0000 0.92713  0.13629  0.46560  Biso   1.000  O
  O134     1.0000 0.90061  0.18392  0.41827  Biso   1.000  O
  C271     1.0000 0.93433  0.04226  0.19558  Biso   1.000  C
  C272     1.0000 0.81499  0.13172  0.83820  Biso   1.000  C
  N61      1.0000 0.81667  0.13430  0.16968  Biso   1.000  N
  H116     1.0000 0.79920  0.14860  0.18580  Biso   1.000  H
  O135     1.0000 0.12085  0.27217  0.23740  Biso   1.000  O
  N62      1.0000 0.78990  0.16570  0.10330  Biso   1.000  N
  C273     1.0000 0.86243  0.10712  0.34041  Biso   1.000  C
  N63      1.0000 0.85590  0.09530  0.01086  Biso   1.000  N
  H117     1.0000 0.86920  0.07720  0.02720  Biso   1.000  H
  C274     1.0000 0.67476  0.31221  0.00060  Biso   1.000  C
  C275     1.0000 0.84386  0.11110  0.20000  Biso   1.000  C
  N64      1.0000 0.83690  0.11240  0.08968  Biso   1.000  N
  C276     1.0000 0.69450  0.28475  0.03670  Biso   1.000  C
  C277     1.0000 0.93438  0.04239  0.87081  Biso   1.000  C
  C278     1.0000 0.89172  0.07060  0.94141  Biso   1.000  C
  H118     1.0000 0.90900  0.05770  0.96390  Biso   1.000  H
  C279     1.0000 0.69396  0.26300  0.17560  Biso   1.000  C
  O136     1.0000 0.16929  0.30232  0.19666  Biso   1.000  O
  C280     1.0000 0.87360  0.08620  0.18200  Biso   1.000  C
  H119     1.0000 0.87620  0.08180  0.14770  Biso   1.000  H
  N65      1.0000 0.80840  0.14700  0.02002  Biso   1.000  N
  C281     1.0000 0.92964  0.16960  0.44410  Biso   1.000  C
  C282     1.0000 0.90025  0.06717  0.21590  Biso   1.000  C
  C283     1.0000 0.70244  0.25994  0.12120  Biso   1.000  C
  C284     1.0000 0.85950  0.09340  0.95891  Biso   1.000  C
  C285     1.0000 0.89610  0.07352  0.26674  Biso   1.000  C
  H120     1.0000 0.91400  0.06130  0.28900  Biso   1.000  H
  C286     1.0000 0.89864  0.06674  0.88854  Biso   1.000  C
  C287     1.0000 0.83380  0.11370  0.92540  Biso   1.000  C
  C288     1.0000 0.13460  0.30390  0.21700  Biso   1.000  C
  C289     1.0000 0.86491  0.09844  0.28467  Biso   1.000  C
  C290     1.0000 0.84067  0.10954  0.87351  Biso   1.000  C
  C291     1.0000 0.72080  0.25500  0.02000  Biso   1.000  C
  H121     1.0000 0.72660  0.25320  0.98600  Biso   1.000  H
  C292     1.0000 0.81440  0.13700  0.11660  Biso   1.000  C
  C293     1.0000 0.68510  0.28751  0.08630  Biso   1.000  C
  H122     1.0000 0.66730  0.30750  0.09740  Biso   1.000  H
  C294     1.0000 0.83917  0.11686  0.25110  Biso   1.000  C
  H123     1.0000 0.81840  0.13340  0.26280  Biso   1.000  H
  C295     1.0000 0.83370  0.12240  0.04010  Biso   1.000  C
  C296     1.0000 0.73020  0.23100  0.10436  Biso   1.000  C
  H124     1.0000 0.74300  0.21390  0.12720  Biso   1.000  H
  C297     1.0000 0.73880  0.22750  0.05330  Biso   1.000  C
  C298     1.0000 0.11000  0.34190  0.21780  Biso   1.000  C
  C299     1.0000 0.96790  0.19370  0.44630  Biso   1.000  C
  C300     1.0000 0.99890  0.18170  0.47910  Biso   1.000  C
  H125     1.0000 0.99600  0.15850  0.49840  Biso   1.000  H
  O137     1.0000 0.72060  0.32643  0.26500  Biso   1.000  O
  O138     1.0000 0.74879  0.27515  0.30590  Biso   1.000  O
  C301     1.0000 0.78840  0.17050  0.05340  Biso   1.000  C
  N66      1.0000 0.76410  0.19890  0.03215  Biso   1.000  N
  H126     1.0000 0.76450  0.19920  0.99990  Biso   1.000  H
  C302     1.0000 0.87348  0.08529  0.85655  Biso   1.000  C
  H127     1.0000 0.87760  0.08220  0.82230  Biso   1.000  H
  O139     1.0000 0.06770  0.15560  0.53070  Biso   1.000  O
  N67      1.0000 0.02006  0.28120  0.38500  Biso   1.000  N
  H128     1.0000 0.04520  0.28820  0.38420  Biso   1.000  H
  N68      1.0000 0.89346  0.31570  0.32890  Biso   1.000  N
  H129     1.0000 0.88580  0.29780  0.35030  Biso   1.000  H
  N69      1.0000 0.00690  0.37330  0.25610  Biso   1.000  N
  H130     1.0000 0.99040  0.39010  0.24230  Biso   1.000  H
  C303     1.0000 0.03990  0.23700  0.45170  Biso   1.000  C
  H131     1.0000 0.06450  0.25080  0.45330  Biso   1.000  H
  C304     1.0000 0.04660  0.37460  0.23910  Biso   1.000  C
  C305     1.0000 0.93480  0.32230  0.32580  Biso   1.000  C
  N70      1.0000 0.95588  0.29830  0.35860  Biso   1.000  N
  C306     1.0000 0.99500  0.30170  0.35420  Biso   1.000  C
  C307     1.0000 0.07060  0.34040  0.24040  Biso   1.000  C
  H132     1.0000 0.06150  0.31680  0.25580  Biso   1.000  H
  C308     1.0000 0.97371  0.22690  0.41720  Biso   1.000  C
  H133     1.0000 0.95280  0.23480  0.39600  Biso   1.000  H
  C309     1.0000 0.01030  0.25030  0.41740  Biso   1.000  C
  N71      1.0000 0.01452  0.32860  0.32300  Biso   1.000  N
  C310     1.0000 0.86650  0.36630  0.27080  Biso   1.000  C
  H134     1.0000 0.89150  0.37920  0.26730  Biso   1.000  H
  C311     1.0000 0.79070  0.32950  0.28000  Biso   1.000  C
  N72      1.0000 0.94960  0.34810  0.29380  Biso   1.000  N
  C312     1.0000 0.82420  0.31580  0.30750  Biso   1.000  C
  H135     1.0000 0.82140  0.29430  0.32970  Biso   1.000  H
  C313     1.0000 0.74995  0.30830  0.28630  Biso   1.000  C
  C314     1.0000 0.79600  0.36250  0.25080  Biso   1.000  C
  H136     1.0000 0.77360  0.37370  0.23470  Biso   1.000  H
  C315     1.0000 0.12340  0.37710  0.19700  Biso   1.000  C
  H137     1.0000 0.14900  0.37780  0.18230  Biso   1.000  H
  C316     1.0000 0.86230  0.33470  0.30120  Biso   1.000  C
  C317     1.0000 0.03400  0.20460  0.48270  Biso   1.000  C
  C318     1.0000 0.10040  0.41130  0.19720  Biso   1.000  C
  O140     1.0000 0.14910  0.45280  0.16160  Biso   1.000  O
  C319     1.0000 0.11510  0.45080  0.17680  Biso   1.000  C
  O141     1.0000 0.09610  0.47990  0.17480  Biso   1.000  O
  O142     1.0000 0.87320  0.43380  0.20420  Biso   1.000  O
  C320     1.0000 0.06050  0.41050  0.21860  Biso   1.000  C
  H138     1.0000 0.04430  0.43370  0.21870  Biso   1.000  H
  O143     1.0000 0.80980  0.42570  0.17900  Biso   1.000  O
  C321     1.0000 0.99040  0.34810  0.29300  Biso   1.000  C
  C322     1.0000 0.83300  0.37980  0.24430  Biso   1.000  C
  C323     1.0000 0.83940  0.41440  0.20500  Biso   1.000  C
  O144     1.0000 0.09040  0.22110  0.53580  Biso   1.000  O
  C324     1.0000 0.06680  0.19310  0.51930  Biso   1.000  C
  Cd17     1.0000 0.15089  0.51994  0.14687  Biso   1.000  Cd
  Cd18     1.0000 0.76714  0.17963  0.77706  Biso   1.000  Cd
  Cd19     1.0000 0.12942  0.14186  0.56276  Biso   1.000  Cd
  O145     1.0000 0.12775  0.17965  0.20810  Biso   1.000  O
  O146     1.0000 0.02584  0.04176  0.77291  Biso   1.000  O
  O147     1.0000 0.30578  0.32238  0.04541  Biso   1.000  O
  O148     1.0000 0.12873  0.16691  0.64498  Biso   1.000  O
  O149     1.0000 0.03825  0.06093  0.17499  Biso   1.000  O
  O150     1.0000 0.03781  0.06126  0.84995  Biso   1.000  O
  O151     1.0000 0.02605  0.04291  0.09804  Biso   1.000  O
  O152     1.0000 0.15660  0.21154  0.14638  Biso   1.000  O
  O153     1.0000 0.09256  0.11190  0.63107  Biso   1.000  O
  O154     1.0000 0.23878  0.28988  0.79409  Biso   1.000  O
  O155     1.0000 0.28900  0.33299  0.81057  Biso   1.000  O
  O156     1.0000 0.34116  0.34693  0.98347  Biso   1.000  O
  O157     1.0000 0.13629  0.07287  0.53440  Biso   1.000  O
  O158     1.0000 0.18392  0.09939  0.58173  Biso   1.000  O
  C325     1.0000 0.04226  0.06567  0.80442  Biso   1.000  C
  C326     1.0000 0.13172  0.18501  0.16180  Biso   1.000  C
  N73      1.0000 0.13430  0.18333  0.83032  Biso   1.000  N
  H139     1.0000 0.14860  0.20080  0.81420  Biso   1.000  H
  O159     1.0000 0.27217  0.87915  0.76260  Biso   1.000  O
  N74      1.0000 0.16570  0.21010  0.89670  Biso   1.000  N
  C327     1.0000 0.10712  0.13757  0.65959  Biso   1.000  C
  N75      1.0000 0.09530  0.14410  0.98914  Biso   1.000  N
  H140     1.0000 0.07720  0.13080  0.97280  Biso   1.000  H
  C328     1.0000 0.31221  0.32524  0.99940  Biso   1.000  C
  C329     1.0000 0.11110  0.15614  0.80000  Biso   1.000  C
  N76      1.0000 0.11240  0.16310  0.91032  Biso   1.000  N
  C330     1.0000 0.28475  0.30550  0.96330  Biso   1.000  C
  C331     1.0000 0.04239  0.06562  0.12919  Biso   1.000  C
  C332     1.0000 0.07060  0.10828  0.05859  Biso   1.000  C
  H141     1.0000 0.05770  0.09100  0.03610  Biso   1.000  H
  C333     1.0000 0.26300  0.30604  0.82440  Biso   1.000  C
  O160     1.0000 0.30232  0.83071  0.80334  Biso   1.000  O
  C334     1.0000 0.08620  0.12640  0.81800  Biso   1.000  C
  H142     1.0000 0.08180  0.12380  0.85230  Biso   1.000  H
  N77      1.0000 0.14700  0.19160  0.97998  Biso   1.000  N
  C335     1.0000 0.16960  0.07036  0.55590  Biso   1.000  C
  C336     1.0000 0.06717  0.09975  0.78410  Biso   1.000  C
  C337     1.0000 0.25994  0.29756  0.87880  Biso   1.000  C
  C338     1.0000 0.09340  0.14050  0.04109  Biso   1.000  C
  C339     1.0000 0.07352  0.10390  0.73326  Biso   1.000  C
  H143     1.0000 0.06130  0.08600  0.71100  Biso   1.000  H
  C340     1.0000 0.06674  0.10136  0.11146  Biso   1.000  C
  C341     1.0000 0.11370  0.16620  0.07460  Biso   1.000  C
  C342     1.0000 0.30390  0.86540  0.78300  Biso   1.000  C
  C343     1.0000 0.09844  0.13509  0.71533  Biso   1.000  C
  C344     1.0000 0.10954  0.15933  0.12649  Biso   1.000  C
  C345     1.0000 0.25500  0.27920  0.98000  Biso   1.000  C
  H144     1.0000 0.25320  0.27340  0.01400  Biso   1.000  H
  C346     1.0000 0.13700  0.18560  0.88340  Biso   1.000  C
  C347     1.0000 0.28751  0.31490  0.91370  Biso   1.000  C
  H145     1.0000 0.30750  0.33270  0.90260  Biso   1.000  H
  C348     1.0000 0.11686  0.16083  0.74890  Biso   1.000  C
  H146     1.0000 0.13340  0.18160  0.73720  Biso   1.000  H
  C349     1.0000 0.12240  0.16630  0.95990  Biso   1.000  C
  C350     1.0000 0.23100  0.26980  0.89564  Biso   1.000  C
  H147     1.0000 0.21390  0.25700  0.87280  Biso   1.000  H
  C351     1.0000 0.22750  0.26120  0.94670  Biso   1.000  C
  C352     1.0000 0.34190  0.89000  0.78220  Biso   1.000  C
  C353     1.0000 0.19370  0.03210  0.55370  Biso   1.000  C
  C354     1.0000 0.18170  0.00110  0.52090  Biso   1.000  C
  H148     1.0000 0.15850  0.00400  0.50160  Biso   1.000  H
  O161     1.0000 0.32643  0.27940  0.73500  Biso   1.000  O
  O162     1.0000 0.27515  0.25121  0.69410  Biso   1.000  O
  C355     1.0000 0.17050  0.21160  0.94660  Biso   1.000  C
  N78      1.0000 0.19890  0.23590  0.96785  Biso   1.000  N
  H149     1.0000 0.19920  0.23550  0.00010  Biso   1.000  H
  C356     1.0000 0.08529  0.12652  0.14345  Biso   1.000  C
  H150     1.0000 0.08220  0.12240  0.17770  Biso   1.000  H
  O163     1.0000 0.15560  0.93230  0.46930  Biso   1.000  O
  N79      1.0000 0.28120  0.97994  0.61500  Biso   1.000  N
  H151     1.0000 0.28820  0.95480  0.61580  Biso   1.000  H
  N80      1.0000 0.31570  0.10654  0.67110  Biso   1.000  N
  H152     1.0000 0.29780  0.11420  0.64970  Biso   1.000  H
  N81      1.0000 0.37330  0.99310  0.74390  Biso   1.000  N
  H153     1.0000 0.39010  0.00960  0.75770  Biso   1.000  H
  C357     1.0000 0.23700  0.96010  0.54830  Biso   1.000  C
  H154     1.0000 0.25080  0.93550  0.54670  Biso   1.000  H
  C358     1.0000 0.37460  0.95340  0.76090  Biso   1.000  C
  C359     1.0000 0.32230  0.06520  0.67420  Biso   1.000  C
  N82      1.0000 0.29830  0.04412  0.64140  Biso   1.000  N
  C360     1.0000 0.30170  0.00500  0.64580  Biso   1.000  C
  C361     1.0000 0.34040  0.92940  0.75960  Biso   1.000  C
  H155     1.0000 0.31680  0.93850  0.74420  Biso   1.000  H
  C362     1.0000 0.22690  0.02629  0.58280  Biso   1.000  C
  H156     1.0000 0.23480  0.04720  0.60400  Biso   1.000  H
  C363     1.0000 0.25030  0.98970  0.58260  Biso   1.000  C
  N83      1.0000 0.32860  0.98548  0.67700  Biso   1.000  N
  C364     1.0000 0.36630  0.13350  0.72920  Biso   1.000  C
  H157     1.0000 0.37920  0.10850  0.73270  Biso   1.000  H
  C365     1.0000 0.32950  0.20930  0.72000  Biso   1.000  C
  N84      1.0000 0.34810  0.05040  0.70620  Biso   1.000  N
  C366     1.0000 0.31580  0.17580  0.69250  Biso   1.000  C
  H158     1.0000 0.29430  0.17860  0.67030  Biso   1.000  H
  C367     1.0000 0.30830  0.25005  0.71370  Biso   1.000  C
  C368     1.0000 0.36250  0.20400  0.74920  Biso   1.000  C
  H159     1.0000 0.37370  0.22640  0.76530  Biso   1.000  H
  C369     1.0000 0.37710  0.87660  0.80300  Biso   1.000  C
  H160     1.0000 0.37780  0.85100  0.81770  Biso   1.000  H
  C370     1.0000 0.33470  0.13770  0.69880  Biso   1.000  C
  C371     1.0000 0.20460  0.96600  0.51730  Biso   1.000  C
  C372     1.0000 0.41130  0.89960  0.80280  Biso   1.000  C
  O164     1.0000 0.45280  0.85090  0.83840  Biso   1.000  O
  C373     1.0000 0.45080  0.88490  0.82320  Biso   1.000  C
  O165     1.0000 0.47990  0.90390  0.82520  Biso   1.000  O
  O166     1.0000 0.43380  0.12680  0.79580  Biso   1.000  O
  C374     1.0000 0.41050  0.93950  0.78140  Biso   1.000  C
  H161     1.0000 0.43370  0.95570  0.78130  Biso   1.000  H
  O167     1.0000 0.42570  0.19020  0.82100  Biso   1.000  O
  C375     1.0000 0.34810  0.00960  0.70700  Biso   1.000  C
  C376     1.0000 0.37980  0.16700  0.75570  Biso   1.000  C
  C377     1.0000 0.41440  0.16060  0.79500  Biso   1.000  C
  O168     1.0000 0.22110  0.90960  0.46420  Biso   1.000  O
  C378     1.0000 0.19310  0.93320  0.48070  Biso   1.000  C
  Cd20     1.0000 0.51994  0.84911  0.85313  Biso   1.000  Cd
  Cd21     1.0000 0.17963  0.23286  0.22294  Biso   1.000  Cd
  Cd22     1.0000 0.87058  0.85814  0.56276  Biso   1.000  Cd
  O169     1.0000 0.87225  0.82035  0.20810  Biso   1.000  O
  O170     1.0000 0.97416  0.95824  0.77291  Biso   1.000  O
  O171     1.0000 0.69422  0.67762  0.04541  Biso   1.000  O
  O172     1.0000 0.87127  0.83309  0.64498  Biso   1.000  O
  O173     1.0000 0.96175  0.93907  0.17499  Biso   1.000  O
  O174     1.0000 0.96219  0.93874  0.84995  Biso   1.000  O
  O175     1.0000 0.97395  0.95709  0.09804  Biso   1.000  O
  O176     1.0000 0.84340  0.78846  0.14638  Biso   1.000  O
  O177     1.0000 0.90744  0.88810  0.63107  Biso   1.000  O
  O178     1.0000 0.76122  0.71012  0.79409  Biso   1.000  O
  O179     1.0000 0.71100  0.66701  0.81057  Biso   1.000  O
  O180     1.0000 0.65884  0.65307  0.98347  Biso   1.000  O
  O181     1.0000 0.86371  0.92713  0.53440  Biso   1.000  O
  O182     1.0000 0.81608  0.90061  0.58173  Biso   1.000  O
  C379     1.0000 0.95774  0.93433  0.80442  Biso   1.000  C
  C380     1.0000 0.86828  0.81499  0.16180  Biso   1.000  C
  N85      1.0000 0.86570  0.81667  0.83032  Biso   1.000  N
  H162     1.0000 0.85140  0.79920  0.81420  Biso   1.000  H
  O183     1.0000 0.72783  0.12085  0.76260  Biso   1.000  O
  N86      1.0000 0.83430  0.78990  0.89670  Biso   1.000  N
  C381     1.0000 0.89288  0.86243  0.65959  Biso   1.000  C
  N87      1.0000 0.90470  0.85590  0.98914  Biso   1.000  N
  H163     1.0000 0.92280  0.86920  0.97280  Biso   1.000  H
  C382     1.0000 0.68779  0.67476  0.99940  Biso   1.000  C
  C383     1.0000 0.88890  0.84386  0.80000  Biso   1.000  C
  N88      1.0000 0.88760  0.83690  0.91032  Biso   1.000  N
  C384     1.0000 0.71525  0.69450  0.96330  Biso   1.000  C
  C385     1.0000 0.95761  0.93438  0.12919  Biso   1.000  C
  C386     1.0000 0.92940  0.89172  0.05859  Biso   1.000  C
  H164     1.0000 0.94230  0.90900  0.03610  Biso   1.000  H
  C387     1.0000 0.73700  0.69396  0.82440  Biso   1.000  C
  O184     1.0000 0.69768  0.16929  0.80334  Biso   1.000  O
  C388     1.0000 0.91380  0.87360  0.81800  Biso   1.000  C
  H165     1.0000 0.91820  0.87620  0.85230  Biso   1.000  H
  N89      1.0000 0.85300  0.80840  0.97998  Biso   1.000  N
  C389     1.0000 0.83040  0.92964  0.55590  Biso   1.000  C
  C390     1.0000 0.93283  0.90025  0.78410  Biso   1.000  C
  C391     1.0000 0.74006  0.70244  0.87880  Biso   1.000  C
  C392     1.0000 0.90660  0.85950  0.04109  Biso   1.000  C
  C393     1.0000 0.92648  0.89610  0.73326  Biso   1.000  C
  H166     1.0000 0.93870  0.91400  0.71100  Biso   1.000  H
  C394     1.0000 0.93326  0.89864  0.11146  Biso   1.000  C
  C395     1.0000 0.88630  0.83380  0.07460  Biso   1.000  C
  C396     1.0000 0.69610  0.13460  0.78300  Biso   1.000  C
  C397     1.0000 0.90156  0.86491  0.71533  Biso   1.000  C
  C398     1.0000 0.89046  0.84067  0.12649  Biso   1.000  C
  C399     1.0000 0.74500  0.72080  0.98000  Biso   1.000  C
  H167     1.0000 0.74680  0.72660  0.01400  Biso   1.000  H
  C400     1.0000 0.86300  0.81440  0.88340  Biso   1.000  C
  C401     1.0000 0.71249  0.68510  0.91370  Biso   1.000  C
  H168     1.0000 0.69250  0.66730  0.90260  Biso   1.000  H
  C402     1.0000 0.88314  0.83917  0.74890  Biso   1.000  C
  H169     1.0000 0.86660  0.81840  0.73720  Biso   1.000  H
  C403     1.0000 0.87760  0.83370  0.95990  Biso   1.000  C
  C404     1.0000 0.76900  0.73020  0.89564  Biso   1.000  C
  H170     1.0000 0.78610  0.74300  0.87280  Biso   1.000  H
  C405     1.0000 0.77250  0.73880  0.94670  Biso   1.000  C
  C406     1.0000 0.65810  0.11000  0.78220  Biso   1.000  C
  C407     1.0000 0.80630  0.96790  0.55370  Biso   1.000  C
  C408     1.0000 0.81830  0.99890  0.52090  Biso   1.000  C
  H171     1.0000 0.84150  0.99600  0.50160  Biso   1.000  H
  O185     1.0000 0.67357  0.72060  0.73500  Biso   1.000  O
  O186     1.0000 0.72485  0.74879  0.69410  Biso   1.000  O
  C409     1.0000 0.82950  0.78840  0.94660  Biso   1.000  C
  N90      1.0000 0.80110  0.76410  0.96785  Biso   1.000  N
  H172     1.0000 0.80080  0.76450  0.00010  Biso   1.000  H
  C410     1.0000 0.91471  0.87348  0.14345  Biso   1.000  C
  H173     1.0000 0.91780  0.87760  0.17770  Biso   1.000  H
  O187     1.0000 0.84440  0.06770  0.46930  Biso   1.000  O
  N91      1.0000 0.71880  0.02006  0.61500  Biso   1.000  N
  H174     1.0000 0.71180  0.04520  0.61580  Biso   1.000  H
  N92      1.0000 0.68430  0.89346  0.67110  Biso   1.000  N
  H175     1.0000 0.70220  0.88580  0.64970  Biso   1.000  H
  N93      1.0000 0.62670  0.00690  0.74390  Biso   1.000  N
  H176     1.0000 0.60990  0.99040  0.75770  Biso   1.000  H
  C411     1.0000 0.76300  0.03990  0.54830  Biso   1.000  C
  H177     1.0000 0.74920  0.06450  0.54670  Biso   1.000  H
  C412     1.0000 0.62540  0.04660  0.76090  Biso   1.000  C
  C413     1.0000 0.67770  0.93480  0.67420  Biso   1.000  C
  N94      1.0000 0.70170  0.95588  0.64140  Biso   1.000  N
  C414     1.0000 0.69830  0.99500  0.64580  Biso   1.000  C
  C415     1.0000 0.65960  0.07060  0.75960  Biso   1.000  C
  H178     1.0000 0.68320  0.06150  0.74420  Biso   1.000  H
  C416     1.0000 0.77310  0.97371  0.58280  Biso   1.000  C
  H179     1.0000 0.76520  0.95280  0.60400  Biso   1.000  H
  C417     1.0000 0.74970  0.01030  0.58260  Biso   1.000  C
  N95      1.0000 0.67140  0.01452  0.67700  Biso   1.000  N
  C418     1.0000 0.63370  0.86650  0.72920  Biso   1.000  C
  H180     1.0000 0.62080  0.89150  0.73270  Biso   1.000  H
  C419     1.0000 0.67050  0.79070  0.72000  Biso   1.000  C
  N96      1.0000 0.65190  0.94960  0.70620  Biso   1.000  N
  C420     1.0000 0.68420  0.82420  0.69250  Biso   1.000  C
  H181     1.0000 0.70570  0.82140  0.67030  Biso   1.000  H
  C421     1.0000 0.69170  0.74995  0.71370  Biso   1.000  C
  C422     1.0000 0.63750  0.79600  0.74920  Biso   1.000  C
  H182     1.0000 0.62630  0.77360  0.76530  Biso   1.000  H
  C423     1.0000 0.62290  0.12340  0.80300  Biso   1.000  C
  H183     1.0000 0.62220  0.14900  0.81770  Biso   1.000  H
  C424     1.0000 0.66530  0.86230  0.69880  Biso   1.000  C
  C425     1.0000 0.79540  0.03400  0.51730  Biso   1.000  C
  C426     1.0000 0.58870  0.10040  0.80280  Biso   1.000  C
  O188     1.0000 0.54720  0.14910  0.83840  Biso   1.000  O
  C427     1.0000 0.54920  0.11510  0.82320  Biso   1.000  C
  O189     1.0000 0.52010  0.09610  0.82520  Biso   1.000  O
  O190     1.0000 0.56620  0.87320  0.79580  Biso   1.000  O
  C428     1.0000 0.58950  0.06050  0.78140  Biso   1.000  C
  H184     1.0000 0.56630  0.04430  0.78130  Biso   1.000  H
  O191     1.0000 0.57430  0.80980  0.82100  Biso   1.000  O
  C429     1.0000 0.65190  0.99040  0.70700  Biso   1.000  C
  C430     1.0000 0.62020  0.83300  0.75570  Biso   1.000  C
  C431     1.0000 0.58560  0.83940  0.79500  Biso   1.000  C
  O192     1.0000 0.77890  0.09040  0.46420  Biso   1.000  O
  C432     1.0000 0.80690  0.06680  0.48070  Biso   1.000  C
  Cd23     1.0000 0.48006  0.15089  0.85313  Biso   1.000  Cd
  Cd24     1.0000 0.82037  0.76714  0.22294  Biso   1.000  Cd
  Cd25     1.0000 0.50000  0.50000  0.66127  Biso   1.000  Cd
  Cd26     1.0000 0.50000  0.50000  0.33873  Biso   1.000  Cd
  Cd27     1.0000 0.00000  0.00000  0.83873  Biso   1.000  Cd
  Cd28     1.0000 0.00000  0.00000  0.16127  Biso   1.000  Cd
