data_image0
_cell_length_a       31.4065
_cell_length_b       31.4065
_cell_length_c       21.5732
_cell_angle_alpha    90
_cell_angle_beta     90
_cell_angle_gamma    90

_symmetry_space_group_name_H-M    "P 1"
_symmetry_int_tables_number       1

loop_
  _symmetry_equiv_pos_as_xyz
  'x, y, z'

loop_
  _atom_site_label
  _atom_site_occupancy
  _atom_site_fract_x
  _atom_site_fract_y
  _atom_site_fract_z
  _atom_site_thermal_displace_type
  _atom_site_B_iso_or_equiv
  _atom_site_type_symbol
  Cu1      1.0000 0.96814  0.49830  0.29970  Biso   1.000  Cu
  O1       1.0000 0.41235  0.49313  0.75880  Biso   1.000  O
  O2       1.0000 0.44234  0.46772  0.67160  Biso   1.000  O
  O3       1.0000 0.02760  0.49263  0.32530  Biso   1.000  O
  O4       1.0000 0.05586  0.52550  0.24360  Biso   1.000  O
  O5       1.0000 0.25181  0.31219  0.53340  Biso   1.000  O
  O6       1.0000 0.24118  0.31209  0.43010  Biso   1.000  O
  O7       1.0000 0.24928  0.46629  0.59290  Biso   1.000  O
  O8       1.0000 0.22494  0.46650  0.37570  Biso   1.000  O
  C1       1.0000 0.36940  0.47460  0.67410  Biso   1.000  C
  C2       1.0000 0.10290  0.49560  0.31660  Biso   1.000  C
  C3       1.0000 0.24230  0.37760  0.48270  Biso   1.000  C
  C4       1.0000 0.41140  0.47920  0.70420  Biso   1.000  C
  C5       1.0000 0.05730  0.50590  0.29330  Biso   1.000  C
  C6       1.0000 0.24900  0.39900  0.53810  Biso   1.000  C
  H1       1.0000 0.25536  0.38442  0.57451  Biso   1.000  H
  C7       1.0000 0.24650  0.32980  0.48240  Biso   1.000  C
  C8       1.0000 0.10660  0.47070  0.36880  Biso   1.000  C
  H2       1.0000 0.08220  0.46024  0.38794  Biso   1.000  H
  C9       1.0000 0.28990  0.46840  0.61720  Biso   1.000  C
  C10      1.0000 0.23070  0.44030  0.43050  Biso   1.000  C
  C11      1.0000 0.24590  0.44310  0.53690  Biso   1.000  C
  C12      1.0000 0.36580  0.46100  0.61500  Biso   1.000  C
  H3       1.0000 0.39044  0.45399  0.59347  Biso   1.000  H
  C13      1.0000 0.23380  0.39930  0.42680  Biso   1.000  C
  H4       1.0000 0.23069  0.38499  0.38942  Biso   1.000  H
  C14      1.0000 0.18040  0.47450  0.36050  Biso   1.000  C
  C15      1.0000 0.13800  0.50990  0.28610  Biso   1.000  C
  H5       1.0000 0.13427  0.52580  0.25019  Biso   1.000  H
  C16      1.0000 0.32720  0.45710  0.58490  Biso   1.000  C
  H6       1.0000 0.32588  0.44733  0.54424  Biso   1.000  H
  C17      1.0000 0.23680  0.46470  0.48220  Biso   1.000  C
  H7       1.0000 0.23488  0.49425  0.48089  Biso   1.000  H
  C18      1.0000 0.17970  0.50160  0.30680  Biso   1.000  C
  H8       1.0000 0.20396  0.51235  0.28782  Biso   1.000  H
  C19      1.0000 0.33360  0.48500  0.70590  Biso   1.000  C
  H9       1.0000 0.33569  0.49358  0.74706  Biso   1.000  H
  C20      1.0000 0.14560  0.46140  0.39260  Biso   1.000  C
  H10      1.0000 0.14828  0.44654  0.42972  Biso   1.000  H
  C21      1.0000 0.29120  0.48270  0.67590  Biso   1.000  C
  H11      1.0000 0.26658  0.49073  0.69679  Biso   1.000  H
  Cu2      1.0000 0.53186  0.00170  0.29970  Biso   1.000  Cu
  O9       1.0000 0.08765  0.00687  0.75880  Biso   1.000  O
  O10      1.0000 0.05766  0.03228  0.67160  Biso   1.000  O
  O11      1.0000 0.47240  0.00737  0.32530  Biso   1.000  O
  O12      1.0000 0.44414  0.97450  0.24360  Biso   1.000  O
  O13      1.0000 0.24819  0.18781  0.53340  Biso   1.000  O
  O14      1.0000 0.25882  0.18791  0.43010  Biso   1.000  O
  O15      1.0000 0.25072  0.03371  0.59290  Biso   1.000  O
  O16      1.0000 0.27506  0.03350  0.37570  Biso   1.000  O
  C22      1.0000 0.13060  0.02540  0.67410  Biso   1.000  C
  C23      1.0000 0.39710  0.00440  0.31660  Biso   1.000  C
  C24      1.0000 0.25770  0.12240  0.48270  Biso   1.000  C
  C25      1.0000 0.08860  0.02080  0.70420  Biso   1.000  C
  C26      1.0000 0.44270  0.99410  0.29330  Biso   1.000  C
  C27      1.0000 0.25100  0.10100  0.53810  Biso   1.000  C
  H12      1.0000 0.24464  0.11558  0.57451  Biso   1.000  H
  C28      1.0000 0.25350  0.17020  0.48240  Biso   1.000  C
  C29      1.0000 0.39340  0.02930  0.36880  Biso   1.000  C
  H13      1.0000 0.41780  0.03976  0.38794  Biso   1.000  H
  C30      1.0000 0.21010  0.03160  0.61720  Biso   1.000  C
  C31      1.0000 0.26930  0.05970  0.43050  Biso   1.000  C
  C32      1.0000 0.25410  0.05690  0.53690  Biso   1.000  C
  C33      1.0000 0.13420  0.03900  0.61500  Biso   1.000  C
  H14      1.0000 0.10956  0.04601  0.59347  Biso   1.000  H
  C34      1.0000 0.26620  0.10070  0.42680  Biso   1.000  C
  H15      1.0000 0.26931  0.11501  0.38942  Biso   1.000  H
  C35      1.0000 0.31960  0.02550  0.36050  Biso   1.000  C
  C36      1.0000 0.36200  0.99010  0.28610  Biso   1.000  C
  H16      1.0000 0.36573  0.97420  0.25019  Biso   1.000  H
  C37      1.0000 0.17280  0.04290  0.58490  Biso   1.000  C
  H17      1.0000 0.17412  0.05267  0.54424  Biso   1.000  H
  C38      1.0000 0.26320  0.03530  0.48220  Biso   1.000  C
  H18      1.0000 0.26512  0.00575  0.48089  Biso   1.000  H
  C39      1.0000 0.32030  0.99840  0.30680  Biso   1.000  C
  H19      1.0000 0.29604  0.98765  0.28782  Biso   1.000  H
  C40      1.0000 0.16640  0.01500  0.70590  Biso   1.000  C
  H20      1.0000 0.16431  0.00642  0.74706  Biso   1.000  H
  C41      1.0000 0.35440  0.03860  0.39260  Biso   1.000  C
  H21      1.0000 0.35172  0.05346  0.42972  Biso   1.000  H
  C42      1.0000 0.20880  0.01730  0.67590  Biso   1.000  C
  H22      1.0000 0.23342  0.00927  0.69679  Biso   1.000  H
  Cu3      1.0000 0.00170  0.96814  0.29970  Biso   1.000  Cu
  O17      1.0000 0.00687  0.41235  0.75880  Biso   1.000  O
  O18      1.0000 0.03228  0.44234  0.67160  Biso   1.000  O
  O19      1.0000 0.00737  0.02760  0.32530  Biso   1.000  O
  O20      1.0000 0.97450  0.05586  0.24360  Biso   1.000  O
  O21      1.0000 0.18781  0.25181  0.53340  Biso   1.000  O
  O22      1.0000 0.18791  0.24118  0.43010  Biso   1.000  O
  O23      1.0000 0.03371  0.24928  0.59290  Biso   1.000  O
  O24      1.0000 0.03350  0.22494  0.37570  Biso   1.000  O
  C43      1.0000 0.02540  0.36940  0.67410  Biso   1.000  C
  C44      1.0000 0.00440  0.10290  0.31660  Biso   1.000  C
  C45      1.0000 0.12240  0.24230  0.48270  Biso   1.000  C
  C46      1.0000 0.02080  0.41140  0.70420  Biso   1.000  C
  C47      1.0000 0.99410  0.05730  0.29330  Biso   1.000  C
  C48      1.0000 0.10100  0.24900  0.53810  Biso   1.000  C
  H23      1.0000 0.11558  0.25536  0.57451  Biso   1.000  H
  C49      1.0000 0.17020  0.24650  0.48240  Biso   1.000  C
  C50      1.0000 0.02930  0.10660  0.36880  Biso   1.000  C
  H24      1.0000 0.03976  0.08220  0.38794  Biso   1.000  H
  C51      1.0000 0.03160  0.28990  0.61720  Biso   1.000  C
  C52      1.0000 0.05970  0.23070  0.43050  Biso   1.000  C
  C53      1.0000 0.05690  0.24590  0.53690  Biso   1.000  C
  C54      1.0000 0.03900  0.36580  0.61500  Biso   1.000  C
  H25      1.0000 0.04601  0.39044  0.59347  Biso   1.000  H
  C55      1.0000 0.10070  0.23380  0.42680  Biso   1.000  C
  H26      1.0000 0.11501  0.23069  0.38942  Biso   1.000  H
  C56      1.0000 0.02550  0.18040  0.36050  Biso   1.000  C
  C57      1.0000 0.99010  0.13800  0.28610  Biso   1.000  C
  H27      1.0000 0.97420  0.13427  0.25019  Biso   1.000  H
  C58      1.0000 0.04290  0.32720  0.58490  Biso   1.000  C
  H28      1.0000 0.05267  0.32588  0.54424  Biso   1.000  H
  C59      1.0000 0.03530  0.23680  0.48220  Biso   1.000  C
  H29      1.0000 0.00575  0.23488  0.48089  Biso   1.000  H
  C60      1.0000 0.99840  0.17970  0.30680  Biso   1.000  C
  H30      1.0000 0.98765  0.20396  0.28782  Biso   1.000  H
  C61      1.0000 0.01500  0.33360  0.70590  Biso   1.000  C
  H31      1.0000 0.00642  0.33569  0.74706  Biso   1.000  H
  C62      1.0000 0.03860  0.14560  0.39260  Biso   1.000  C
  H32      1.0000 0.05346  0.14828  0.42972  Biso   1.000  H
  C63      1.0000 0.01730  0.29120  0.67590  Biso   1.000  C
  H33      1.0000 0.00927  0.26658  0.69679  Biso   1.000  H
  Cu4      1.0000 0.49830  0.53186  0.29970  Biso   1.000  Cu
  O25      1.0000 0.49313  0.08765  0.75880  Biso   1.000  O
  O26      1.0000 0.46772  0.05766  0.67160  Biso   1.000  O
  O27      1.0000 0.49263  0.47240  0.32530  Biso   1.000  O
  O28      1.0000 0.52550  0.44414  0.24360  Biso   1.000  O
  O29      1.0000 0.31219  0.24819  0.53340  Biso   1.000  O
  O30      1.0000 0.31209  0.25882  0.43010  Biso   1.000  O
  O31      1.0000 0.46629  0.25072  0.59290  Biso   1.000  O
  O32      1.0000 0.46650  0.27506  0.37570  Biso   1.000  O
  C64      1.0000 0.47460  0.13060  0.67410  Biso   1.000  C
  C65      1.0000 0.49560  0.39710  0.31660  Biso   1.000  C
  C66      1.0000 0.37760  0.25770  0.48270  Biso   1.000  C
  C67      1.0000 0.47920  0.08860  0.70420  Biso   1.000  C
  C68      1.0000 0.50590  0.44270  0.29330  Biso   1.000  C
  C69      1.0000 0.39900  0.25100  0.53810  Biso   1.000  C
  H34      1.0000 0.38442  0.24464  0.57451  Biso   1.000  H
  C70      1.0000 0.32980  0.25350  0.48240  Biso   1.000  C
  C71      1.0000 0.47070  0.39340  0.36880  Biso   1.000  C
  H35      1.0000 0.46024  0.41780  0.38794  Biso   1.000  H
  C72      1.0000 0.46840  0.21010  0.61720  Biso   1.000  C
  C73      1.0000 0.44030  0.26930  0.43050  Biso   1.000  C
  C74      1.0000 0.44310  0.25410  0.53690  Biso   1.000  C
  C75      1.0000 0.46100  0.13420  0.61500  Biso   1.000  C
  H36      1.0000 0.45399  0.10956  0.59347  Biso   1.000  H
  C76      1.0000 0.39930  0.26620  0.42680  Biso   1.000  C
  H37      1.0000 0.38499  0.26931  0.38942  Biso   1.000  H
  C77      1.0000 0.47450  0.31960  0.36050  Biso   1.000  C
  C78      1.0000 0.50990  0.36200  0.28610  Biso   1.000  C
  H38      1.0000 0.52580  0.36573  0.25019  Biso   1.000  H
  C79      1.0000 0.45710  0.17280  0.58490  Biso   1.000  C
  H39      1.0000 0.44733  0.17412  0.54424  Biso   1.000  H
  C80      1.0000 0.46470  0.26320  0.48220  Biso   1.000  C
  H40      1.0000 0.49425  0.26512  0.48089  Biso   1.000  H
  C81      1.0000 0.50160  0.32030  0.30680  Biso   1.000  C
  H41      1.0000 0.51235  0.29604  0.28782  Biso   1.000  H
  C82      1.0000 0.48500  0.16640  0.70590  Biso   1.000  C
  H42      1.0000 0.49358  0.16431  0.74706  Biso   1.000  H
  C83      1.0000 0.46140  0.35440  0.39260  Biso   1.000  C
  H43      1.0000 0.44654  0.35172  0.42972  Biso   1.000  H
  C84      1.0000 0.48270  0.20880  0.67590  Biso   1.000  C
  H44      1.0000 0.49073  0.23342  0.69679  Biso   1.000  H
  Cu5      1.0000 0.53186  0.49830  0.20030  Biso   1.000  Cu
  O33      1.0000 0.08765  0.49313  0.74120  Biso   1.000  O
  O34      1.0000 0.05766  0.46772  0.82840  Biso   1.000  O
  O35      1.0000 0.47240  0.49263  0.17470  Biso   1.000  O
  O36      1.0000 0.44414  0.52550  0.25640  Biso   1.000  O
  O37      1.0000 0.24819  0.31219  0.96660  Biso   1.000  O
  O38      1.0000 0.25882  0.31209  0.06990  Biso   1.000  O
  O39      1.0000 0.25072  0.46629  0.90710  Biso   1.000  O
  O40      1.0000 0.27506  0.46650  0.12430  Biso   1.000  O
  C85      1.0000 0.13060  0.47460  0.82590  Biso   1.000  C
  C86      1.0000 0.39710  0.49560  0.18340  Biso   1.000  C
  C87      1.0000 0.25770  0.37760  0.01730  Biso   1.000  C
  C88      1.0000 0.08860  0.47920  0.79580  Biso   1.000  C
  C89      1.0000 0.44270  0.50590  0.20670  Biso   1.000  C
  C90      1.0000 0.25100  0.39900  0.96190  Biso   1.000  C
  H45      1.0000 0.24464  0.38442  0.92549  Biso   1.000  H
  C91      1.0000 0.25350  0.32980  0.01760  Biso   1.000  C
  C92      1.0000 0.39340  0.47070  0.13120  Biso   1.000  C
  H46      1.0000 0.41780  0.46024  0.11206  Biso   1.000  H
  C93      1.0000 0.21010  0.46840  0.88280  Biso   1.000  C
  C94      1.0000 0.26930  0.44030  0.06950  Biso   1.000  C
  C95      1.0000 0.25410  0.44310  0.96310  Biso   1.000  C
  C96      1.0000 0.13420  0.46100  0.88500  Biso   1.000  C
  H47      1.0000 0.10956  0.45399  0.90653  Biso   1.000  H
  C97      1.0000 0.26620  0.39930  0.07320  Biso   1.000  C
  H48      1.0000 0.26931  0.38499  0.11058  Biso   1.000  H
  C98      1.0000 0.31960  0.47450  0.13950  Biso   1.000  C
  C99      1.0000 0.36200  0.50990  0.21390  Biso   1.000  C
  H49      1.0000 0.36573  0.52580  0.24981  Biso   1.000  H
  C100     1.0000 0.17280  0.45710  0.91510  Biso   1.000  C
  H50      1.0000 0.17412  0.44733  0.95576  Biso   1.000  H
  C101     1.0000 0.26320  0.46470  0.01780  Biso   1.000  C
  H51      1.0000 0.26512  0.49425  0.01911  Biso   1.000  H
  C102     1.0000 0.32030  0.50160  0.19320  Biso   1.000  C
  H52      1.0000 0.29604  0.51235  0.21218  Biso   1.000  H
  C103     1.0000 0.16640  0.48500  0.79410  Biso   1.000  C
  H53      1.0000 0.16431  0.49358  0.75294  Biso   1.000  H
  C104     1.0000 0.35440  0.46140  0.10740  Biso   1.000  C
  H54      1.0000 0.35172  0.44654  0.07028  Biso   1.000  H
  C105     1.0000 0.20880  0.48270  0.82410  Biso   1.000  C
  H55      1.0000 0.23342  0.49073  0.80321  Biso   1.000  H
  Cu6      1.0000 0.96814  0.00170  0.20030  Biso   1.000  Cu
  O41      1.0000 0.41235  0.00687  0.74120  Biso   1.000  O
  O42      1.0000 0.44234  0.03228  0.82840  Biso   1.000  O
  O43      1.0000 0.02760  0.00737  0.17470  Biso   1.000  O
  O44      1.0000 0.05586  0.97450  0.25640  Biso   1.000  O
  O45      1.0000 0.25181  0.18781  0.96660  Biso   1.000  O
  O46      1.0000 0.24118  0.18791  0.06990  Biso   1.000  O
  O47      1.0000 0.24928  0.03371  0.90710  Biso   1.000  O
  O48      1.0000 0.22494  0.03350  0.12430  Biso   1.000  O
  C106     1.0000 0.36940  0.02540  0.82590  Biso   1.000  C
  C107     1.0000 0.10290  0.00440  0.18340  Biso   1.000  C
  C108     1.0000 0.24230  0.12240  0.01730  Biso   1.000  C
  C109     1.0000 0.41140  0.02080  0.79580  Biso   1.000  C
  C110     1.0000 0.05730  0.99410  0.20670  Biso   1.000  C
  C111     1.0000 0.24900  0.10100  0.96190  Biso   1.000  C
  H56      1.0000 0.25536  0.11558  0.92549  Biso   1.000  H
  C112     1.0000 0.24650  0.17020  0.01760  Biso   1.000  C
  C113     1.0000 0.10660  0.02930  0.13120  Biso   1.000  C
  H57      1.0000 0.08220  0.03976  0.11206  Biso   1.000  H
  C114     1.0000 0.28990  0.03160  0.88280  Biso   1.000  C
  C115     1.0000 0.23070  0.05970  0.06950  Biso   1.000  C
  C116     1.0000 0.24590  0.05690  0.96310  Biso   1.000  C
  C117     1.0000 0.36580  0.03900  0.88500  Biso   1.000  C
  H58      1.0000 0.39044  0.04601  0.90653  Biso   1.000  H
  C118     1.0000 0.23380  0.10070  0.07320  Biso   1.000  C
  H59      1.0000 0.23069  0.11501  0.11058  Biso   1.000  H
  C119     1.0000 0.18040  0.02550  0.13950  Biso   1.000  C
  C120     1.0000 0.13800  0.99010  0.21390  Biso   1.000  C
  H60      1.0000 0.13427  0.97420  0.24981  Biso   1.000  H
  C121     1.0000 0.32720  0.04290  0.91510  Biso   1.000  C
  H61      1.0000 0.32588  0.05267  0.95576  Biso   1.000  H
  C122     1.0000 0.23680  0.03530  0.01780  Biso   1.000  C
  H62      1.0000 0.23488  0.00575  0.01911  Biso   1.000  H
  C123     1.0000 0.17970  0.99840  0.19320  Biso   1.000  C
  H63      1.0000 0.20396  0.98765  0.21218  Biso   1.000  H
  C124     1.0000 0.33360  0.01500  0.79410  Biso   1.000  C
  H64      1.0000 0.33569  0.00642  0.75294  Biso   1.000  H
  C125     1.0000 0.14560  0.03860  0.10740  Biso   1.000  C
  H65      1.0000 0.14828  0.05346  0.07028  Biso   1.000  H
  C126     1.0000 0.29120  0.01730  0.82410  Biso   1.000  C
  H66      1.0000 0.26658  0.00927  0.80321  Biso   1.000  H
  Cu7      1.0000 0.49830  0.96814  0.20030  Biso   1.000  Cu
  O49      1.0000 0.49313  0.41235  0.74120  Biso   1.000  O
  O50      1.0000 0.46772  0.44234  0.82840  Biso   1.000  O
  O51      1.0000 0.49263  0.02760  0.17470  Biso   1.000  O
  O52      1.0000 0.52550  0.05586  0.25640  Biso   1.000  O
  O53      1.0000 0.31219  0.25181  0.96660  Biso   1.000  O
  O54      1.0000 0.31209  0.24118  0.06990  Biso   1.000  O
  O55      1.0000 0.46629  0.24928  0.90710  Biso   1.000  O
  O56      1.0000 0.46650  0.22494  0.12430  Biso   1.000  O
  C127     1.0000 0.47460  0.36940  0.82590  Biso   1.000  C
  C128     1.0000 0.49560  0.10290  0.18340  Biso   1.000  C
  C129     1.0000 0.37760  0.24230  0.01730  Biso   1.000  C
  C130     1.0000 0.47920  0.41140  0.79580  Biso   1.000  C
  C131     1.0000 0.50590  0.05730  0.20670  Biso   1.000  C
  C132     1.0000 0.39900  0.24900  0.96190  Biso   1.000  C
  H67      1.0000 0.38442  0.25536  0.92549  Biso   1.000  H
  C133     1.0000 0.32980  0.24650  0.01760  Biso   1.000  C
  C134     1.0000 0.47070  0.10660  0.13120  Biso   1.000  C
  H68      1.0000 0.46024  0.08220  0.11206  Biso   1.000  H
  C135     1.0000 0.46840  0.28990  0.88280  Biso   1.000  C
  C136     1.0000 0.44030  0.23070  0.06950  Biso   1.000  C
  C137     1.0000 0.44310  0.24590  0.96310  Biso   1.000  C
  C138     1.0000 0.46100  0.36580  0.88500  Biso   1.000  C
  H69      1.0000 0.45399  0.39044  0.90653  Biso   1.000  H
  C139     1.0000 0.39930  0.23380  0.07320  Biso   1.000  C
  H70      1.0000 0.38499  0.23069  0.11058  Biso   1.000  H
  C140     1.0000 0.47450  0.18040  0.13950  Biso   1.000  C
  C141     1.0000 0.50990  0.13800  0.21390  Biso   1.000  C
  H71      1.0000 0.52580  0.13427  0.24981  Biso   1.000  H
  C142     1.0000 0.45710  0.32720  0.91510  Biso   1.000  C
  H72      1.0000 0.44733  0.32588  0.95576  Biso   1.000  H
  C143     1.0000 0.46470  0.23680  0.01780  Biso   1.000  C
  H73      1.0000 0.49425  0.23488  0.01911  Biso   1.000  H
  C144     1.0000 0.50160  0.17970  0.19320  Biso   1.000  C
  H74      1.0000 0.51235  0.20396  0.21218  Biso   1.000  H
  C145     1.0000 0.48500  0.33360  0.79410  Biso   1.000  C
  H75      1.0000 0.49358  0.33569  0.75294  Biso   1.000  H
  C146     1.0000 0.46140  0.14560  0.10740  Biso   1.000  C
  H76      1.0000 0.44654  0.14828  0.07028  Biso   1.000  H
  C147     1.0000 0.48270  0.29120  0.82410  Biso   1.000  C
  H77      1.0000 0.49073  0.26658  0.80321  Biso   1.000  H
  Cu8      1.0000 0.00170  0.53186  0.20030  Biso   1.000  Cu
  O57      1.0000 0.00687  0.08765  0.74120  Biso   1.000  O
  O58      1.0000 0.03228  0.05766  0.82840  Biso   1.000  O
  O59      1.0000 0.00737  0.47240  0.17470  Biso   1.000  O
  O60      1.0000 0.97450  0.44414  0.25640  Biso   1.000  O
  O61      1.0000 0.18781  0.24819  0.96660  Biso   1.000  O
  O62      1.0000 0.18791  0.25882  0.06990  Biso   1.000  O
  O63      1.0000 0.03371  0.25072  0.90710  Biso   1.000  O
  O64      1.0000 0.03350  0.27506  0.12430  Biso   1.000  O
  C148     1.0000 0.02540  0.13060  0.82590  Biso   1.000  C
  C149     1.0000 0.00440  0.39710  0.18340  Biso   1.000  C
  C150     1.0000 0.12240  0.25770  0.01730  Biso   1.000  C
  C151     1.0000 0.02080  0.08860  0.79580  Biso   1.000  C
  C152     1.0000 0.99410  0.44270  0.20670  Biso   1.000  C
  C153     1.0000 0.10100  0.25100  0.96190  Biso   1.000  C
  H78      1.0000 0.11558  0.24464  0.92549  Biso   1.000  H
  C154     1.0000 0.17020  0.25350  0.01760  Biso   1.000  C
  C155     1.0000 0.02930  0.39340  0.13120  Biso   1.000  C
  H79      1.0000 0.03976  0.41780  0.11206  Biso   1.000  H
  C156     1.0000 0.03160  0.21010  0.88280  Biso   1.000  C
  C157     1.0000 0.05970  0.26930  0.06950  Biso   1.000  C
  C158     1.0000 0.05690  0.25410  0.96310  Biso   1.000  C
  C159     1.0000 0.03900  0.13420  0.88500  Biso   1.000  C
  H80      1.0000 0.04601  0.10956  0.90653  Biso   1.000  H
  C160     1.0000 0.10070  0.26620  0.07320  Biso   1.000  C
  H81      1.0000 0.11501  0.26931  0.11058  Biso   1.000  H
  C161     1.0000 0.02550  0.31960  0.13950  Biso   1.000  C
  C162     1.0000 0.99010  0.36200  0.21390  Biso   1.000  C
  H82      1.0000 0.97420  0.36573  0.24981  Biso   1.000  H
  C163     1.0000 0.04290  0.17280  0.91510  Biso   1.000  C
  H83      1.0000 0.05267  0.17412  0.95576  Biso   1.000  H
  C164     1.0000 0.03530  0.26320  0.01780  Biso   1.000  C
  H84      1.0000 0.00575  0.26512  0.01911  Biso   1.000  H
  C165     1.0000 0.99840  0.32030  0.19320  Biso   1.000  C
  H85      1.0000 0.98765  0.29604  0.21218  Biso   1.000  H
  C166     1.0000 0.01500  0.16640  0.79410  Biso   1.000  C
  H86      1.0000 0.00642  0.16431  0.75294  Biso   1.000  H
  C167     1.0000 0.03860  0.35440  0.10740  Biso   1.000  C
  H87      1.0000 0.05346  0.35172  0.07028  Biso   1.000  H
  C168     1.0000 0.01730  0.20880  0.82410  Biso   1.000  C
  H88      1.0000 0.00927  0.23342  0.80321  Biso   1.000  H
  Cu9      1.0000 0.03186  0.50170  0.70030  Biso   1.000  Cu
  O65      1.0000 0.58765  0.50687  0.24120  Biso   1.000  O
  O66      1.0000 0.55766  0.53228  0.32840  Biso   1.000  O
  O67      1.0000 0.97240  0.50737  0.67470  Biso   1.000  O
  O68      1.0000 0.94414  0.47450  0.75640  Biso   1.000  O
  O69      1.0000 0.74819  0.68781  0.46660  Biso   1.000  O
  O70      1.0000 0.75882  0.68791  0.56990  Biso   1.000  O
  O71      1.0000 0.75072  0.53371  0.40710  Biso   1.000  O
  O72      1.0000 0.77506  0.53350  0.62430  Biso   1.000  O
  C169     1.0000 0.63060  0.52540  0.32590  Biso   1.000  C
  C170     1.0000 0.89710  0.50440  0.68340  Biso   1.000  C
  C171     1.0000 0.75770  0.62240  0.51730  Biso   1.000  C
  C172     1.0000 0.58860  0.52080  0.29580  Biso   1.000  C
  C173     1.0000 0.94270  0.49410  0.70670  Biso   1.000  C
  C174     1.0000 0.75100  0.60100  0.46190  Biso   1.000  C
  H89      1.0000 0.74464  0.61558  0.42549  Biso   1.000  H
  C175     1.0000 0.75350  0.67020  0.51760  Biso   1.000  C
  C176     1.0000 0.89340  0.52930  0.63120  Biso   1.000  C
  H90      1.0000 0.91780  0.53976  0.61206  Biso   1.000  H
  C177     1.0000 0.71010  0.53160  0.38280  Biso   1.000  C
  C178     1.0000 0.76930  0.55970  0.56950  Biso   1.000  C
  C179     1.0000 0.75410  0.55690  0.46310  Biso   1.000  C
  C180     1.0000 0.63420  0.53900  0.38500  Biso   1.000  C
  H91      1.0000 0.60956  0.54601  0.40653  Biso   1.000  H
  C181     1.0000 0.76620  0.60070  0.57320  Biso   1.000  C
  H92      1.0000 0.76931  0.61501  0.61058  Biso   1.000  H
  C182     1.0000 0.81960  0.52550  0.63950  Biso   1.000  C
  C183     1.0000 0.86200  0.49010  0.71390  Biso   1.000  C
  H93      1.0000 0.86573  0.47420  0.74981  Biso   1.000  H
  C184     1.0000 0.67280  0.54290  0.41510  Biso   1.000  C
  H94      1.0000 0.67412  0.55267  0.45576  Biso   1.000  H
  C185     1.0000 0.76320  0.53530  0.51780  Biso   1.000  C
  H95      1.0000 0.76512  0.50575  0.51911  Biso   1.000  H
  C186     1.0000 0.82030  0.49840  0.69320  Biso   1.000  C
  H96      1.0000 0.79604  0.48765  0.71218  Biso   1.000  H
  C187     1.0000 0.66640  0.51500  0.29410  Biso   1.000  C
  H97      1.0000 0.66431  0.50642  0.25294  Biso   1.000  H
  C188     1.0000 0.85440  0.53860  0.60740  Biso   1.000  C
  H98      1.0000 0.85172  0.55346  0.57028  Biso   1.000  H
  C189     1.0000 0.70880  0.51730  0.32410  Biso   1.000  C
  H99      1.0000 0.73342  0.50927  0.30321  Biso   1.000  H
  Cu10     1.0000 0.46814  0.99830  0.70030  Biso   1.000  Cu
  O73      1.0000 0.91235  0.99313  0.24120  Biso   1.000  O
  O74      1.0000 0.94234  0.96772  0.32840  Biso   1.000  O
  O75      1.0000 0.52760  0.99263  0.67470  Biso   1.000  O
  O76      1.0000 0.55586  0.02550  0.75640  Biso   1.000  O
  O77      1.0000 0.75181  0.81219  0.46660  Biso   1.000  O
  O78      1.0000 0.74118  0.81209  0.56990  Biso   1.000  O
  O79      1.0000 0.74928  0.96629  0.40710  Biso   1.000  O
  O80      1.0000 0.72494  0.96650  0.62430  Biso   1.000  O
  C190     1.0000 0.86940  0.97460  0.32590  Biso   1.000  C
  C191     1.0000 0.60290  0.99560  0.68340  Biso   1.000  C
  C192     1.0000 0.74230  0.87760  0.51730  Biso   1.000  C
  C193     1.0000 0.91140  0.97920  0.29580  Biso   1.000  C
  C194     1.0000 0.55730  0.00590  0.70670  Biso   1.000  C
  C195     1.0000 0.74900  0.89900  0.46190  Biso   1.000  C
  H100     1.0000 0.75536  0.88442  0.42549  Biso   1.000  H
  C196     1.0000 0.74650  0.82980  0.51760  Biso   1.000  C
  C197     1.0000 0.60660  0.97070  0.63120  Biso   1.000  C
  H101     1.0000 0.58220  0.96024  0.61206  Biso   1.000  H
  C198     1.0000 0.78990  0.96840  0.38280  Biso   1.000  C
  C199     1.0000 0.73070  0.94030  0.56950  Biso   1.000  C
  C200     1.0000 0.74590  0.94310  0.46310  Biso   1.000  C
  C201     1.0000 0.86580  0.96100  0.38500  Biso   1.000  C
  H102     1.0000 0.89044  0.95399  0.40653  Biso   1.000  H
  C202     1.0000 0.73380  0.89930  0.57320  Biso   1.000  C
  H103     1.0000 0.73069  0.88499  0.61058  Biso   1.000  H
  C203     1.0000 0.68040  0.97450  0.63950  Biso   1.000  C
  C204     1.0000 0.63800  0.00990  0.71390  Biso   1.000  C
  H104     1.0000 0.63427  0.02580  0.74981  Biso   1.000  H
  C205     1.0000 0.82720  0.95710  0.41510  Biso   1.000  C
  H105     1.0000 0.82588  0.94733  0.45576  Biso   1.000  H
  C206     1.0000 0.73680  0.96470  0.51780  Biso   1.000  C
  H106     1.0000 0.73488  0.99425  0.51911  Biso   1.000  H
  C207     1.0000 0.67970  0.00160  0.69320  Biso   1.000  C
  H107     1.0000 0.70396  0.01235  0.71218  Biso   1.000  H
  C208     1.0000 0.83360  0.98500  0.29410  Biso   1.000  C
  H108     1.0000 0.83569  0.99358  0.25294  Biso   1.000  H
  C209     1.0000 0.64560  0.96140  0.60740  Biso   1.000  C
  H109     1.0000 0.64828  0.94654  0.57028  Biso   1.000  H
  C210     1.0000 0.79120  0.98270  0.32410  Biso   1.000  C
  H110     1.0000 0.76658  0.99073  0.30321  Biso   1.000  H
  Cu11     1.0000 0.99830  0.03186  0.70030  Biso   1.000  Cu
  O81      1.0000 0.99313  0.58765  0.24120  Biso   1.000  O
  O82      1.0000 0.96772  0.55766  0.32840  Biso   1.000  O
  O83      1.0000 0.99263  0.97240  0.67470  Biso   1.000  O
  O84      1.0000 0.02550  0.94414  0.75640  Biso   1.000  O
  O85      1.0000 0.81219  0.74819  0.46660  Biso   1.000  O
  O86      1.0000 0.81209  0.75882  0.56990  Biso   1.000  O
  O87      1.0000 0.96629  0.75072  0.40710  Biso   1.000  O
  O88      1.0000 0.96650  0.77506  0.62430  Biso   1.000  O
  C211     1.0000 0.97460  0.63060  0.32590  Biso   1.000  C
  C212     1.0000 0.99560  0.89710  0.68340  Biso   1.000  C
  C213     1.0000 0.87760  0.75770  0.51730  Biso   1.000  C
  C214     1.0000 0.97920  0.58860  0.29580  Biso   1.000  C
  C215     1.0000 0.00590  0.94270  0.70670  Biso   1.000  C
  C216     1.0000 0.89900  0.75100  0.46190  Biso   1.000  C
  H111     1.0000 0.88442  0.74464  0.42549  Biso   1.000  H
  C217     1.0000 0.82980  0.75350  0.51760  Biso   1.000  C
  C218     1.0000 0.97070  0.89340  0.63120  Biso   1.000  C
  H112     1.0000 0.96024  0.91780  0.61206  Biso   1.000  H
  C219     1.0000 0.96840  0.71010  0.38280  Biso   1.000  C
  C220     1.0000 0.94030  0.76930  0.56950  Biso   1.000  C
  C221     1.0000 0.94310  0.75410  0.46310  Biso   1.000  C
  C222     1.0000 0.96100  0.63420  0.38500  Biso   1.000  C
  H113     1.0000 0.95399  0.60956  0.40653  Biso   1.000  H
  C223     1.0000 0.89930  0.76620  0.57320  Biso   1.000  C
  H114     1.0000 0.88499  0.76931  0.61058  Biso   1.000  H
  C224     1.0000 0.97450  0.81960  0.63950  Biso   1.000  C
  C225     1.0000 0.00990  0.86200  0.71390  Biso   1.000  C
  H115     1.0000 0.02580  0.86573  0.74981  Biso   1.000  H
  C226     1.0000 0.95710  0.67280  0.41510  Biso   1.000  C
  H116     1.0000 0.94733  0.67412  0.45576  Biso   1.000  H
  C227     1.0000 0.96470  0.76320  0.51780  Biso   1.000  C
  H117     1.0000 0.99425  0.76512  0.51911  Biso   1.000  H
  C228     1.0000 0.00160  0.82030  0.69320  Biso   1.000  C
  H118     1.0000 0.01235  0.79604  0.71218  Biso   1.000  H
  C229     1.0000 0.98500  0.66640  0.29410  Biso   1.000  C
  H119     1.0000 0.99358  0.66431  0.25294  Biso   1.000  H
  C230     1.0000 0.96140  0.85440  0.60740  Biso   1.000  C
  H120     1.0000 0.94654  0.85172  0.57028  Biso   1.000  H
  C231     1.0000 0.98270  0.70880  0.32410  Biso   1.000  C
  H121     1.0000 0.99073  0.73342  0.30321  Biso   1.000  H
  Cu12     1.0000 0.50170  0.46814  0.70030  Biso   1.000  Cu
  O89      1.0000 0.50687  0.91235  0.24120  Biso   1.000  O
  O90      1.0000 0.53228  0.94234  0.32840  Biso   1.000  O
  O91      1.0000 0.50737  0.52760  0.67470  Biso   1.000  O
  O92      1.0000 0.47450  0.55586  0.75640  Biso   1.000  O
  O93      1.0000 0.68781  0.75181  0.46660  Biso   1.000  O
  O94      1.0000 0.68791  0.74118  0.56990  Biso   1.000  O
  O95      1.0000 0.53371  0.74928  0.40710  Biso   1.000  O
  O96      1.0000 0.53350  0.72494  0.62430  Biso   1.000  O
  C232     1.0000 0.52540  0.86940  0.32590  Biso   1.000  C
  C233     1.0000 0.50440  0.60290  0.68340  Biso   1.000  C
  C234     1.0000 0.62240  0.74230  0.51730  Biso   1.000  C
  C235     1.0000 0.52080  0.91140  0.29580  Biso   1.000  C
  C236     1.0000 0.49410  0.55730  0.70670  Biso   1.000  C
  C237     1.0000 0.60100  0.74900  0.46190  Biso   1.000  C
  H122     1.0000 0.61558  0.75536  0.42549  Biso   1.000  H
  C238     1.0000 0.67020  0.74650  0.51760  Biso   1.000  C
  C239     1.0000 0.52930  0.60660  0.63120  Biso   1.000  C
  H123     1.0000 0.53976  0.58220  0.61206  Biso   1.000  H
  C240     1.0000 0.53160  0.78990  0.38280  Biso   1.000  C
  C241     1.0000 0.55970  0.73070  0.56950  Biso   1.000  C
  C242     1.0000 0.55690  0.74590  0.46310  Biso   1.000  C
  C243     1.0000 0.53900  0.86580  0.38500  Biso   1.000  C
  H124     1.0000 0.54601  0.89044  0.40653  Biso   1.000  H
  C244     1.0000 0.60070  0.73380  0.57320  Biso   1.000  C
  H125     1.0000 0.61501  0.73069  0.61058  Biso   1.000  H
  C245     1.0000 0.52550  0.68040  0.63950  Biso   1.000  C
  C246     1.0000 0.49010  0.63800  0.71390  Biso   1.000  C
  H126     1.0000 0.47420  0.63427  0.74981  Biso   1.000  H
  C247     1.0000 0.54290  0.82720  0.41510  Biso   1.000  C
  H127     1.0000 0.55267  0.82588  0.45576  Biso   1.000  H
  C248     1.0000 0.53530  0.73680  0.51780  Biso   1.000  C
  H128     1.0000 0.50575  0.73488  0.51911  Biso   1.000  H
  C249     1.0000 0.49840  0.67970  0.69320  Biso   1.000  C
  H129     1.0000 0.48765  0.70396  0.71218  Biso   1.000  H
  C250     1.0000 0.51500  0.83360  0.29410  Biso   1.000  C
  H130     1.0000 0.50642  0.83569  0.25294  Biso   1.000  H
  C251     1.0000 0.53860  0.64560  0.60740  Biso   1.000  C
  H131     1.0000 0.55346  0.64828  0.57028  Biso   1.000  H
  C252     1.0000 0.51730  0.79120  0.32410  Biso   1.000  C
  H132     1.0000 0.50927  0.76658  0.30321  Biso   1.000  H
  Cu13     1.0000 0.46814  0.50170  0.79970  Biso   1.000  Cu
  O97      1.0000 0.91235  0.50687  0.25880  Biso   1.000  O
  O98      1.0000 0.94234  0.53228  0.17160  Biso   1.000  O
  O99      1.0000 0.52760  0.50737  0.82530  Biso   1.000  O
  O100     1.0000 0.55586  0.47450  0.74360  Biso   1.000  O
  O101     1.0000 0.75181  0.68781  0.03340  Biso   1.000  O
  O102     1.0000 0.74118  0.68791  0.93010  Biso   1.000  O
  O103     1.0000 0.74928  0.53371  0.09290  Biso   1.000  O
  O104     1.0000 0.72494  0.53350  0.87570  Biso   1.000  O
  C253     1.0000 0.86940  0.52540  0.17410  Biso   1.000  C
  C254     1.0000 0.60290  0.50440  0.81660  Biso   1.000  C
  C255     1.0000 0.74230  0.62240  0.98270  Biso   1.000  C
  C256     1.0000 0.91140  0.52080  0.20420  Biso   1.000  C
  C257     1.0000 0.55730  0.49410  0.79330  Biso   1.000  C
  C258     1.0000 0.74900  0.60100  0.03810  Biso   1.000  C
  H133     1.0000 0.75536  0.61558  0.07451  Biso   1.000  H
  C259     1.0000 0.74650  0.67020  0.98240  Biso   1.000  C
  C260     1.0000 0.60660  0.52930  0.86880  Biso   1.000  C
  H134     1.0000 0.58220  0.53976  0.88794  Biso   1.000  H
  C261     1.0000 0.78990  0.53160  0.11720  Biso   1.000  C
  C262     1.0000 0.73070  0.55970  0.93050  Biso   1.000  C
  C263     1.0000 0.74590  0.55690  0.03690  Biso   1.000  C
  C264     1.0000 0.86580  0.53900  0.11500  Biso   1.000  C
  H135     1.0000 0.89044  0.54601  0.09347  Biso   1.000  H
  C265     1.0000 0.73380  0.60070  0.92680  Biso   1.000  C
  H136     1.0000 0.73069  0.61501  0.88942  Biso   1.000  H
  C266     1.0000 0.68040  0.52550  0.86050  Biso   1.000  C
  C267     1.0000 0.63800  0.49010  0.78610  Biso   1.000  C
  H137     1.0000 0.63427  0.47420  0.75019  Biso   1.000  H
  C268     1.0000 0.82720  0.54290  0.08490  Biso   1.000  C
  H138     1.0000 0.82588  0.55267  0.04424  Biso   1.000  H
  C269     1.0000 0.73680  0.53530  0.98220  Biso   1.000  C
  H139     1.0000 0.73488  0.50575  0.98089  Biso   1.000  H
  C270     1.0000 0.67970  0.49840  0.80680  Biso   1.000  C
  H140     1.0000 0.70396  0.48765  0.78782  Biso   1.000  H
  C271     1.0000 0.83360  0.51500  0.20590  Biso   1.000  C
  H141     1.0000 0.83569  0.50642  0.24706  Biso   1.000  H
  C272     1.0000 0.64560  0.53860  0.89260  Biso   1.000  C
  H142     1.0000 0.64828  0.55346  0.92972  Biso   1.000  H
  C273     1.0000 0.79120  0.51730  0.17590  Biso   1.000  C
  H143     1.0000 0.76658  0.50927  0.19679  Biso   1.000  H
  Cu14     1.0000 0.03186  0.99830  0.79970  Biso   1.000  Cu
  O105     1.0000 0.58765  0.99313  0.25880  Biso   1.000  O
  O106     1.0000 0.55766  0.96772  0.17160  Biso   1.000  O
  O107     1.0000 0.97240  0.99263  0.82530  Biso   1.000  O
  O108     1.0000 0.94414  0.02550  0.74360  Biso   1.000  O
  O109     1.0000 0.74819  0.81219  0.03340  Biso   1.000  O
  O110     1.0000 0.75882  0.81209  0.93010  Biso   1.000  O
  O111     1.0000 0.75072  0.96629  0.09290  Biso   1.000  O
  O112     1.0000 0.77506  0.96650  0.87570  Biso   1.000  O
  C274     1.0000 0.63060  0.97460  0.17410  Biso   1.000  C
  C275     1.0000 0.89710  0.99560  0.81660  Biso   1.000  C
  C276     1.0000 0.75770  0.87760  0.98270  Biso   1.000  C
  C277     1.0000 0.58860  0.97920  0.20420  Biso   1.000  C
  C278     1.0000 0.94270  0.00590  0.79330  Biso   1.000  C
  C279     1.0000 0.75100  0.89900  0.03810  Biso   1.000  C
  H144     1.0000 0.74464  0.88442  0.07451  Biso   1.000  H
  C280     1.0000 0.75350  0.82980  0.98240  Biso   1.000  C
  C281     1.0000 0.89340  0.97070  0.86880  Biso   1.000  C
  H145     1.0000 0.91780  0.96024  0.88794  Biso   1.000  H
  C282     1.0000 0.71010  0.96840  0.11720  Biso   1.000  C
  C283     1.0000 0.76930  0.94030  0.93050  Biso   1.000  C
  C284     1.0000 0.75410  0.94310  0.03690  Biso   1.000  C
  C285     1.0000 0.63420  0.96100  0.11500  Biso   1.000  C
  H146     1.0000 0.60956  0.95399  0.09347  Biso   1.000  H
  C286     1.0000 0.76620  0.89930  0.92680  Biso   1.000  C
  H147     1.0000 0.76931  0.88499  0.88942  Biso   1.000  H
  C287     1.0000 0.81960  0.97450  0.86050  Biso   1.000  C
  C288     1.0000 0.86200  0.00990  0.78610  Biso   1.000  C
  H148     1.0000 0.86573  0.02580  0.75019  Biso   1.000  H
  C289     1.0000 0.67280  0.95710  0.08490  Biso   1.000  C
  H149     1.0000 0.67412  0.94733  0.04424  Biso   1.000  H
  C290     1.0000 0.76320  0.96470  0.98220  Biso   1.000  C
  H150     1.0000 0.76512  0.99425  0.98089  Biso   1.000  H
  C291     1.0000 0.82030  0.00160  0.80680  Biso   1.000  C
  H151     1.0000 0.79604  0.01235  0.78782  Biso   1.000  H
  C292     1.0000 0.66640  0.98500  0.20590  Biso   1.000  C
  H152     1.0000 0.66431  0.99358  0.24706  Biso   1.000  H
  C293     1.0000 0.85440  0.96140  0.89260  Biso   1.000  C
  H153     1.0000 0.85172  0.94654  0.92972  Biso   1.000  H
  C294     1.0000 0.70880  0.98270  0.17590  Biso   1.000  C
  H154     1.0000 0.73342  0.99073  0.19679  Biso   1.000  H
  Cu15     1.0000 0.50170  0.03186  0.79970  Biso   1.000  Cu
  O113     1.0000 0.50687  0.58765  0.25880  Biso   1.000  O
  O114     1.0000 0.53228  0.55766  0.17160  Biso   1.000  O
  O115     1.0000 0.50737  0.97240  0.82530  Biso   1.000  O
  O116     1.0000 0.47450  0.94414  0.74360  Biso   1.000  O
  O117     1.0000 0.68781  0.74819  0.03340  Biso   1.000  O
  O118     1.0000 0.68791  0.75882  0.93010  Biso   1.000  O
  O119     1.0000 0.53371  0.75072  0.09290  Biso   1.000  O
  O120     1.0000 0.53350  0.77506  0.87570  Biso   1.000  O
  C295     1.0000 0.52540  0.63060  0.17410  Biso   1.000  C
  C296     1.0000 0.50440  0.89710  0.81660  Biso   1.000  C
  C297     1.0000 0.62240  0.75770  0.98270  Biso   1.000  C
  C298     1.0000 0.52080  0.58860  0.20420  Biso   1.000  C
  C299     1.0000 0.49410  0.94270  0.79330  Biso   1.000  C
  C300     1.0000 0.60100  0.75100  0.03810  Biso   1.000  C
  H155     1.0000 0.61558  0.74464  0.07451  Biso   1.000  H
  C301     1.0000 0.67020  0.75350  0.98240  Biso   1.000  C
  C302     1.0000 0.52930  0.89340  0.86880  Biso   1.000  C
  H156     1.0000 0.53976  0.91780  0.88794  Biso   1.000  H
  C303     1.0000 0.53160  0.71010  0.11720  Biso   1.000  C
  C304     1.0000 0.55970  0.76930  0.93050  Biso   1.000  C
  C305     1.0000 0.55690  0.75410  0.03690  Biso   1.000  C
  C306     1.0000 0.53900  0.63420  0.11500  Biso   1.000  C
  H157     1.0000 0.54601  0.60956  0.09347  Biso   1.000  H
  C307     1.0000 0.60070  0.76620  0.92680  Biso   1.000  C
  H158     1.0000 0.61501  0.76931  0.88942  Biso   1.000  H
  C308     1.0000 0.52550  0.81960  0.86050  Biso   1.000  C
  C309     1.0000 0.49010  0.86200  0.78610  Biso   1.000  C
  H159     1.0000 0.47420  0.86573  0.75019  Biso   1.000  H
  C310     1.0000 0.54290  0.67280  0.08490  Biso   1.000  C
  H160     1.0000 0.55267  0.67412  0.04424  Biso   1.000  H
  C311     1.0000 0.53530  0.76320  0.98220  Biso   1.000  C
  H161     1.0000 0.50575  0.76512  0.98089  Biso   1.000  H
  C312     1.0000 0.49840  0.82030  0.80680  Biso   1.000  C
  H162     1.0000 0.48765  0.79604  0.78782  Biso   1.000  H
  C313     1.0000 0.51500  0.66640  0.20590  Biso   1.000  C
  H163     1.0000 0.50642  0.66431  0.24706  Biso   1.000  H
  C314     1.0000 0.53860  0.85440  0.89260  Biso   1.000  C
  H164     1.0000 0.55346  0.85172  0.92972  Biso   1.000  H
  C315     1.0000 0.51730  0.70880  0.17590  Biso   1.000  C
  H165     1.0000 0.50927  0.73342  0.19679  Biso   1.000  H
  Cu16     1.0000 0.99830  0.46814  0.79970  Biso   1.000  Cu
  O121     1.0000 0.99313  0.91235  0.25880  Biso   1.000  O
  O122     1.0000 0.96772  0.94234  0.17160  Biso   1.000  O
  O123     1.0000 0.99263  0.52760  0.82530  Biso   1.000  O
  O124     1.0000 0.02550  0.55586  0.74360  Biso   1.000  O
  O125     1.0000 0.81219  0.75181  0.03340  Biso   1.000  O
  O126     1.0000 0.81209  0.74118  0.93010  Biso   1.000  O
  O127     1.0000 0.96629  0.74928  0.09290  Biso   1.000  O
  O128     1.0000 0.96650  0.72494  0.87570  Biso   1.000  O
  C316     1.0000 0.97460  0.86940  0.17410  Biso   1.000  C
  C317     1.0000 0.99560  0.60290  0.81660  Biso   1.000  C
  C318     1.0000 0.87760  0.74230  0.98270  Biso   1.000  C
  C319     1.0000 0.97920  0.91140  0.20420  Biso   1.000  C
  C320     1.0000 0.00590  0.55730  0.79330  Biso   1.000  C
  C321     1.0000 0.89900  0.74900  0.03810  Biso   1.000  C
  H166     1.0000 0.88442  0.75536  0.07451  Biso   1.000  H
  C322     1.0000 0.82980  0.74650  0.98240  Biso   1.000  C
  C323     1.0000 0.97070  0.60660  0.86880  Biso   1.000  C
  H167     1.0000 0.96024  0.58220  0.88794  Biso   1.000  H
  C324     1.0000 0.96840  0.78990  0.11720  Biso   1.000  C
  C325     1.0000 0.94030  0.73070  0.93050  Biso   1.000  C
  C326     1.0000 0.94310  0.74590  0.03690  Biso   1.000  C
  C327     1.0000 0.96100  0.86580  0.11500  Biso   1.000  C
  H168     1.0000 0.95399  0.89044  0.09347  Biso   1.000  H
  C328     1.0000 0.89930  0.73380  0.92680  Biso   1.000  C
  H169     1.0000 0.88499  0.73069  0.88942  Biso   1.000  H
  C329     1.0000 0.97450  0.68040  0.86050  Biso   1.000  C
  C330     1.0000 0.00990  0.63800  0.78610  Biso   1.000  C
  H170     1.0000 0.02580  0.63427  0.75019  Biso   1.000  H
  C331     1.0000 0.95710  0.82720  0.08490  Biso   1.000  C
  H171     1.0000 0.94733  0.82588  0.04424  Biso   1.000  H
  C332     1.0000 0.96470  0.73680  0.98220  Biso   1.000  C
  H172     1.0000 0.99425  0.73488  0.98089  Biso   1.000  H
  C333     1.0000 0.00160  0.67970  0.80680  Biso   1.000  C
  H173     1.0000 0.01235  0.70396  0.78782  Biso   1.000  H
  C334     1.0000 0.98500  0.83360  0.20590  Biso   1.000  C
  H174     1.0000 0.99358  0.83569  0.24706  Biso   1.000  H
  C335     1.0000 0.96140  0.64560  0.89260  Biso   1.000  C
  H175     1.0000 0.94654  0.64828  0.92972  Biso   1.000  H
  C336     1.0000 0.98270  0.79120  0.17590  Biso   1.000  C
  H176     1.0000 0.99073  0.76658  0.19679  Biso   1.000  H
  Cu17     1.0000 0.25000  0.25000  0.42100  Biso   1.000  Cu
  Cu18     1.0000 0.25000  0.25000  0.54309  Biso   1.000  Cu
  Cu19     1.0000 0.25000  0.25000  0.07900  Biso   1.000  Cu
  Cu20     1.0000 0.25000  0.25000  0.95691  Biso   1.000  Cu
  Cu21     1.0000 0.75000  0.75000  0.57900  Biso   1.000  Cu
  Cu22     1.0000 0.75000  0.75000  0.45691  Biso   1.000  Cu
  Cu23     1.0000 0.75000  0.75000  0.92100  Biso   1.000  Cu
  Cu24     1.0000 0.75000  0.75000  0.04309  Biso   1.000  Cu
