data_QIBTAW_charged
_audit_creation_date              2014-07-02
_audit_creation_method            'Materials Studio'
_symmetry_space_group_name_H-M    'P1'
_symmetry_Int_Tables_number       1
_symmetry_cell_setting            triclinic
loop_
_symmetry_equiv_pos_as_xyz
  x,y,z
_cell_length_a                    15.1340
_cell_length_b                    22.4310
_cell_length_c                    47.6210
_cell_angle_alpha                 90.0000
_cell_angle_beta                  90.0000
_cell_angle_gamma                 91.9470
loop_
_atom_site_label
_atom_site_type_symbol
_atom_site_fract_x
_atom_site_fract_y
_atom_site_fract_z
_atom_site_U_iso_or_equiv
_atom_site_adp_type
_atom_site_occupancy
La1    La    0.79804   0.58047   0.87363   0.01267  Uiso   1.00
La2    La    0.29341   0.07854   0.89153   0.01267  Uiso   1.00
La3    La    0.89847   0.10260   0.61935   0.01267  Uiso   1.00
La4    La    0.40640   0.09599   0.38102   0.01267  Uiso   1.00
La5    La    0.79804   0.08047   0.12637   0.01267  Uiso   1.00
La6    La    0.29341   0.57854   0.10847   0.01267  Uiso   1.00
La7    La    0.89847   0.60260   0.38065   0.01267  Uiso   1.00
La8    La    0.40640   0.59599   0.61898   0.01267  Uiso   1.00
H1     H     0.81450   0.70270   0.87180   0.01267  Uiso   1.00
H2     H     0.45690   0.03680   0.86960   0.01267  Uiso   1.00
H3     H     0.96820   0.22170   0.63710   0.01267  Uiso   1.00
H4     H     0.09370   0.14000   0.61450   0.01267  Uiso   1.00
H5     H     0.72980   0.16620   0.62430   0.01267  Uiso   1.00
H6     H     0.23170   0.02450   0.38360   0.01267  Uiso   1.00
H7     H     0.46380   0.98520   0.36350   0.01267  Uiso   1.00
H8     H     0.68610   0.76550   0.86900   0.01267  Uiso   1.00
H9     H     0.65360   0.70820   0.85130   0.01267  Uiso   1.00
H10    H     0.73930   0.74650   0.84160   0.01267  Uiso   1.00
H11    H     0.99310   0.68670   0.82910   0.01267  Uiso   1.00
H12    H     0.97100   0.72820   0.85530   0.01267  Uiso   1.00
H13    H     0.89330   0.70460   0.83500   0.01267  Uiso   1.00
H14    H     0.45120   0.94160   0.85030   0.01267  Uiso   1.00
H15    H     0.44400   0.99730   0.82960   0.01267  Uiso   1.00
H16    H     0.35630   0.96200   0.83990   0.01267  Uiso   1.00
H17    H     0.22530   0.88800   0.88230   0.01267  Uiso   1.00
H18    H     0.21570   0.90310   0.91500   0.01267  Uiso   1.00
H19    H     0.30740   0.91720   0.89920   0.01267  Uiso   1.00
H20    H     0.03550   0.27880   0.60270   0.01267  Uiso   1.00
H21    H     0.93260   0.28980   0.60720   0.01267  Uiso   1.00
H22    H     0.96370   0.24730   0.58240   0.01267  Uiso   1.00
H23    H     0.73850   0.00110   0.68870   0.01267  Uiso   1.00
H24    H     0.84430   0.00200   0.68890   0.01267  Uiso   1.00
H25    H     0.79080   0.96680   0.66470   0.01267  Uiso   1.00
H26    H     0.19340   0.07820   0.61080   0.01267  Uiso   1.00
H27    H     0.12010   0.03120   0.59940   0.01267  Uiso   1.00
H28    H     0.13540   0.03880   0.63250   0.01267  Uiso   1.00
H29    H     0.73030   0.23100   0.66070   0.01267  Uiso   1.00
H30    H     0.77050   0.25750   0.63210   0.01267  Uiso   1.00
H31    H     0.83500   0.23470   0.65610   0.01267  Uiso   1.00
H32    H     0.17460   0.98380   0.34910   0.01267  Uiso   1.00
H33    H     0.27490   0.97050   0.34130   0.01267  Uiso   1.00
H34    H     0.23030   0.02890   0.32930   0.01267  Uiso   1.00
H35    H     0.51660   0.91840   0.39150   0.01267  Uiso   1.00
H36    H     0.47290   0.95380   0.41690   0.01267  Uiso   1.00
H37    H     0.55380   0.98370   0.39970   0.01267  Uiso   1.00
H38    H     0.61570   0.56930   0.91940   0.01267  Uiso   1.00
H39    H     0.52640   0.57200   0.95880   0.01267  Uiso   1.00
H40    H     0.67500   0.44800   0.99590   0.01267  Uiso   1.00
H41    H     0.76390   0.44790   0.95630   0.01267  Uiso   1.00
H42    H     0.89760   0.53570   0.93970   0.01267  Uiso   1.00
H43    H     0.00940   0.53170   0.97290   0.01267  Uiso   1.00
H44    H     0.03030   0.71200   0.97140   0.01267  Uiso   1.00
H45    H     0.92080   0.71330   0.93750   0.01267  Uiso   1.00
H46    H     0.78640   0.67570   0.78480   0.01267  Uiso   1.00
H47    H     0.68550   0.67340   0.74840   0.01267  Uiso   1.00
H48    H     0.59050   0.51290   0.77580   0.01267  Uiso   1.00
H49    H     0.68690   0.52000   0.81340   0.01267  Uiso   1.00
H50    H     0.61630   0.47100   0.87000   0.01267  Uiso   1.00
H51    H     0.53710   0.38530   0.88310   0.01267  Uiso   1.00
H52    H     0.74820   0.28840   0.86240   0.01267  Uiso   1.00
H53    H     0.82390   0.37530   0.84920   0.01267  Uiso   1.00
H54    H     0.90350   0.43300   0.90920   0.01267  Uiso   1.00
H55    H     0.98950   0.34890   0.90930   0.01267  Uiso   1.00
H56    H     0.13360   0.42060   0.84560   0.01267  Uiso   1.00
H57    H     0.05800   0.50840   0.85030   0.01267  Uiso   1.00
H58    H     0.22610   0.22800   0.91730   0.01267  Uiso   1.00
H59    H     0.13090   0.30740   0.91860   0.01267  Uiso   1.00
H60    H     0.14540   0.31910   0.83390   0.01267  Uiso   1.00
H61    H     0.23130   0.23480   0.83360   0.01267  Uiso   1.00
H62    H     0.41120   0.22210   0.91880   0.01267  Uiso   1.00
H63    H     0.48530   0.31000   0.90600   0.01267  Uiso   1.00
H64    H     0.66680   0.21290   0.86590   0.01267  Uiso   1.00
H65    H     0.58570   0.12670   0.87730   0.01267  Uiso   1.00
H66    H     0.26900   0.70450   0.02200   0.01267  Uiso   1.00
H67    H     0.17220   0.69950   0.98450   0.01267  Uiso   1.00
H68    H     0.16560   0.55230   0.05290   0.01267  Uiso   1.00
H69    H     0.41400   0.42460   0.04910   0.01267  Uiso   1.00
H70    H     0.51900   0.42150   0.01390   0.01267  Uiso   1.00
H71    H     0.51810   0.60120   0.00830   0.01267  Uiso   1.00
H72    H     0.41190   0.60180   0.04310   0.01267  Uiso   1.00
H73    H     0.10780   0.10600   0.83640   0.01267  Uiso   1.00
H74    H     0.03170   0.12660   0.79550   0.01267  Uiso   1.00
H75    H     0.23410   0.06200   0.75080   0.01267  Uiso   1.00
H76    H     0.31120   0.04810   0.79220   0.01267  Uiso   1.00
H77    H     0.11140   0.13950   0.67570   0.01267  Uiso   1.00
H78    H     0.18590   0.13020   0.71790   0.01267  Uiso   1.00
H79    H     0.95250   0.08980   0.75580   0.01267  Uiso   1.00
H80    H     0.88070   0.10470   0.71340   0.01267  Uiso   1.00
H81    H     0.97110   0.94800   0.58570   0.01267  Uiso   1.00
H82    H     0.05760   0.86560   0.57900   0.01267  Uiso   1.00
H83    H     0.09120   0.85460   0.66310   0.01267  Uiso   1.00
H84    H     0.00700   0.93850   0.66850   0.01267  Uiso   1.00
H85    H     0.93260   0.97920   0.53020   0.01267  Uiso   1.00
H86    H     0.02390   0.98570   0.49150   0.01267  Uiso   1.00
H87    H     0.14380   0.13220   0.52470   0.01267  Uiso   1.00
H88    H     0.05200   0.12390   0.56330   0.01267  Uiso   1.00
H89    H     0.63060   0.05070   0.63160   0.01267  Uiso   1.00
H90    H     0.54560   0.96520   0.64240   0.01267  Uiso   1.00
H91    H     0.70630   0.86950   0.59320   0.01267  Uiso   1.00
H92    H     0.78670   0.95640   0.58200   0.01267  Uiso   1.00
H93    H     0.80000   0.25290   0.55550   0.01267  Uiso   1.00
H94    H     0.70290   0.25930   0.51820   0.01267  Uiso   1.00
H95    H     0.70280   0.07950   0.51100   0.01267  Uiso   1.00
H96    H     0.80020   0.07590   0.54860   0.01267  Uiso   1.00
H97    H     0.60110   0.11150   0.42380   0.01267  Uiso   1.00
H98    H     0.69220   0.10860   0.46270   0.01267  Uiso   1.00
H99    H     0.54650   0.23380   0.50010   0.01267  Uiso   1.00
H100   H     0.45560   0.23390   0.46100   0.01267  Uiso   1.00
H101   H     0.32200   0.14230   0.45380   0.01267  Uiso   1.00
H102   H     0.20680   0.14550   0.48550   0.01267  Uiso   1.00
H103   H     0.14390   0.97340   0.46760   0.01267  Uiso   1.00
H104   H     0.26190   0.97200   0.43700   0.01267  Uiso   1.00
H105   H     0.57940   0.70700   0.63060   0.01267  Uiso   1.00
H106   H     0.66400   0.79190   0.62010   0.01267  Uiso   1.00
H107   H     0.44710   0.89010   0.63080   0.01267  Uiso   1.00
H108   H     0.36520   0.80350   0.64040   0.01267  Uiso   1.00
H109   H     0.16810   0.66360   0.64140   0.01267  Uiso   1.00
H110   H     0.08910   0.74940   0.64990   0.01267  Uiso   1.00
H111   H     0.21430   0.82930   0.58400   0.01267  Uiso   1.00
H112   H     0.29290   0.74290   0.57690   0.01267  Uiso   1.00
H113   H     0.46510   0.67150   0.68780   0.01267  Uiso   1.00
H114   H     0.56300   0.67880   0.72500   0.01267  Uiso   1.00
H115   H     0.54160   0.49980   0.73480   0.01267  Uiso   1.00
H116   H     0.44350   0.49530   0.69770   0.01267  Uiso   1.00
H117   H     0.81450   0.20270   0.12820   0.01267  Uiso   1.00
H118   H     0.45690   0.53680   0.13040   0.01267  Uiso   1.00
H119   H     0.96820   0.72170   0.36290   0.01267  Uiso   1.00
H120   H     0.09370   0.64000   0.38550   0.01267  Uiso   1.00
H121   H     0.72980   0.66620   0.37570   0.01267  Uiso   1.00
H122   H     0.23170   0.52450   0.61640   0.01267  Uiso   1.00
H123   H     0.46380   0.48520   0.63650   0.01267  Uiso   1.00
H124   H     0.68610   0.26550   0.13100   0.01267  Uiso   1.00
H125   H     0.65360   0.20820   0.14870   0.01267  Uiso   1.00
H126   H     0.73930   0.24650   0.15840   0.01267  Uiso   1.00
H127   H     0.99310   0.18670   0.17090   0.01267  Uiso   1.00
H128   H     0.97100   0.22820   0.14470   0.01267  Uiso   1.00
H129   H     0.89330   0.20460   0.16500   0.01267  Uiso   1.00
H130   H     0.45120   0.44160   0.14970   0.01267  Uiso   1.00
H131   H     0.44400   0.49730   0.17040   0.01267  Uiso   1.00
H132   H     0.35630   0.46200   0.16010   0.01267  Uiso   1.00
H133   H     0.22530   0.38800   0.11770   0.01267  Uiso   1.00
H134   H     0.21570   0.40310   0.08500   0.01267  Uiso   1.00
H135   H     0.30740   0.41720   0.10080   0.01267  Uiso   1.00
H136   H     0.03550   0.77880   0.39730   0.01267  Uiso   1.00
H137   H     0.93260   0.78980   0.39280   0.01267  Uiso   1.00
H138   H     0.96370   0.74730   0.41760   0.01267  Uiso   1.00
H139   H     0.73850   0.50110   0.31130   0.01267  Uiso   1.00
H140   H     0.84430   0.50200   0.31110   0.01267  Uiso   1.00
H141   H     0.79080   0.46680   0.33530   0.01267  Uiso   1.00
H142   H     0.19340   0.57820   0.38920   0.01267  Uiso   1.00
H143   H     0.12010   0.53120   0.40060   0.01267  Uiso   1.00
H144   H     0.13540   0.53880   0.36750   0.01267  Uiso   1.00
H145   H     0.73030   0.73100   0.33930   0.01267  Uiso   1.00
H146   H     0.77050   0.75750   0.36790   0.01267  Uiso   1.00
H147   H     0.83500   0.73470   0.34390   0.01267  Uiso   1.00
H148   H     0.17460   0.48380   0.65090   0.01267  Uiso   1.00
H149   H     0.27490   0.47050   0.65870   0.01267  Uiso   1.00
H150   H     0.23030   0.52890   0.67070   0.01267  Uiso   1.00
H151   H     0.51660   0.41840   0.60850   0.01267  Uiso   1.00
H152   H     0.47290   0.45380   0.58310   0.01267  Uiso   1.00
H153   H     0.55380   0.48370   0.60030   0.01267  Uiso   1.00
H154   H     0.61570   0.06930   0.08060   0.01267  Uiso   1.00
H155   H     0.52640   0.07200   0.04120   0.01267  Uiso   1.00
H156   H     0.67500   0.94800   0.00410   0.01267  Uiso   1.00
H157   H     0.76390   0.94790   0.04370   0.01267  Uiso   1.00
H158   H     0.89760   0.03570   0.06030   0.01267  Uiso   1.00
H159   H     0.00940   0.03170   0.02710   0.01267  Uiso   1.00
H160   H     0.03030   0.21200   0.02860   0.01267  Uiso   1.00
H161   H     0.92080   0.21330   0.06250   0.01267  Uiso   1.00
H162   H     0.78640   0.17570   0.21520   0.01267  Uiso   1.00
H163   H     0.68550   0.17340   0.25160   0.01267  Uiso   1.00
H164   H     0.59050   0.01290   0.22420   0.01267  Uiso   1.00
H165   H     0.68690   0.02000   0.18660   0.01267  Uiso   1.00
H166   H     0.61630   0.97100   0.13000   0.01267  Uiso   1.00
H167   H     0.53710   0.88530   0.11690   0.01267  Uiso   1.00
H168   H     0.74820   0.78840   0.13760   0.01267  Uiso   1.00
H169   H     0.82390   0.87530   0.15080   0.01267  Uiso   1.00
H170   H     0.90350   0.93300   0.09080   0.01267  Uiso   1.00
H171   H     0.98950   0.84890   0.09070   0.01267  Uiso   1.00
H172   H     0.13360   0.92060   0.15440   0.01267  Uiso   1.00
H173   H     0.05800   0.00840   0.14970   0.01267  Uiso   1.00
H174   H     0.22610   0.72800   0.08270   0.01267  Uiso   1.00
H175   H     0.13090   0.80740   0.08140   0.01267  Uiso   1.00
H176   H     0.14540   0.81910   0.16610   0.01267  Uiso   1.00
H177   H     0.23130   0.73480   0.16640   0.01267  Uiso   1.00
H178   H     0.41120   0.72210   0.08120   0.01267  Uiso   1.00
H179   H     0.48530   0.81000   0.09400   0.01267  Uiso   1.00
H180   H     0.66680   0.71290   0.13410   0.01267  Uiso   1.00
H181   H     0.58570   0.62670   0.12270   0.01267  Uiso   1.00
H182   H     0.26900   0.20450   0.97800   0.01267  Uiso   1.00
H183   H     0.17220   0.19950   0.01550   0.01267  Uiso   1.00
H184   H     0.16560   0.05230   0.94710   0.01267  Uiso   1.00
H185   H     0.41400   0.92460   0.95090   0.01267  Uiso   1.00
H186   H     0.51900   0.92150   0.98610   0.01267  Uiso   1.00
H187   H     0.51810   0.10120   0.99170   0.01267  Uiso   1.00
H188   H     0.41190   0.10180   0.95690   0.01267  Uiso   1.00
H189   H     0.10780   0.60600   0.16360   0.01267  Uiso   1.00
H190   H     0.03170   0.62660   0.20450   0.01267  Uiso   1.00
H191   H     0.23410   0.56200   0.24920   0.01267  Uiso   1.00
H192   H     0.31120   0.54810   0.20780   0.01267  Uiso   1.00
H193   H     0.11140   0.63950   0.32430   0.01267  Uiso   1.00
H194   H     0.18590   0.63020   0.28210   0.01267  Uiso   1.00
H195   H     0.95250   0.58980   0.24420   0.01267  Uiso   1.00
H196   H     0.88070   0.60470   0.28660   0.01267  Uiso   1.00
H197   H     0.97110   0.44800   0.41430   0.01267  Uiso   1.00
H198   H     0.05760   0.36560   0.42100   0.01267  Uiso   1.00
H199   H     0.09120   0.35460   0.33690   0.01267  Uiso   1.00
H200   H     0.00700   0.43850   0.33150   0.01267  Uiso   1.00
H201   H     0.93260   0.47920   0.46980   0.01267  Uiso   1.00
H202   H     0.02390   0.48570   0.50850   0.01267  Uiso   1.00
H203   H     0.14380   0.63220   0.47530   0.01267  Uiso   1.00
H204   H     0.05200   0.62390   0.43670   0.01267  Uiso   1.00
H205   H     0.63060   0.55070   0.36840   0.01267  Uiso   1.00
H206   H     0.54560   0.46520   0.35760   0.01267  Uiso   1.00
H207   H     0.70630   0.36950   0.40680   0.01267  Uiso   1.00
H208   H     0.78670   0.45640   0.41800   0.01267  Uiso   1.00
H209   H     0.80000   0.75290   0.44450   0.01267  Uiso   1.00
H210   H     0.70290   0.75930   0.48180   0.01267  Uiso   1.00
H211   H     0.70280   0.57950   0.48900   0.01267  Uiso   1.00
H212   H     0.80020   0.57590   0.45140   0.01267  Uiso   1.00
H213   H     0.60110   0.61150   0.57620   0.01267  Uiso   1.00
H214   H     0.69220   0.60860   0.53730   0.01267  Uiso   1.00
H215   H     0.54650   0.73380   0.49990   0.01267  Uiso   1.00
H216   H     0.45560   0.73390   0.53900   0.01267  Uiso   1.00
H217   H     0.32200   0.64230   0.54620   0.01267  Uiso   1.00
H218   H     0.20680   0.64550   0.51450   0.01267  Uiso   1.00
H219   H     0.14390   0.47340   0.53240   0.01267  Uiso   1.00
H220   H     0.26190   0.47200   0.56300   0.01267  Uiso   1.00
H221   H     0.57940   0.20700   0.36940   0.01267  Uiso   1.00
H222   H     0.66400   0.29190   0.37990   0.01267  Uiso   1.00
H223   H     0.44710   0.39010   0.36920   0.01267  Uiso   1.00
H224   H     0.36520   0.30350   0.35960   0.01267  Uiso   1.00
H225   H     0.16810   0.16360   0.35860   0.01267  Uiso   1.00
H226   H     0.08910   0.24940   0.35010   0.01267  Uiso   1.00
H227   H     0.21430   0.32930   0.41600   0.01267  Uiso   1.00
H228   H     0.29290   0.24290   0.42310   0.01267  Uiso   1.00
H229   H     0.46510   0.17150   0.31220   0.01267  Uiso   1.00
H230   H     0.56300   0.17880   0.27500   0.01267  Uiso   1.00
H231   H     0.54160   0.99980   0.26520   0.01267  Uiso   1.00
H232   H     0.44350   0.99530   0.30230   0.01267  Uiso   1.00
C1     C     0.70540   0.73170   0.85780   0.01267  Uiso   1.00
C2     C     0.94950   0.69470   0.84370   0.01267  Uiso   1.00
C3     C     0.41600   0.97590   0.84530   0.01267  Uiso   1.00
C4     C     0.24290   0.91600   0.89720   0.01267  Uiso   1.00
C5     C     0.97580   0.26050   0.60160   0.01267  Uiso   1.00
C6     C     0.79170   0.00200   0.67690   0.01267  Uiso   1.00
C7     C     0.13490   0.05970   0.61440   0.01267  Uiso   1.00
C8     C     0.77780   0.22770   0.64690   0.01267  Uiso   1.00
C9     C     0.23340   0.00190   0.34540   0.01267  Uiso   1.00
C10    C     0.50050   0.95780   0.39830   0.01267  Uiso   1.00
C11    C     0.62760   0.54470   0.93507   0.01267  Uiso   1.00
C12    C     0.57480   0.54610   0.95847   0.01267  Uiso   1.00
C13    C     0.59040   0.51060   0.98185   0.01267  Uiso   1.00
C14    C     0.66230   0.47330   0.98048   0.01267  Uiso   1.00
C15    C     0.71460   0.47300   0.95691   0.01267  Uiso   1.00
C16    C     0.92490   0.57160   0.94650   0.01267  Uiso   1.00
C17    C     0.99200   0.56920   0.96590   0.01267  Uiso   1.00
C18    C     0.03450   0.62180   0.97521   0.01267  Uiso   1.00
C19    C     0.00440   0.67540   0.96480   0.01267  Uiso   1.00
C20    C     0.93810   0.67640   0.94520   0.01267  Uiso   1.00
C21    C     0.74590   0.64270   0.78290   0.01267  Uiso   1.00
C22    C     0.68590   0.64120   0.76130   0.01267  Uiso   1.00
C23    C     0.62530   0.59320   0.75801   0.01267  Uiso   1.00
C24    C     0.62900   0.54700   0.77765   0.01267  Uiso   1.00
C25    C     0.68790   0.55050   0.79956   0.01267  Uiso   1.00
C26    C     0.64310   0.43340   0.86890   0.01267  Uiso   1.00
C27    C     0.59630   0.38260   0.87670   0.01267  Uiso   1.00
C28    C     0.63500   0.32680   0.87530   0.01267  Uiso   1.00
C29    C     0.72060   0.32560   0.86450   0.01267  Uiso   1.00
C30    C     0.76580   0.37700   0.85660   0.01267  Uiso   1.00
C31    C     0.95360   0.43110   0.89720   0.01267  Uiso   1.00
C32    C     0.00290   0.38060   0.89666   0.01267  Uiso   1.00
C33    C     0.07210   0.37570   0.87762   0.01267  Uiso   1.00
C34    C     0.08940   0.42360   0.85960   0.01267  Uiso   1.00
C35    C     0.04320   0.47500   0.86190   0.01267  Uiso   1.00
C36    C     0.20920   0.24690   0.90040   0.01267  Uiso   1.00
C37    C     0.15290   0.29400   0.90114   0.01267  Uiso   1.00
C38    C     0.12820   0.32200   0.87638   0.01267  Uiso   1.00
C39    C     0.16020   0.30030   0.85112   0.01267  Uiso   1.00
C40    C     0.21350   0.25160   0.85095   0.01267  Uiso   1.00
C41    C     0.46210   0.22070   0.90720   0.01267  Uiso   1.00
C42    C     0.50710   0.27290   0.90010   0.01267  Uiso   1.00
C43    C     0.58440   0.27170   0.88418   0.01267  Uiso   1.00
C44    C     0.61330   0.21560   0.87620   0.01267  Uiso   1.00
C45    C     0.56530   0.16430   0.88300   0.01267  Uiso   1.00
C46    C     0.22640   0.67250   0.02082   0.01267  Uiso   1.00
C47    C     0.16870   0.66960   0.99866   0.01267  Uiso   1.00
C48    C     0.10460   0.62350   0.99661   0.01267  Uiso   1.00
C49    C     0.10520   0.57990   0.01751   0.01267  Uiso   1.00
C50    C     0.16500   0.58310   0.03920   0.01267  Uiso   1.00
C51    C     0.43540   0.46060   0.04060   0.01267  Uiso   1.00
C52    C     0.49690   0.45890   0.01940   0.01267  Uiso   1.00
C53    C     0.52760   0.51050   0.00576   0.01267  Uiso   1.00
C54    C     0.49630   0.56460   0.01602   0.01267  Uiso   1.00
C55    C     0.43450   0.56490   0.03706   0.01267  Uiso   1.00
C56    C     0.13480   0.09940   0.81869   0.01267  Uiso   1.00
C57    C     0.08880   0.11030   0.79442   0.01267  Uiso   1.00
C58    C     0.12500   0.09780   0.76823   0.01267  Uiso   1.00
C59    C     0.20840   0.07310   0.76816   0.01267  Uiso   1.00
C60    C     0.25420   0.06450   0.79274   0.01267  Uiso   1.00
C61    C     0.07900   0.13100   0.69236   0.01267  Uiso   1.00
C62    C     0.12350   0.12420   0.71731   0.01267  Uiso   1.00
C63    C     0.07760   0.10870   0.74171   0.01267  Uiso   1.00
C64    C     0.98590   0.10110   0.73964   0.01267  Uiso   1.00
C65    C     0.94310   0.10980   0.71445   0.01267  Uiso   1.00
C66    C     0.99700   0.92910   0.60136   0.01267  Uiso   1.00
C67    C     0.04800   0.88020   0.59745   0.01267  Uiso   1.00
C68    C     0.08590   0.85170   0.62037   0.01267  Uiso   1.00
C69    C     0.06830   0.87380   0.64705   0.01267  Uiso   1.00
C70    C     0.01790   0.92340   0.65024   0.01267  Uiso   1.00
C71    C     0.97670   0.01030   0.52919   0.01267  Uiso   1.00
C72    C     0.03150   0.01410   0.50624   0.01267  Uiso   1.00
C73    C     0.09750   0.05820   0.50393   0.01267  Uiso   1.00
C74    C     0.10180   0.09980   0.52572   0.01267  Uiso   1.00
C75    C     0.04680   0.09540   0.54866   0.01267  Uiso   1.00
C76    C     0.64480   0.01350   0.62353   0.01267  Uiso   1.00
C77    C     0.59480   0.96280   0.63020   0.01267  Uiso   1.00
C78    C     0.61680   0.90780   0.61878   0.01267  Uiso   1.00
C79    C     0.68940   0.90640   0.60096   0.01267  Uiso   1.00
C80    C     0.73740   0.95780   0.59437   0.01267  Uiso   1.00
C81    C     0.77950   0.21750   0.54630   0.01267  Uiso   1.00
C82    C     0.72220   0.22150   0.52406   0.01267  Uiso   1.00
C83    C     0.69240   0.17010   0.51005   0.01267  Uiso   1.00
C84    C     0.72240   0.11550   0.51991   0.01267  Uiso   1.00
C85    C     0.77990   0.11320   0.54234   0.01267  Uiso   1.00
C86    C     0.58980   0.13610   0.43955   0.01267  Uiso   1.00
C87    C     0.64430   0.13490   0.46258   0.01267  Uiso   1.00
C88    C     0.63080   0.17140   0.48572   0.01267  Uiso   1.00
C89    C     0.55850   0.20840   0.48466   0.01267  Uiso   1.00
C90    C     0.50440   0.20830   0.46147   0.01267  Uiso   1.00
C91    C     0.28680   0.10730   0.45742   0.01267  Uiso   1.00
C92    C     0.21780   0.10920   0.47604   0.01267  Uiso   1.00
C93    C     0.16330   0.05900   0.48130   0.01267  Uiso   1.00
C94    C     0.18110   0.00800   0.46562   0.01267  Uiso   1.00
C95    C     0.25120   0.00710   0.44742   0.01267  Uiso   1.00
C96    C     0.55250   0.74470   0.63030   0.01267  Uiso   1.00
C97    C     0.60310   0.79510   0.62440   0.01267  Uiso   1.00
C98    C     0.56530   0.85120   0.62480   0.01267  Uiso   1.00
C99    C     0.47520   0.85280   0.63070   0.01267  Uiso   1.00
C100   C     0.42640   0.80140   0.63620   0.01267  Uiso   1.00
C101   C     0.17590   0.69750   0.62957   0.01267  Uiso   1.00
C102   C     0.12900   0.74820   0.63456   0.01267  Uiso   1.00
C103   C     0.14050   0.79770   0.61690   0.01267  Uiso   1.00
C104   C     0.20330   0.79550   0.59560   0.01267  Uiso   1.00
C105   C     0.24960   0.74430   0.59131   0.01267  Uiso   1.00
C106   C     0.48010   0.63650   0.69780   0.01267  Uiso   1.00
C107   C     0.53850   0.64080   0.71980   0.01267  Uiso   1.00
C108   C     0.56260   0.59000   0.73471   0.01267  Uiso   1.00
C109   C     0.52600   0.53550   0.72566   0.01267  Uiso   1.00
C110   C     0.46750   0.53290   0.70361   0.01267  Uiso   1.00
C111   C     0.70540   0.23170   0.14220   0.01267  Uiso   1.00
C112   C     0.94950   0.19470   0.15630   0.01267  Uiso   1.00
C113   C     0.41600   0.47590   0.15470   0.01267  Uiso   1.00
C114   C     0.24290   0.41600   0.10280   0.01267  Uiso   1.00
C115   C     0.97580   0.76050   0.39840   0.01267  Uiso   1.00
C116   C     0.79170   0.50200   0.32310   0.01267  Uiso   1.00
C117   C     0.13490   0.55970   0.38560   0.01267  Uiso   1.00
C118   C     0.77780   0.72770   0.35310   0.01267  Uiso   1.00
C119   C     0.23340   0.50190   0.65460   0.01267  Uiso   1.00
C120   C     0.50050   0.45780   0.60170   0.01267  Uiso   1.00
C121   C     0.62760   0.04470   0.06493   0.01267  Uiso   1.00
C122   C     0.57480   0.04610   0.04153   0.01267  Uiso   1.00
C123   C     0.59040   0.01060   0.01815   0.01267  Uiso   1.00
C124   C     0.66230   0.97330   0.01952   0.01267  Uiso   1.00
C125   C     0.71460   0.97300   0.04309   0.01267  Uiso   1.00
C126   C     0.92490   0.07160   0.05350   0.01267  Uiso   1.00
C127   C     0.99200   0.06920   0.03410   0.01267  Uiso   1.00
C128   C     0.03450   0.12180   0.02479   0.01267  Uiso   1.00
C129   C     0.00440   0.17540   0.03520   0.01267  Uiso   1.00
C130   C     0.93810   0.17640   0.05480   0.01267  Uiso   1.00
C131   C     0.74590   0.14270   0.21710   0.01267  Uiso   1.00
C132   C     0.68590   0.14120   0.23870   0.01267  Uiso   1.00
C133   C     0.62530   0.09320   0.24199   0.01267  Uiso   1.00
C134   C     0.62900   0.04700   0.22235   0.01267  Uiso   1.00
C135   C     0.68790   0.05050   0.20044   0.01267  Uiso   1.00
C136   C     0.64310   0.93340   0.13110   0.01267  Uiso   1.00
C137   C     0.59630   0.88260   0.12330   0.01267  Uiso   1.00
C138   C     0.63500   0.82680   0.12470   0.01267  Uiso   1.00
C139   C     0.72060   0.82560   0.13550   0.01267  Uiso   1.00
C140   C     0.76580   0.87700   0.14340   0.01267  Uiso   1.00
C141   C     0.95360   0.93110   0.10280   0.01267  Uiso   1.00
C142   C     0.00290   0.88060   0.10334   0.01267  Uiso   1.00
C143   C     0.07210   0.87570   0.12238   0.01267  Uiso   1.00
C144   C     0.08940   0.92360   0.14040   0.01267  Uiso   1.00
C145   C     0.04320   0.97500   0.13810   0.01267  Uiso   1.00
C146   C     0.20920   0.74690   0.09960   0.01267  Uiso   1.00
C147   C     0.15290   0.79400   0.09886   0.01267  Uiso   1.00
C148   C     0.12820   0.82200   0.12362   0.01267  Uiso   1.00
C149   C     0.16020   0.80030   0.14888   0.01267  Uiso   1.00
C150   C     0.21350   0.75160   0.14905   0.01267  Uiso   1.00
C151   C     0.46210   0.72070   0.09280   0.01267  Uiso   1.00
C152   C     0.50710   0.77290   0.09990   0.01267  Uiso   1.00
C153   C     0.58440   0.77170   0.11582   0.01267  Uiso   1.00
C154   C     0.61330   0.71560   0.12380   0.01267  Uiso   1.00
C155   C     0.56530   0.66430   0.11700   0.01267  Uiso   1.00
C156   C     0.22640   0.17250   0.97918   0.01267  Uiso   1.00
C157   C     0.16870   0.16960   0.00134   0.01267  Uiso   1.00
C158   C     0.10460   0.12350   0.00339   0.01267  Uiso   1.00
C159   C     0.10520   0.07990   0.98249   0.01267  Uiso   1.00
C160   C     0.16500   0.08310   0.96080   0.01267  Uiso   1.00
C161   C     0.43540   0.96060   0.95940   0.01267  Uiso   1.00
C162   C     0.49690   0.95890   0.98060   0.01267  Uiso   1.00
C163   C     0.52760   0.01050   0.99424   0.01267  Uiso   1.00
C164   C     0.49630   0.06460   0.98398   0.01267  Uiso   1.00
C165   C     0.43450   0.06490   0.96294   0.01267  Uiso   1.00
C166   C     0.13480   0.59940   0.18131   0.01267  Uiso   1.00
C167   C     0.08880   0.61030   0.20558   0.01267  Uiso   1.00
C168   C     0.12500   0.59780   0.23177   0.01267  Uiso   1.00
C169   C     0.20840   0.57310   0.23184   0.01267  Uiso   1.00
C170   C     0.25420   0.56450   0.20726   0.01267  Uiso   1.00
C171   C     0.07900   0.63100   0.30764   0.01267  Uiso   1.00
C172   C     0.12350   0.62420   0.28269   0.01267  Uiso   1.00
C173   C     0.07760   0.60870   0.25829   0.01267  Uiso   1.00
C174   C     0.98590   0.60110   0.26036   0.01267  Uiso   1.00
C175   C     0.94310   0.60980   0.28555   0.01267  Uiso   1.00
C176   C     0.99700   0.42910   0.39864   0.01267  Uiso   1.00
C177   C     0.04800   0.38020   0.40255   0.01267  Uiso   1.00
C178   C     0.08590   0.35170   0.37963   0.01267  Uiso   1.00
C179   C     0.06830   0.37380   0.35295   0.01267  Uiso   1.00
C180   C     0.01790   0.42340   0.34976   0.01267  Uiso   1.00
C181   C     0.97670   0.51030   0.47081   0.01267  Uiso   1.00
C182   C     0.03150   0.51410   0.49376   0.01267  Uiso   1.00
C183   C     0.09750   0.55820   0.49607   0.01267  Uiso   1.00
C184   C     0.10180   0.59980   0.47428   0.01267  Uiso   1.00
C185   C     0.04680   0.59540   0.45134   0.01267  Uiso   1.00
C186   C     0.64480   0.51350   0.37647   0.01267  Uiso   1.00
C187   C     0.59480   0.46280   0.36980   0.01267  Uiso   1.00
C188   C     0.61680   0.40780   0.38122   0.01267  Uiso   1.00
C189   C     0.68940   0.40640   0.39904   0.01267  Uiso   1.00
C190   C     0.73740   0.45780   0.40563   0.01267  Uiso   1.00
C191   C     0.77950   0.71750   0.45370   0.01267  Uiso   1.00
C192   C     0.72220   0.72150   0.47594   0.01267  Uiso   1.00
C193   C     0.69240   0.67010   0.48995   0.01267  Uiso   1.00
C194   C     0.72240   0.61550   0.48009   0.01267  Uiso   1.00
C195   C     0.77990   0.61320   0.45766   0.01267  Uiso   1.00
C196   C     0.58980   0.63610   0.56045   0.01267  Uiso   1.00
C197   C     0.64430   0.63490   0.53742   0.01267  Uiso   1.00
C198   C     0.63080   0.67140   0.51428   0.01267  Uiso   1.00
C199   C     0.55850   0.70840   0.51534   0.01267  Uiso   1.00
C200   C     0.50440   0.70830   0.53853   0.01267  Uiso   1.00
C201   C     0.28680   0.60730   0.54258   0.01267  Uiso   1.00
C202   C     0.21780   0.60920   0.52396   0.01267  Uiso   1.00
C203   C     0.16330   0.55900   0.51870   0.01267  Uiso   1.00
C204   C     0.18110   0.50800   0.53438   0.01267  Uiso   1.00
C205   C     0.25120   0.50710   0.55258   0.01267  Uiso   1.00
C206   C     0.55250   0.24470   0.36970   0.01267  Uiso   1.00
C207   C     0.60310   0.29510   0.37560   0.01267  Uiso   1.00
C208   C     0.56530   0.35120   0.37520   0.01267  Uiso   1.00
C209   C     0.47520   0.35280   0.36930   0.01267  Uiso   1.00
C210   C     0.42640   0.30140   0.36380   0.01267  Uiso   1.00
C211   C     0.17590   0.19750   0.37043   0.01267  Uiso   1.00
C212   C     0.12900   0.24820   0.36544   0.01267  Uiso   1.00
C213   C     0.14050   0.29770   0.38310   0.01267  Uiso   1.00
C214   C     0.20330   0.29550   0.40440   0.01267  Uiso   1.00
C215   C     0.24960   0.24430   0.40869   0.01267  Uiso   1.00
C216   C     0.48010   0.13650   0.30220   0.01267  Uiso   1.00
C217   C     0.53850   0.14080   0.28020   0.01267  Uiso   1.00
C218   C     0.56260   0.09000   0.26529   0.01267  Uiso   1.00
C219   C     0.52600   0.03550   0.27434   0.01267  Uiso   1.00
C220   C     0.46750   0.03290   0.29639   0.01267  Uiso   1.00
N1     N     0.69700   0.50780   0.93462   0.01267  Uiso   1.00
N2     N     0.89720   0.62470   0.93684   0.01267  Uiso   1.00
N3     N     0.74740   0.59700   0.80163   0.01267  Uiso   1.00
N4     N     0.72700   0.43020   0.85962   0.01267  Uiso   1.00
N5     N     0.97690   0.47800   0.88065   0.01267  Uiso   1.00
N6     N     0.24020   0.22790   0.87548   0.01267  Uiso   1.00
N7     N     0.48950   0.16710   0.89786   0.01267  Uiso   1.00
N8     N     0.22320   0.63010   0.04103   0.01267  Uiso   1.00
N9     N     0.40520   0.51380   0.04938   0.01267  Uiso   1.00
N10    N     0.21780   0.07950   0.81762   0.01267  Uiso   1.00
N11    N     0.98980   0.12570   0.69123   0.01267  Uiso   1.00
N12    N     0.98390   0.95050   0.62755   0.01267  Uiso   1.00
N13    N     0.98490   0.05020   0.55039   0.01267  Uiso   1.00
N14    N     0.71360   0.01050   0.60567   0.01267  Uiso   1.00
N15    N     0.80730   0.16380   0.55533   0.01267  Uiso   1.00
N16    N     0.51970   0.17230   0.43929   0.01267  Uiso   1.00
N17    N     0.30520   0.05580   0.44418   0.01267  Uiso   1.00
N18    N     0.46490   0.74770   0.63569   0.01267  Uiso   1.00
N19    N     0.23240   0.69630   0.60789   0.01267  Uiso   1.00
N20    N     0.44350   0.58300   0.69014   0.01267  Uiso   1.00
N21    N     0.69700   0.00780   0.06538   0.01267  Uiso   1.00
N22    N     0.89720   0.12470   0.06316   0.01267  Uiso   1.00
N23    N     0.74740   0.09700   0.19837   0.01267  Uiso   1.00
N24    N     0.72700   0.93020   0.14038   0.01267  Uiso   1.00
N25    N     0.97690   0.97800   0.11935   0.01267  Uiso   1.00
N26    N     0.24020   0.72790   0.12452   0.01267  Uiso   1.00
N27    N     0.48950   0.66710   0.10214   0.01267  Uiso   1.00
N28    N     0.22320   0.13010   0.95897   0.01267  Uiso   1.00
N29    N     0.40520   0.01380   0.95062   0.01267  Uiso   1.00
N30    N     0.21780   0.57950   0.18238   0.01267  Uiso   1.00
N31    N     0.98980   0.62570   0.30877   0.01267  Uiso   1.00
N32    N     0.98390   0.45050   0.37245   0.01267  Uiso   1.00
N33    N     0.98490   0.55020   0.44961   0.01267  Uiso   1.00
N34    N     0.71360   0.51050   0.39433   0.01267  Uiso   1.00
N35    N     0.80730   0.66380   0.44467   0.01267  Uiso   1.00
N36    N     0.51970   0.67230   0.56071   0.01267  Uiso   1.00
N37    N     0.30520   0.55580   0.55582   0.01267  Uiso   1.00
N38    N     0.46490   0.24770   0.36431   0.01267  Uiso   1.00
N39    N     0.23240   0.19630   0.39211   0.01267  Uiso   1.00
N40    N     0.44350   0.08300   0.30986   0.01267  Uiso   1.00
Cl1    Cl    0.61350   0.58745   0.86293   0.01267  Uiso   1.00
Cl2    Cl    0.11030   0.10765   0.89306   0.01267  Uiso   1.00
Cl3    Cl    0.58690   0.09102   0.36677   0.01267  Uiso   1.00
Cl4    Cl    0.61350   0.08745   0.13707   0.01267  Uiso   1.00
Cl5    Cl    0.11030   0.60765   0.10694   0.01267  Uiso   1.00
Cl6    Cl    0.58690   0.59102   0.63323   0.01267  Uiso   1.00
O1     O     0.76100   0.69410   0.87505   0.01267  Uiso   1.00
O2     O     0.93620   0.64160   0.86139   0.01267  Uiso   1.00
O3     O     0.41080   0.01490   0.86881   0.01267  Uiso   1.00
O4     O     0.21290   0.97630   0.89003   0.01267  Uiso   1.00
O5     O     0.96950   0.20970   0.62045   0.01267  Uiso   1.00
O6     O     0.79370   0.05630   0.65952   0.01267  Uiso   1.00
O7     O     0.06830   0.10620   0.61518   0.01267  Uiso   1.00
O8     O     0.77410   0.16970   0.63482   0.01267  Uiso   1.00
O9     O     0.26280   0.03470   0.36966   0.01267  Uiso   1.00
O10    O     0.44080   0.98290   0.37952   0.01267  Uiso   1.00
O11    O     0.74730   0.50490   0.91141   0.01267  Uiso   1.00
O12    O     0.82800   0.62750   0.91904   0.01267  Uiso   1.00
O13    O     0.80930   0.59970   0.82248   0.01267  Uiso   1.00
O14    O     0.77480   0.47940   0.85216   0.01267  Uiso   1.00
O15    O     0.93280   0.52940   0.88396   0.01267  Uiso   1.00
O16    O     0.29700   0.18490   0.87503   0.01267  Uiso   1.00
O17    O     0.44200   0.11760   0.90396   0.01267  Uiso   1.00
O18    O     0.27780   0.63850   0.06299   0.01267  Uiso   1.00
O19    O     0.34300   0.51330   0.06937   0.01267  Uiso   1.00
O20    O     0.26430   0.06900   0.84115   0.01267  Uiso   1.00
O21    O     0.95000   0.13380   0.66617   0.01267  Uiso   1.00
O22    O     0.93370   0.99880   0.63126   0.01267  Uiso   1.00
O23    O     0.93620   0.04280   0.57351   0.01267  Uiso   1.00
O24    O     0.75960   0.06060   0.59936   0.01267  Uiso   1.00
O25    O     0.86390   0.16270   0.57645   0.01267  Uiso   1.00
O26    O     0.46720   0.17370   0.41730   0.01267  Uiso   1.00
O27    O     0.37600   0.05370   0.42763   0.01267  Uiso   1.00
O28    O     0.41430   0.69860   0.64126   0.01267  Uiso   1.00
O29    O     0.27440   0.64580   0.60224   0.01267  Uiso   1.00
O30    O     0.38720   0.57860   0.66891   0.01267  Uiso   1.00
O31    O     0.76100   0.19410   0.12495   0.01267  Uiso   1.00
O32    O     0.93620   0.14160   0.13861   0.01267  Uiso   1.00
O33    O     0.41080   0.51490   0.13119   0.01267  Uiso   1.00
O34    O     0.21290   0.47630   0.10997   0.01267  Uiso   1.00
O35    O     0.96950   0.70970   0.37955   0.01267  Uiso   1.00
O36    O     0.79370   0.55630   0.34048   0.01267  Uiso   1.00
O37    O     0.06830   0.60620   0.38482   0.01267  Uiso   1.00
O38    O     0.77410   0.66970   0.36518   0.01267  Uiso   1.00
O39    O     0.26280   0.53470   0.63034   0.01267  Uiso   1.00
O40    O     0.44080   0.48290   0.62048   0.01267  Uiso   1.00
O41    O     0.74730   0.00490   0.08859   0.01267  Uiso   1.00
O42    O     0.82800   0.12750   0.08096   0.01267  Uiso   1.00
O43    O     0.80930   0.09970   0.17752   0.01267  Uiso   1.00
O44    O     0.77480   0.97940   0.14784   0.01267  Uiso   1.00
O45    O     0.93280   0.02940   0.11604   0.01267  Uiso   1.00
O46    O     0.29700   0.68490   0.12497   0.01267  Uiso   1.00
O47    O     0.44200   0.61760   0.09604   0.01267  Uiso   1.00
O48    O     0.27780   0.13850   0.93701   0.01267  Uiso   1.00
O49    O     0.34300   0.01330   0.93063   0.01267  Uiso   1.00
O50    O     0.26430   0.56900   0.15885   0.01267  Uiso   1.00
O51    O     0.95000   0.63380   0.33383   0.01267  Uiso   1.00
O52    O     0.93370   0.49880   0.36874   0.01267  Uiso   1.00
O53    O     0.93620   0.54280   0.42649   0.01267  Uiso   1.00
O54    O     0.75960   0.56060   0.40064   0.01267  Uiso   1.00
O55    O     0.86390   0.66270   0.42355   0.01267  Uiso   1.00
O56    O     0.46720   0.67370   0.58270   0.01267  Uiso   1.00
O57    O     0.37600   0.55370   0.57237   0.01267  Uiso   1.00
O58    O     0.41430   0.19860   0.35874   0.01267  Uiso   1.00
O59    O     0.27440   0.14580   0.39776   0.01267  Uiso   1.00
O60    O     0.38720   0.07860   0.33109   0.01267  Uiso   1.00
B1     B     0.67260   0.92420   0.48380   0.01267  Uiso   1.00
H233   H     0.85490   0.90170   0.49580   0.01267  Uiso   1.00
H234   H     0.92360   0.83700   0.52680   0.01267  Uiso   1.00
H235   H     0.83780   0.77670   0.55670   0.01267  Uiso   1.00
H236   H     0.68460   0.78160   0.55610   0.01267  Uiso   1.00
H237   H     0.61670   0.84590   0.52480   0.01267  Uiso   1.00
H238   H     0.81600   0.00180   0.49680   0.01267  Uiso   1.00
H239   H     0.90240   0.07030   0.47060   0.01267  Uiso   1.00
H240   H     0.86720   0.08770   0.42370   0.01267  Uiso   1.00
H241   H     0.75170   0.03350   0.40240   0.01267  Uiso   1.00
H242   H     0.67020   0.96260   0.42830   0.01267  Uiso   1.00
H243   H     0.72110   0.85780   0.43800   0.01267  Uiso   1.00
H244   H     0.64480   0.79500   0.40670   0.01267  Uiso   1.00
H245   H     0.49700   0.76890   0.41470   0.01267  Uiso   1.00
H246   H     0.42670   0.80420   0.45480   0.01267  Uiso   1.00
H247   H     0.49980   0.87470   0.48330   0.01267  Uiso   1.00
H248   H     0.54480   0.00090   0.46700   0.01267  Uiso   1.00
H249   H     0.45980   0.07250   0.48890   0.01267  Uiso   1.00
H250   H     0.45740   0.07740   0.53770   0.01267  Uiso   1.00
H251   H     0.54760   0.01740   0.56430   0.01267  Uiso   1.00
H252   H     0.64010   0.95050   0.54190   0.01267  Uiso   1.00
C221   C     0.72760   0.88200   0.50651   0.01267  Uiso   1.00
C222   C     0.81910   0.87740   0.50797   0.01267  Uiso   1.00
C223   C     0.86100   0.83870   0.52649   0.01267  Uiso   1.00
C224   C     0.81010   0.80320   0.54417   0.01267  Uiso   1.00
C225   C     0.71960   0.80590   0.54377   0.01267  Uiso   1.00
C226   C     0.67940   0.84480   0.52498   0.01267  Uiso   1.00
C227   C     0.73510   0.97220   0.46547   0.01267  Uiso   1.00
C228   C     0.80340   0.00680   0.47737   0.01267  Uiso   1.00
C229   C     0.85440   0.04890   0.46195   0.01267  Uiso   1.00
C230   C     0.83400   0.05870   0.43416   0.01267  Uiso   1.00
C231   C     0.76580   0.02680   0.42151   0.01267  Uiso   1.00
C232   C     0.71740   0.98430   0.43726   0.01267  Uiso   1.00
C233   C     0.61820   0.87770   0.46330   0.01267  Uiso   1.00
C234   C     0.65970   0.84980   0.44085   0.01267  Uiso   1.00
C235   C     0.61500   0.81060   0.42246   0.01267  Uiso   1.00
C236   C     0.52800   0.79490   0.42734   0.01267  Uiso   1.00
C237   C     0.48570   0.81700   0.45053   0.01267  Uiso   1.00
C238   C     0.53050   0.85870   0.46782   0.01267  Uiso   1.00
C239   C     0.60420   0.96800   0.50165   0.01267  Uiso   1.00
C240   C     0.54760   0.00470   0.48682   0.01267  Uiso   1.00
C241   C     0.49480   0.04680   0.49982   0.01267  Uiso   1.00
C242   C     0.49460   0.05020   0.52860   0.01267  Uiso   1.00
C243   C     0.54780   0.01470   0.54435   0.01267  Uiso   1.00
C244   C     0.60280   0.97430   0.53080   0.01267  Uiso   1.00
B2     B     0.14980   0.30720   0.51890   0.01267  Uiso   1.00
H253   H     0.29710   0.24990   0.49890   0.01267  Uiso   1.00
H254   H     0.38640   0.17530   0.51710   0.01267  Uiso   1.00
H255   H     0.35960   0.13820   0.56180   0.01267  Uiso   1.00
H256   H     0.24300   0.17200   0.58850   0.01267  Uiso   1.00
H257   H     0.15500   0.24720   0.57040   0.01267  Uiso   1.00
H258   H     0.31770   0.36210   0.52260   0.01267  Uiso   1.00
H259   H     0.38670   0.44540   0.50100   0.01267  Uiso   1.00
H260   H     0.31420   0.49450   0.46530   0.01267  Uiso   1.00
H261   H     0.17580   0.46030   0.45010   0.01267  Uiso   1.00
H262   H     0.10370   0.38090   0.47360   0.01267  Uiso   1.00
H263   H     0.15180   0.27790   0.46170   0.01267  Uiso   1.00
H264   H     0.06350   0.21530   0.43330   0.01267  Uiso   1.00
H265   H     0.93840   0.16750   0.45200   0.01267  Uiso   1.00
H266   H     0.90630   0.17680   0.49950   0.01267  Uiso   1.00
H267   H     0.99700   0.23720   0.52810   0.01267  Uiso   1.00
H268   H     0.97610   0.34710   0.52400   0.01267  Uiso   1.00
H269   H     0.90740   0.41110   0.55560   0.01267  Uiso   1.00
H270   H     0.98600   0.44750   0.59420   0.01267  Uiso   1.00
H271   H     0.12920   0.41840   0.60240   0.01267  Uiso   1.00
H272   H     0.20010   0.35900   0.56940   0.01267  Uiso   1.00
C245   C     0.21730   0.25810   0.53298   0.01267  Uiso   1.00
C246   C     0.28600   0.23500   0.51730   0.01267  Uiso   1.00
C247   C     0.33940   0.19010   0.52807   0.01267  Uiso   1.00
C248   C     0.32300   0.16800   0.55441   0.01267  Uiso   1.00
C249   C     0.25470   0.18820   0.57039   0.01267  Uiso   1.00
C250   C     0.20240   0.23320   0.55939   0.01267  Uiso   1.00
C251   C     0.20300   0.36120   0.50041   0.01267  Uiso   1.00
C252   C     0.28740   0.38220   0.50809   0.01267  Uiso   1.00
C253   C     0.32940   0.43190   0.49520   0.01267  Uiso   1.00
C254   C     0.28650   0.46070   0.47400   0.01267  Uiso   1.00
C255   C     0.20410   0.44120   0.46530   0.01267  Uiso   1.00
C256   C     0.16210   0.39270   0.47904   0.01267  Uiso   1.00
C257   C     0.08400   0.26630   0.49818   0.01267  Uiso   1.00
C258   C     0.10180   0.25770   0.46973   0.01267  Uiso   1.00
C259   C     0.04890   0.22050   0.45257   0.01267  Uiso   1.00
C260   C     0.97580   0.19170   0.46372   0.01267  Uiso   1.00
C261   C     0.95640   0.19750   0.49169   0.01267  Uiso   1.00
C262   C     0.01060   0.23410   0.50870   0.01267  Uiso   1.00
C263   C     0.09650   0.34630   0.54255   0.01267  Uiso   1.00
C264   C     0.00900   0.36240   0.53960   0.01267  Uiso   1.00
C265   C     0.96680   0.40030   0.55856   0.01267  Uiso   1.00
C266   C     0.01330   0.42130   0.58138   0.01267  Uiso   1.00
C267   C     0.09860   0.40520   0.58607   0.01267  Uiso   1.00
C268   C     0.14020   0.36880   0.56642   0.01267  Uiso   1.00
B3     B     0.90820   0.22230   0.29380   0.01267  Uiso   1.00
H273   H     0.74470   0.26710   0.28280   0.01267  Uiso   1.00
H274   H     0.67860   0.31020   0.24390   0.01267  Uiso   1.00
H275   H     0.76230   0.32890   0.20360   0.01267  Uiso   1.00
H276   H     0.90930   0.30270   0.20200   0.01267  Uiso   1.00
H277   H     0.97180   0.25350   0.23990   0.01267  Uiso   1.00
H278   H     0.84010   0.33190   0.31110   0.01267  Uiso   1.00
H279   H     0.81860   0.37410   0.35500   0.01267  Uiso   1.00
H280   H     0.84780   0.32080   0.39570   0.01267  Uiso   1.00
H281   H     0.89260   0.22210   0.39200   0.01267  Uiso   1.00
H282   H     0.92220   0.18300   0.34790   0.01267  Uiso   1.00
H283   H     0.76830   0.15600   0.32040   0.01267  Uiso   1.00
H284   H     0.70140   0.06180   0.31280   0.01267  Uiso   1.00
H285   H     0.75950   0.99830   0.27950   0.01267  Uiso   1.00
H286   H     0.87960   0.02980   0.25210   0.01267  Uiso   1.00
H287   H     0.94360   0.12500   0.25910   0.01267  Uiso   1.00
H288   H     0.03830   0.13530   0.30300   0.01267  Uiso   1.00
H289   H     0.19170   0.14300   0.30690   0.01267  Uiso   1.00
H290   H     0.26530   0.23440   0.29920   0.01267  Uiso   1.00
H291   H     0.18490   0.31810   0.28810   0.01267  Uiso   1.00
H292   H     0.03170   0.30990   0.28470   0.01267  Uiso   1.00
C269   C     0.86740   0.25680   0.26664   0.01267  Uiso   1.00
C270   C     0.77920   0.27370   0.26640   0.01267  Uiso   1.00
C271   C     0.73900   0.29990   0.24320   0.01267  Uiso   1.00
C272   C     0.78820   0.31050   0.21940   0.01267  Uiso   1.00
C273   C     0.87500   0.29460   0.21840   0.01267  Uiso   1.00
C274   C     0.91280   0.26650   0.24146   0.01267  Uiso   1.00
C275   C     0.88340   0.25140   0.32384   0.01267  Uiso   1.00
C276   C     0.85250   0.30910   0.32739   0.01267  Uiso   1.00
C277   C     0.83920   0.33460   0.35374   0.01267  Uiso   1.00
C278   C     0.85570   0.30310   0.37778   0.01267  Uiso   1.00
C279   C     0.88390   0.24540   0.37561   0.01267  Uiso   1.00
C280   C     0.89930   0.22190   0.34897   0.01267  Uiso   1.00
C281   C     0.86400   0.15190   0.29060   0.01267  Uiso   1.00
C282   C     0.79150   0.13100   0.30630   0.01267  Uiso   1.00
C283   C     0.75150   0.07430   0.30200   0.01267  Uiso   1.00
C284   C     0.78550   0.03710   0.28210   0.01267  Uiso   1.00
C285   C     0.85660   0.05540   0.26600   0.01267  Uiso   1.00
C286   C     0.89470   0.11250   0.27040   0.01267  Uiso   1.00
C287   C     0.01560   0.22160   0.29340   0.01267  Uiso   1.00
C288   C     0.06720   0.17300   0.29990   0.01267  Uiso   1.00
C289   C     0.15940   0.17720   0.30230   0.01267  Uiso   1.00
C290   C     0.20270   0.23120   0.29780   0.01267  Uiso   1.00
C291   C     0.15530   0.28070   0.29120   0.01267  Uiso   1.00
C292   C     0.06340   0.27530   0.28920   0.01267  Uiso   1.00
B4     B     0.07160   0.37150   0.01330   0.01267  Uiso   1.00
H293   H     0.89730   0.31990   0.01510   0.01267  Uiso   1.00
H294   H     0.82910   0.23880   0.99220   0.01267  Uiso   1.00
H295   H     0.90520   0.18870   0.95750   0.01267  Uiso   1.00
H296   H     0.05060   0.21700   0.94680   0.01267  Uiso   1.00
H297   H     0.11870   0.29770   0.97030   0.01267  Uiso   1.00
H298   H     0.92500   0.43270   0.99420   0.01267  Uiso   1.00
H299   H     0.83870   0.50720   0.01290   0.01267  Uiso   1.00
H300   H     0.87520   0.54820   0.05650   0.01267  Uiso   1.00
H301   H     0.98800   0.50840   0.08320   0.01267  Uiso   1.00
H302   H     0.07100   0.43210   0.06470   0.01267  Uiso   1.00
H303   H     0.01720   0.31790   0.06330   0.01267  Uiso   1.00
H304   H     0.08560   0.25780   0.09610   0.01267  Uiso   1.00
H305   H     0.23600   0.24120   0.09270   0.01267  Uiso   1.00
H306   H     0.31550   0.27710   0.05400   0.01267  Uiso   1.00
H307   H     0.24570   0.33480   0.02050   0.01267  Uiso   1.00
H308   H     0.22160   0.44500   0.02290   0.01267  Uiso   1.00
H309   H     0.30860   0.50630   0.99350   0.01267  Uiso   1.00
H310   H     0.27080   0.51790   0.94680   0.01267  Uiso   1.00
H311   H     0.15210   0.46220   0.92770   0.01267  Uiso   1.00
H312   H     0.06680   0.40040   0.95720   0.01267  Uiso   1.00
C293   C     0.01600   0.31950   0.99538   0.01267  Uiso   1.00
C294   C     0.92950   0.29950   0.00120   0.01267  Uiso   1.00
C295   C     0.88790   0.25100   0.98750   0.01267  Uiso   1.00
C296   C     0.93330   0.22110   0.96710   0.01267  Uiso   1.00
C297   C     0.01900   0.23800   0.96070   0.01267  Uiso   1.00
C298   C     0.05930   0.28660   0.97480   0.01267  Uiso   1.00
C299   C     0.00530   0.42090   0.02775   0.01267  Uiso   1.00
C300   C     0.93740   0.44680   0.01267   0.01267  Uiso   1.00
C301   C     0.88670   0.49250   0.02341   0.01267  Uiso   1.00
C302   C     0.90750   0.51600   0.04936   0.01267  Uiso   1.00
C303   C     0.97480   0.49300   0.06501   0.01267  Uiso   1.00
C304   C     0.02350   0.44670   0.05392   0.01267  Uiso   1.00
C305   C     0.12370   0.33530   0.03801   0.01267  Uiso   1.00
C306   C     0.07820   0.31030   0.06109   0.01267  Uiso   1.00
C307   C     0.11910   0.27460   0.08100   0.01267  Uiso   1.00
C308   C     0.20760   0.26370   0.07870   0.01267  Uiso   1.00
C309   C     0.25480   0.28560   0.05610   0.01267  Uiso   1.00
C310   C     0.21230   0.32050   0.03615   0.01267  Uiso   1.00
C311   C     0.13600   0.41250   0.99314   0.01267  Uiso   1.00
C312   C     0.20740   0.44710   0.00347   0.01267  Uiso   1.00
C313   C     0.25870   0.48500   0.98604   0.01267  Uiso   1.00
C314   C     0.23700   0.49120   0.95830   0.01267  Uiso   1.00
C315   C     0.16650   0.45900   0.94702   0.01267  Uiso   1.00
C316   C     0.11680   0.42130   0.96485   0.01267  Uiso   1.00
B5     B     0.55270   0.75650   0.98350   0.01267  Uiso   1.00
H313   H     0.40460   0.68390   0.99460   0.01267  Uiso   1.00
H314   H     0.31910   0.61610   0.96800   0.01267  Uiso   1.00
H315   H     0.35200   0.60310   0.92070   0.01267  Uiso   1.00
H316   H     0.47310   0.65330   0.90070   0.01267  Uiso   1.00
H317   H     0.55790   0.72120   0.92750   0.01267  Uiso   1.00
H318   H     0.37310   0.78360   0.99480   0.01267  Uiso   1.00
H319   H     0.30690   0.84530   0.02770   0.01267  Uiso   1.00
H320   H     0.39510   0.90180   0.05850   0.01267  Uiso   1.00
H321   H     0.54830   0.89630   0.05670   0.01267  Uiso   1.00
H322   H     0.61300   0.83170   0.02480   0.01267  Uiso   1.00
H323   H     0.58490   0.72370   0.04070   0.01267  Uiso   1.00
H324   H     0.67890   0.65550   0.06150   0.01267  Uiso   1.00
H325   H     0.76270   0.59450   0.03320   0.01267  Uiso   1.00
H326   H     0.76770   0.60970   0.98500   0.01267  Uiso   1.00
H327   H     0.67910   0.68130   0.96430   0.01267  Uiso   1.00
H328   H     0.72790   0.80530   0.98370   0.01267  Uiso   1.00
H329   H     0.80030   0.88000   0.95750   0.01267  Uiso   1.00
H330   H     0.72640   0.92610   0.92090   0.01267  Uiso   1.00
H331   H     0.58140   0.89640   0.91050   0.01267  Uiso   1.00
H332   H     0.50620   0.82650   0.93870   0.01267  Uiso   1.00
C317   C     0.48990   0.71220   0.96418   0.01267  Uiso   1.00
C318   C     0.41880   0.67870   0.97535   0.01267  Uiso   1.00
C319   C     0.36720   0.63780   0.95958   0.01267  Uiso   1.00
C320   C     0.38740   0.62980   0.93178   0.01267  Uiso   1.00
C321   C     0.45840   0.65990   0.91979   0.01267  Uiso   1.00
C322   C     0.50890   0.70060   0.93600   0.01267  Uiso   1.00
C323   C     0.50100   0.79820   0.00650   0.01267  Uiso   1.00
C324   C     0.40970   0.80530   0.00770   0.01267  Uiso   1.00
C325   C     0.36940   0.84290   0.02710   0.01267  Uiso   1.00
C326   C     0.42170   0.87630   0.04530   0.01267  Uiso   1.00
C327   C     0.51210   0.87270   0.04440   0.01267  Uiso   1.00
C328   C     0.55040   0.83390   0.02520   0.01267  Uiso   1.00
C329   C     0.62200   0.71100   0.00021   0.01267  Uiso   1.00
C330   C     0.62270   0.70130   0.02910   0.01267  Uiso   1.00
C331   C     0.67730   0.65950   0.04164   0.01267  Uiso   1.00
C332   C     0.72850   0.62460   0.02496   0.01267  Uiso   1.00
C333   C     0.73050   0.63300   0.99642   0.01267  Uiso   1.00
C334   C     0.67740   0.67590   0.98411   0.01267  Uiso   1.00
C335   C     0.60860   0.80640   0.96442   0.01267  Uiso   1.00
C336   C     0.69650   0.82420   0.96910   0.01267  Uiso   1.00
C337   C     0.74070   0.86870   0.95340   0.01267  Uiso   1.00
C338   C     0.69710   0.89580   0.93170   0.01267  Uiso   1.00
C339   C     0.61100   0.87890   0.92580   0.01267  Uiso   1.00
C340   C     0.56680   0.83600   0.94250   0.01267  Uiso   1.00
B6     B     0.75370   0.16980   0.79700   0.01267  Uiso   1.00
H333   H     0.76790   0.12600   0.85040   0.01267  Uiso   1.00
H334   H     0.85300   0.15060   0.88970   0.01267  Uiso   1.00
H335   H     0.95540   0.23040   0.88730   0.01267  Uiso   1.00
H336   H     0.95710   0.29280   0.84830   0.01267  Uiso   1.00
H337   H     0.87510   0.26580   0.80860   0.01267  Uiso   1.00
H338   H     0.87610   0.08160   0.81320   0.01267  Uiso   1.00
H339   H     0.90940   0.98790   0.79530   0.01267  Uiso   1.00
H340   H     0.82140   0.94470   0.76030   0.01267  Uiso   1.00
H341   H     0.69660   0.99250   0.74450   0.01267  Uiso   1.00
H342   H     0.67080   0.08980   0.75970   0.01267  Uiso   1.00
H343   H     0.61150   0.09090   0.81450   0.01267  Uiso   1.00
H344   H     0.46730   0.10640   0.82920   0.01267  Uiso   1.00
H345   H     0.41030   0.20180   0.82610   0.01267  Uiso   1.00
H346   H     0.50400   0.28210   0.81450   0.01267  Uiso   1.00
H347   H     0.64980   0.26720   0.80170   0.01267  Uiso   1.00
H348   H     0.65590   0.22510   0.75430   0.01267  Uiso   1.00
H349   H     0.69540   0.27580   0.71320   0.01267  Uiso   1.00
H350   H     0.84420   0.29400   0.70260   0.01267  Uiso   1.00
H351   H     0.95270   0.25520   0.73140   0.01267  Uiso   1.00
H352   H     0.91220   0.20280   0.77190   0.01267  Uiso   1.00
C341   C     0.81420   0.19040   0.82402   0.01267  Uiso   1.00
C342   C     0.80850   0.15920   0.84920   0.01267  Uiso   1.00
C343   C     0.85900   0.17370   0.87300   0.01267  Uiso   1.00
C344   C     0.91740   0.22180   0.87190   0.01267  Uiso   1.00
C345   C     0.92090   0.25740   0.84850   0.01267  Uiso   1.00
C346   C     0.87070   0.24120   0.82480   0.01267  Uiso   1.00
C347   C     0.77170   0.09790   0.78780   0.01267  Uiso   1.00
C348   C     0.84100   0.06500   0.79850   0.01267  Uiso   1.00
C349   C     0.86030   0.00840   0.78820   0.01267  Uiso   1.00
C350   C     0.80760   0.98270   0.76770   0.01267  Uiso   1.00
C351   C     0.73520   0.01140   0.75770   0.01267  Uiso   1.00
C352   C     0.71910   0.06930   0.76740   0.01267  Uiso   1.00
C353   C     0.64950   0.17690   0.80630   0.01267  Uiso   1.00
C354   C     0.59090   0.13050   0.81460   0.01267  Uiso   1.00
C355   C     0.50350   0.13920   0.82290   0.01267  Uiso   1.00
C356   C     0.47060   0.19560   0.82180   0.01267  Uiso   1.00
C357   C     0.52560   0.24280   0.81440   0.01267  Uiso   1.00
C358   C     0.61320   0.23360   0.80680   0.01267  Uiso   1.00
C359   C     0.77900   0.20830   0.76846   0.01267  Uiso   1.00
C360   C     0.71690   0.23100   0.74990   0.01267  Uiso   1.00
C361   C     0.74000   0.26180   0.72530   0.01267  Uiso   1.00
C362   C     0.82780   0.27170   0.71890   0.01267  Uiso   1.00
C363   C     0.89200   0.24940   0.73600   0.01267  Uiso   1.00
C364   C     0.86700   0.21810   0.76030   0.01267  Uiso   1.00
B7     B     0.34230   0.92270   0.20780   0.01267  Uiso   1.00
H353   H     0.28880   0.01500   0.17260   0.01267  Uiso   1.00
H354   H     0.27620   0.02370   0.12410   0.01267  Uiso   1.00
H355   H     0.31380   0.94520   0.09500   0.01267  Uiso   1.00
H356   H     0.35760   0.85580   0.11480   0.01267  Uiso   1.00
H357   H     0.37290   0.84840   0.16330   0.01267  Uiso   1.00
H358   H     0.41540   0.03180   0.20380   0.01267  Uiso   1.00
H359   H     0.39850   0.12280   0.22680   0.01267  Uiso   1.00
H360   H     0.30150   0.12930   0.26420   0.01267  Uiso   1.00
H361   H     0.21170   0.04720   0.27680   0.01267  Uiso   1.00
H362   H     0.23430   0.95540   0.25510   0.01267  Uiso   1.00
H363   H     0.15730   0.91570   0.21270   0.01267  Uiso   1.00
H364   H     0.05180   0.84110   0.22360   0.01267  Uiso   1.00
H365   H     0.09610   0.74370   0.23130   0.01267  Uiso   1.00
H366   H     0.24510   0.72290   0.22940   0.01267  Uiso   1.00
H367   H     0.35100   0.79810   0.22000   0.01267  Uiso   1.00
H368   H     0.41330   0.87870   0.25690   0.01267  Uiso   1.00
H369   H     0.55460   0.85180   0.27070   0.01267  Uiso   1.00
H370   H     0.67330   0.86790   0.24010   0.01267  Uiso   1.00
H371   H     0.64880   0.90120   0.19470   0.01267  Uiso   1.00
H372   H     0.50550   0.92120   0.18010   0.01267  Uiso   1.00
C365   C     0.33220   0.93030   0.17427   0.01267  Uiso   1.00
C366   C     0.30370   0.98210   0.16110   0.01267  Uiso   1.00
C367   C     0.29610   0.98770   0.13200   0.01267  Uiso   1.00
C368   C     0.31760   0.94110   0.11480   0.01267  Uiso   1.00
C369   C     0.34450   0.88870   0.12642   0.01267  Uiso   1.00
C370   C     0.35250   0.88460   0.15563   0.01267  Uiso   1.00
C371   C     0.32160   0.98300   0.22530   0.01267  Uiso   1.00
C372   C     0.37300   0.03410   0.21850   0.01267  Uiso   1.00
C373   C     0.36420   0.08870   0.23250   0.01267  Uiso   1.00
C374   C     0.30600   0.09260   0.25440   0.01267  Uiso   1.00
C375   C     0.25440   0.04410   0.26230   0.01267  Uiso   1.00
C376   C     0.26620   0.98970   0.24840   0.01267  Uiso   1.00
C377   C     0.26710   0.86700   0.21590   0.01267  Uiso   1.00
C378   C     0.17660   0.87670   0.21660   0.01267  Uiso   1.00
C379   C     0.11250   0.83200   0.22270   0.01267  Uiso   1.00
C380   C     0.13880   0.77460   0.22740   0.01267  Uiso   1.00
C381   C     0.22690   0.76240   0.22630   0.01267  Uiso   1.00
C382   C     0.29040   0.80780   0.22060   0.01267  Uiso   1.00
C383   C     0.44200   0.90340   0.21689   0.01267  Uiso   1.00
C384   C     0.46050   0.88270   0.24378   0.01267  Uiso   1.00
C385   C     0.54540   0.86760   0.25248   0.01267  Uiso   1.00
C386   C     0.61500   0.87600   0.23417   0.01267  Uiso   1.00
C387   C     0.60070   0.89600   0.20740   0.01267  Uiso   1.00
C388   C     0.51470   0.90860   0.19884   0.01267  Uiso   1.00
B8     B     0.35670   0.97590   0.69840   0.01267  Uiso   1.00
H373   H     0.17460   0.99410   0.68690   0.01267  Uiso   1.00
H374   H     0.04480   0.97520   0.71230   0.01267  Uiso   1.00
H375   H     0.04870   0.92240   0.75400   0.01267  Uiso   1.00
H376   H     0.18430   0.89750   0.77340   0.01267  Uiso   1.00
H377   H     0.31320   0.91440   0.74730   0.01267  Uiso   1.00
H378   H     0.25520   0.91950   0.65600   0.01267  Uiso   1.00
H379   H     0.25120   0.92760   0.60730   0.01267  Uiso   1.00
H380   H     0.33970   0.00040   0.58490   0.01267  Uiso   1.00
H381   H     0.43190   0.06360   0.61140   0.01267  Uiso   1.00
H382   H     0.43180   0.05710   0.66030   0.01267  Uiso   1.00
H383   H     0.32590   0.09630   0.69130   0.01267  Uiso   1.00
H384   H     0.35990   0.18100   0.71840   0.01267  Uiso   1.00
H385   H     0.44420   0.17310   0.75880   0.01267  Uiso   1.00
H386   H     0.49820   0.08130   0.77210   0.01267  Uiso   1.00
H387   H     0.46320   0.99670   0.74510   0.01267  Uiso   1.00
H388   H     0.53940   0.97210   0.69860   0.01267  Uiso   1.00
H389   H     0.64150   0.89630   0.69860   0.01267  Uiso   1.00
H390   H     0.59180   0.79720   0.70230   0.01267  Uiso   1.00
H391   H     0.44160   0.77350   0.70380   0.01267  Uiso   1.00
H392   H     0.33960   0.84950   0.70490   0.01267  Uiso   1.00
C389   C     0.26040   0.95670   0.71403   0.01267  Uiso   1.00
C390   C     0.17780   0.97380   0.70430   0.01267  Uiso   1.00
C391   C     0.09950   0.96220   0.71940   0.01267  Uiso   1.00
C392   C     0.10210   0.93220   0.74440   0.01267  Uiso   1.00
C393   C     0.18170   0.91600   0.75550   0.01267  Uiso   1.00
C394   C     0.25880   0.92740   0.73980   0.01267  Uiso   1.00
C395   C     0.34670   0.98550   0.66420   0.01267  Uiso   1.00
C396   C     0.29210   0.94910   0.64715   0.01267  Uiso   1.00
C397   C     0.28890   0.95370   0.61797   0.01267  Uiso   1.00
C398   C     0.34110   0.99680   0.60480   0.01267  Uiso   1.00
C399   C     0.39510   0.03430   0.62043   0.01267  Uiso   1.00
C400   C     0.39610   0.02950   0.64977   0.01267  Uiso   1.00
C401   C     0.39060   0.03610   0.71510   0.01267  Uiso   1.00
C402   C     0.36080   0.09240   0.70770   0.01267  Uiso   1.00
C403   C     0.38100   0.14330   0.72390   0.01267  Uiso   1.00
C404   C     0.43120   0.13860   0.74780   0.01267  Uiso   1.00
C405   C     0.46270   0.08460   0.75570   0.01267  Uiso   1.00
C406   C     0.44160   0.03400   0.73930   0.01267  Uiso   1.00
C407   C     0.42720   0.92020   0.70150   0.01267  Uiso   1.00
C408   C     0.51840   0.93180   0.69980   0.01267  Uiso   1.00
C409   C     0.58010   0.88670   0.69990   0.01267  Uiso   1.00
C410   C     0.55050   0.82810   0.70190   0.01267  Uiso   1.00
C411   C     0.46180   0.81410   0.70310   0.01267  Uiso   1.00
C412   C     0.40080   0.85980   0.70340   0.01267  Uiso   1.00
B9     B     0.67260   0.42420   0.51620   0.01267  Uiso   1.00
H393   H     0.85490   0.40170   0.50420   0.01267  Uiso   1.00
H394   H     0.92360   0.33700   0.47320   0.01267  Uiso   1.00
H395   H     0.83780   0.27670   0.44330   0.01267  Uiso   1.00
H396   H     0.68460   0.28160   0.44390   0.01267  Uiso   1.00
H397   H     0.61670   0.34590   0.47520   0.01267  Uiso   1.00
H398   H     0.81600   0.50180   0.50320   0.01267  Uiso   1.00
H399   H     0.90240   0.57030   0.52940   0.01267  Uiso   1.00
H400   H     0.86720   0.58770   0.57630   0.01267  Uiso   1.00
H401   H     0.75170   0.53350   0.59760   0.01267  Uiso   1.00
H402   H     0.67020   0.46260   0.57170   0.01267  Uiso   1.00
H403   H     0.72110   0.35780   0.56200   0.01267  Uiso   1.00
H404   H     0.64480   0.29500   0.59330   0.01267  Uiso   1.00
H405   H     0.49700   0.26890   0.58530   0.01267  Uiso   1.00
H406   H     0.42670   0.30420   0.54520   0.01267  Uiso   1.00
H407   H     0.49980   0.37470   0.51670   0.01267  Uiso   1.00
H408   H     0.54480   0.50090   0.53300   0.01267  Uiso   1.00
H409   H     0.45980   0.57250   0.51110   0.01267  Uiso   1.00
H410   H     0.45740   0.57740   0.46230   0.01267  Uiso   1.00
H411   H     0.54760   0.51740   0.43570   0.01267  Uiso   1.00
H412   H     0.64010   0.45050   0.45810   0.01267  Uiso   1.00
C413   C     0.72760   0.38200   0.49349   0.01267  Uiso   1.00
C414   C     0.81910   0.37740   0.49203   0.01267  Uiso   1.00
C415   C     0.86100   0.33870   0.47351   0.01267  Uiso   1.00
C416   C     0.81010   0.30320   0.45583   0.01267  Uiso   1.00
C417   C     0.71960   0.30590   0.45623   0.01267  Uiso   1.00
C418   C     0.67940   0.34480   0.47502   0.01267  Uiso   1.00
C419   C     0.73510   0.47220   0.53453   0.01267  Uiso   1.00
C420   C     0.80340   0.50680   0.52263   0.01267  Uiso   1.00
C421   C     0.85440   0.54890   0.53805   0.01267  Uiso   1.00
C422   C     0.83400   0.55870   0.56584   0.01267  Uiso   1.00
C423   C     0.76580   0.52680   0.57849   0.01267  Uiso   1.00
C424   C     0.71740   0.48430   0.56274   0.01267  Uiso   1.00
C425   C     0.61820   0.37770   0.53670   0.01267  Uiso   1.00
C426   C     0.65970   0.34980   0.55915   0.01267  Uiso   1.00
C427   C     0.61500   0.31060   0.57754   0.01267  Uiso   1.00
C428   C     0.52800   0.29490   0.57266   0.01267  Uiso   1.00
C429   C     0.48570   0.31700   0.54947   0.01267  Uiso   1.00
C430   C     0.53050   0.35870   0.53218   0.01267  Uiso   1.00
C431   C     0.60420   0.46800   0.49835   0.01267  Uiso   1.00
C432   C     0.54760   0.50470   0.51318   0.01267  Uiso   1.00
C433   C     0.49480   0.54680   0.50018   0.01267  Uiso   1.00
C434   C     0.49460   0.55020   0.47140   0.01267  Uiso   1.00
C435   C     0.54780   0.51470   0.45565   0.01267  Uiso   1.00
C436   C     0.60280   0.47430   0.46920   0.01267  Uiso   1.00
B10    B     0.14980   0.80720   0.48110   0.01267  Uiso   1.00
H413   H     0.29710   0.74990   0.50110   0.01267  Uiso   1.00
H414   H     0.38640   0.67530   0.48290   0.01267  Uiso   1.00
H415   H     0.35960   0.63820   0.43820   0.01267  Uiso   1.00
H416   H     0.24300   0.67200   0.41150   0.01267  Uiso   1.00
H417   H     0.15500   0.74720   0.42960   0.01267  Uiso   1.00
H418   H     0.31770   0.86210   0.47740   0.01267  Uiso   1.00
H419   H     0.38670   0.94540   0.49900   0.01267  Uiso   1.00
H420   H     0.31420   0.99450   0.53470   0.01267  Uiso   1.00
H421   H     0.17580   0.96030   0.54990   0.01267  Uiso   1.00
H422   H     0.10370   0.88090   0.52640   0.01267  Uiso   1.00
H423   H     0.15180   0.77790   0.53830   0.01267  Uiso   1.00
H424   H     0.06350   0.71530   0.56670   0.01267  Uiso   1.00
H425   H     0.93840   0.66750   0.54800   0.01267  Uiso   1.00
H426   H     0.90630   0.67680   0.50050   0.01267  Uiso   1.00
H427   H     0.99700   0.73720   0.47190   0.01267  Uiso   1.00
H428   H     0.97610   0.84710   0.47600   0.01267  Uiso   1.00
H429   H     0.90740   0.91110   0.44440   0.01267  Uiso   1.00
H430   H     0.98600   0.94750   0.40580   0.01267  Uiso   1.00
H431   H     0.12920   0.91840   0.39760   0.01267  Uiso   1.00
H432   H     0.20010   0.85900   0.43060   0.01267  Uiso   1.00
C437   C     0.21730   0.75810   0.46702   0.01267  Uiso   1.00
C438   C     0.28600   0.73500   0.48270   0.01267  Uiso   1.00
C439   C     0.33940   0.69010   0.47193   0.01267  Uiso   1.00
C440   C     0.32300   0.66800   0.44559   0.01267  Uiso   1.00
C441   C     0.25470   0.68820   0.42961   0.01267  Uiso   1.00
C442   C     0.20240   0.73320   0.44061   0.01267  Uiso   1.00
C443   C     0.20300   0.86120   0.49959   0.01267  Uiso   1.00
C444   C     0.28740   0.88220   0.49191   0.01267  Uiso   1.00
C445   C     0.32940   0.93190   0.50480   0.01267  Uiso   1.00
C446   C     0.28650   0.96070   0.52600   0.01267  Uiso   1.00
C447   C     0.20410   0.94120   0.53470   0.01267  Uiso   1.00
C448   C     0.16210   0.89270   0.52096   0.01267  Uiso   1.00
C449   C     0.08400   0.76630   0.50182   0.01267  Uiso   1.00
C450   C     0.10180   0.75770   0.53027   0.01267  Uiso   1.00
C451   C     0.04890   0.72050   0.54743   0.01267  Uiso   1.00
C452   C     0.97580   0.69170   0.53628   0.01267  Uiso   1.00
C453   C     0.95640   0.69750   0.50831   0.01267  Uiso   1.00
C454   C     0.01060   0.73410   0.49130   0.01267  Uiso   1.00
C455   C     0.09650   0.84630   0.45745   0.01267  Uiso   1.00
C456   C     0.00900   0.86240   0.46040   0.01267  Uiso   1.00
C457   C     0.96680   0.90030   0.44144   0.01267  Uiso   1.00
C458   C     0.01330   0.92130   0.41862   0.01267  Uiso   1.00
C459   C     0.09860   0.90520   0.41393   0.01267  Uiso   1.00
C460   C     0.14020   0.86880   0.43358   0.01267  Uiso   1.00
B11    B     0.90820   0.72230   0.70620   0.01267  Uiso   1.00
H433   H     0.74470   0.76710   0.71720   0.01267  Uiso   1.00
H434   H     0.67860   0.81020   0.75610   0.01267  Uiso   1.00
H435   H     0.76230   0.82890   0.79640   0.01267  Uiso   1.00
H436   H     0.90930   0.80270   0.79800   0.01267  Uiso   1.00
H437   H     0.97180   0.75350   0.76010   0.01267  Uiso   1.00
H438   H     0.84010   0.83190   0.68890   0.01267  Uiso   1.00
H439   H     0.81860   0.87410   0.64500   0.01267  Uiso   1.00
H440   H     0.84780   0.82080   0.60430   0.01267  Uiso   1.00
H441   H     0.89260   0.72210   0.60800   0.01267  Uiso   1.00
H442   H     0.92220   0.68300   0.65210   0.01267  Uiso   1.00
H443   H     0.76830   0.65600   0.67960   0.01267  Uiso   1.00
H444   H     0.70140   0.56180   0.68720   0.01267  Uiso   1.00
H445   H     0.75950   0.49830   0.72050   0.01267  Uiso   1.00
H446   H     0.87960   0.52980   0.74790   0.01267  Uiso   1.00
H447   H     0.94360   0.62500   0.74090   0.01267  Uiso   1.00
H448   H     0.03830   0.63530   0.69700   0.01267  Uiso   1.00
H449   H     0.19170   0.64300   0.69310   0.01267  Uiso   1.00
H450   H     0.26530   0.73440   0.70080   0.01267  Uiso   1.00
H451   H     0.18490   0.81810   0.71190   0.01267  Uiso   1.00
H452   H     0.03170   0.80990   0.71530   0.01267  Uiso   1.00
C461   C     0.86740   0.75680   0.73336   0.01267  Uiso   1.00
C462   C     0.77920   0.77370   0.73360   0.01267  Uiso   1.00
C463   C     0.73900   0.79990   0.75680   0.01267  Uiso   1.00
C464   C     0.78820   0.81050   0.78060   0.01267  Uiso   1.00
C465   C     0.87500   0.79460   0.78160   0.01267  Uiso   1.00
C466   C     0.91280   0.76650   0.75854   0.01267  Uiso   1.00
C467   C     0.88340   0.75140   0.67616   0.01267  Uiso   1.00
C468   C     0.85250   0.80910   0.67261   0.01267  Uiso   1.00
C469   C     0.83920   0.83460   0.64626   0.01267  Uiso   1.00
C470   C     0.85570   0.80310   0.62222   0.01267  Uiso   1.00
C471   C     0.88390   0.74540   0.62439   0.01267  Uiso   1.00
C472   C     0.89930   0.72190   0.65103   0.01267  Uiso   1.00
C473   C     0.86400   0.65190   0.70940   0.01267  Uiso   1.00
C474   C     0.79150   0.63100   0.69370   0.01267  Uiso   1.00
C475   C     0.75150   0.57430   0.69800   0.01267  Uiso   1.00
C476   C     0.78550   0.53710   0.71790   0.01267  Uiso   1.00
C477   C     0.85660   0.55540   0.73400   0.01267  Uiso   1.00
C478   C     0.89470   0.61250   0.72960   0.01267  Uiso   1.00
C479   C     0.01560   0.72160   0.70660   0.01267  Uiso   1.00
C480   C     0.06720   0.67300   0.70010   0.01267  Uiso   1.00
C481   C     0.15940   0.67720   0.69770   0.01267  Uiso   1.00
C482   C     0.20270   0.73120   0.70220   0.01267  Uiso   1.00
C483   C     0.15530   0.78070   0.70880   0.01267  Uiso   1.00
C484   C     0.06340   0.77530   0.71080   0.01267  Uiso   1.00
B12    B     0.07160   0.87150   0.98670   0.01267  Uiso   1.00
H453   H     0.89730   0.81990   0.98490   0.01267  Uiso   1.00
H454   H     0.82910   0.73880   0.00780   0.01267  Uiso   1.00
H455   H     0.90520   0.68870   0.04250   0.01267  Uiso   1.00
H456   H     0.05060   0.71700   0.05320   0.01267  Uiso   1.00
H457   H     0.11870   0.79770   0.02970   0.01267  Uiso   1.00
H458   H     0.92500   0.93270   0.00580   0.01267  Uiso   1.00
H459   H     0.83870   0.00720   0.98710   0.01267  Uiso   1.00
H460   H     0.87520   0.04820   0.94350   0.01267  Uiso   1.00
H461   H     0.98800   0.00840   0.91680   0.01267  Uiso   1.00
H462   H     0.07100   0.93210   0.93530   0.01267  Uiso   1.00
H463   H     0.01720   0.81790   0.93670   0.01267  Uiso   1.00
H464   H     0.08560   0.75780   0.90390   0.01267  Uiso   1.00
H465   H     0.23600   0.74120   0.90730   0.01267  Uiso   1.00
H466   H     0.31550   0.77710   0.94600   0.01267  Uiso   1.00
H467   H     0.24570   0.83480   0.97950   0.01267  Uiso   1.00
H468   H     0.22160   0.94500   0.97710   0.01267  Uiso   1.00
H469   H     0.30860   0.00630   0.00650   0.01267  Uiso   1.00
H470   H     0.27080   0.01790   0.05320   0.01267  Uiso   1.00
H471   H     0.15210   0.96220   0.07230   0.01267  Uiso   1.00
H472   H     0.06680   0.90040   0.04280   0.01267  Uiso   1.00
C485   C     0.01600   0.81950   0.00462   0.01267  Uiso   1.00
C486   C     0.92950   0.79950   0.99880   0.01267  Uiso   1.00
C487   C     0.88790   0.75100   0.01250   0.01267  Uiso   1.00
C488   C     0.93330   0.72110   0.03290   0.01267  Uiso   1.00
C489   C     0.01900   0.73800   0.03930   0.01267  Uiso   1.00
C490   C     0.05930   0.78660   0.02520   0.01267  Uiso   1.00
C491   C     0.00530   0.92090   0.97225   0.01267  Uiso   1.00
C492   C     0.93740   0.94680   0.98733   0.01267  Uiso   1.00
C493   C     0.88670   0.99250   0.97659   0.01267  Uiso   1.00
C494   C     0.90750   0.01600   0.95064   0.01267  Uiso   1.00
C495   C     0.97480   0.99300   0.93499   0.01267  Uiso   1.00
C496   C     0.02350   0.94670   0.94608   0.01267  Uiso   1.00
C497   C     0.12370   0.83530   0.96199   0.01267  Uiso   1.00
C498   C     0.07820   0.81030   0.93891   0.01267  Uiso   1.00
C499   C     0.11910   0.77460   0.91900   0.01267  Uiso   1.00
C500   C     0.20760   0.76370   0.92130   0.01267  Uiso   1.00
C501   C     0.25480   0.78560   0.94390   0.01267  Uiso   1.00
C502   C     0.21230   0.82050   0.96385   0.01267  Uiso   1.00
C503   C     0.13600   0.91250   0.00686   0.01267  Uiso   1.00
C504   C     0.20740   0.94710   0.99653   0.01267  Uiso   1.00
C505   C     0.25870   0.98500   0.01396   0.01267  Uiso   1.00
C506   C     0.23700   0.99120   0.04170   0.01267  Uiso   1.00
C507   C     0.16650   0.95900   0.05298   0.01267  Uiso   1.00
C508   C     0.11680   0.92130   0.03515   0.01267  Uiso   1.00
B13    B     0.55270   0.25650   0.01650   0.01267  Uiso   1.00
H473   H     0.40460   0.18390   0.00540   0.01267  Uiso   1.00
H474   H     0.31910   0.11610   0.03200   0.01267  Uiso   1.00
H475   H     0.35200   0.10310   0.07930   0.01267  Uiso   1.00
H476   H     0.47310   0.15330   0.09930   0.01267  Uiso   1.00
H477   H     0.55790   0.22120   0.07250   0.01267  Uiso   1.00
H478   H     0.37310   0.28360   0.00520   0.01267  Uiso   1.00
H479   H     0.30690   0.34530   0.97230   0.01267  Uiso   1.00
H480   H     0.39510   0.40180   0.94150   0.01267  Uiso   1.00
H481   H     0.54830   0.39630   0.94330   0.01267  Uiso   1.00
H482   H     0.61300   0.33170   0.97520   0.01267  Uiso   1.00
H483   H     0.58490   0.22370   0.95930   0.01267  Uiso   1.00
H484   H     0.67890   0.15550   0.93850   0.01267  Uiso   1.00
H485   H     0.76270   0.09450   0.96680   0.01267  Uiso   1.00
H486   H     0.76770   0.10970   0.01500   0.01267  Uiso   1.00
H487   H     0.67910   0.18130   0.03570   0.01267  Uiso   1.00
H488   H     0.72790   0.30530   0.01630   0.01267  Uiso   1.00
H489   H     0.80030   0.38000   0.04250   0.01267  Uiso   1.00
H490   H     0.72640   0.42610   0.07910   0.01267  Uiso   1.00
H491   H     0.58140   0.39640   0.08950   0.01267  Uiso   1.00
H492   H     0.50620   0.32650   0.06130   0.01267  Uiso   1.00
C509   C     0.48990   0.21220   0.03582   0.01267  Uiso   1.00
C510   C     0.41880   0.17870   0.02465   0.01267  Uiso   1.00
C511   C     0.36720   0.13780   0.04042   0.01267  Uiso   1.00
C512   C     0.38740   0.12980   0.06822   0.01267  Uiso   1.00
C513   C     0.45840   0.15990   0.08021   0.01267  Uiso   1.00
C514   C     0.50890   0.20060   0.06400   0.01267  Uiso   1.00
C515   C     0.50100   0.29820   0.99350   0.01267  Uiso   1.00
C516   C     0.40970   0.30530   0.99230   0.01267  Uiso   1.00
C517   C     0.36940   0.34290   0.97290   0.01267  Uiso   1.00
C518   C     0.42170   0.37630   0.95470   0.01267  Uiso   1.00
C519   C     0.51210   0.37270   0.95560   0.01267  Uiso   1.00
C520   C     0.55040   0.33390   0.97480   0.01267  Uiso   1.00
C521   C     0.62200   0.21100   0.99979   0.01267  Uiso   1.00
C522   C     0.62270   0.20130   0.97090   0.01267  Uiso   1.00
C523   C     0.67730   0.15950   0.95836   0.01267  Uiso   1.00
C524   C     0.72850   0.12460   0.97504   0.01267  Uiso   1.00
C525   C     0.73050   0.13300   0.00358   0.01267  Uiso   1.00
C526   C     0.67740   0.17590   0.01589   0.01267  Uiso   1.00
C527   C     0.60860   0.30640   0.03558   0.01267  Uiso   1.00
C528   C     0.69650   0.32420   0.03090   0.01267  Uiso   1.00
C529   C     0.74070   0.36870   0.04660   0.01267  Uiso   1.00
C530   C     0.69710   0.39580   0.06830   0.01267  Uiso   1.00
C531   C     0.61100   0.37890   0.07420   0.01267  Uiso   1.00
C532   C     0.56680   0.33600   0.05750   0.01267  Uiso   1.00
B14    B     0.75370   0.66980   0.20300   0.01267  Uiso   1.00
H493   H     0.76790   0.62600   0.14960   0.01267  Uiso   1.00
H494   H     0.85300   0.65060   0.11030   0.01267  Uiso   1.00
H495   H     0.95540   0.73040   0.11270   0.01267  Uiso   1.00
H496   H     0.95710   0.79280   0.15170   0.01267  Uiso   1.00
H497   H     0.87510   0.76580   0.19140   0.01267  Uiso   1.00
H498   H     0.87610   0.58160   0.18680   0.01267  Uiso   1.00
H499   H     0.90940   0.48790   0.20470   0.01267  Uiso   1.00
H500   H     0.82140   0.44470   0.23970   0.01267  Uiso   1.00
H501   H     0.69660   0.49250   0.25550   0.01267  Uiso   1.00
H502   H     0.67080   0.58980   0.24030   0.01267  Uiso   1.00
H503   H     0.61150   0.59090   0.18550   0.01267  Uiso   1.00
H504   H     0.46730   0.60640   0.17080   0.01267  Uiso   1.00
H505   H     0.41030   0.70180   0.17390   0.01267  Uiso   1.00
H506   H     0.50400   0.78210   0.18550   0.01267  Uiso   1.00
H507   H     0.64980   0.76720   0.19830   0.01267  Uiso   1.00
H508   H     0.65590   0.72510   0.24570   0.01267  Uiso   1.00
H509   H     0.69540   0.77580   0.28680   0.01267  Uiso   1.00
H510   H     0.84420   0.79400   0.29740   0.01267  Uiso   1.00
H511   H     0.95270   0.75520   0.26860   0.01267  Uiso   1.00
H512   H     0.91220   0.70280   0.22810   0.01267  Uiso   1.00
C533   C     0.81420   0.69040   0.17598   0.01267  Uiso   1.00
C534   C     0.80850   0.65920   0.15080   0.01267  Uiso   1.00
C535   C     0.85900   0.67370   0.12700   0.01267  Uiso   1.00
C536   C     0.91740   0.72180   0.12810   0.01267  Uiso   1.00
C537   C     0.92090   0.75740   0.15150   0.01267  Uiso   1.00
C538   C     0.87070   0.74120   0.17520   0.01267  Uiso   1.00
C539   C     0.77170   0.59790   0.21220   0.01267  Uiso   1.00
C540   C     0.84100   0.56500   0.20150   0.01267  Uiso   1.00
C541   C     0.86030   0.50840   0.21180   0.01267  Uiso   1.00
C542   C     0.80760   0.48270   0.23230   0.01267  Uiso   1.00
C543   C     0.73520   0.51140   0.24230   0.01267  Uiso   1.00
C544   C     0.71910   0.56930   0.23260   0.01267  Uiso   1.00
C545   C     0.64950   0.67690   0.19370   0.01267  Uiso   1.00
C546   C     0.59090   0.63050   0.18540   0.01267  Uiso   1.00
C547   C     0.50350   0.63920   0.17710   0.01267  Uiso   1.00
C548   C     0.47060   0.69560   0.17820   0.01267  Uiso   1.00
C549   C     0.52560   0.74280   0.18560   0.01267  Uiso   1.00
C550   C     0.61320   0.73360   0.19320   0.01267  Uiso   1.00
C551   C     0.77900   0.70830   0.23154   0.01267  Uiso   1.00
C552   C     0.71690   0.73100   0.25010   0.01267  Uiso   1.00
C553   C     0.74000   0.76180   0.27470   0.01267  Uiso   1.00
C554   C     0.82780   0.77170   0.28110   0.01267  Uiso   1.00
C555   C     0.89200   0.74940   0.26400   0.01267  Uiso   1.00
C556   C     0.86700   0.71810   0.23970   0.01267  Uiso   1.00
B15    B     0.34230   0.42270   0.79220   0.01267  Uiso   1.00
H513   H     0.28880   0.51500   0.82740   0.01267  Uiso   1.00
H514   H     0.27620   0.52370   0.87590   0.01267  Uiso   1.00
H515   H     0.31380   0.44520   0.90500   0.01267  Uiso   1.00
H516   H     0.35760   0.35580   0.88520   0.01267  Uiso   1.00
H517   H     0.37290   0.34840   0.83670   0.01267  Uiso   1.00
H518   H     0.41540   0.53180   0.79620   0.01267  Uiso   1.00
H519   H     0.39850   0.62280   0.77320   0.01267  Uiso   1.00
H520   H     0.30150   0.62930   0.73580   0.01267  Uiso   1.00
H521   H     0.21170   0.54720   0.72320   0.01267  Uiso   1.00
H522   H     0.23430   0.45540   0.74490   0.01267  Uiso   1.00
H523   H     0.15730   0.41570   0.78730   0.01267  Uiso   1.00
H524   H     0.05180   0.34110   0.77640   0.01267  Uiso   1.00
H525   H     0.09610   0.24370   0.76870   0.01267  Uiso   1.00
H526   H     0.24510   0.22290   0.77060   0.01267  Uiso   1.00
H527   H     0.35100   0.29810   0.78000   0.01267  Uiso   1.00
H528   H     0.41330   0.37870   0.74310   0.01267  Uiso   1.00
H529   H     0.55460   0.35180   0.72930   0.01267  Uiso   1.00
H530   H     0.67330   0.36790   0.75990   0.01267  Uiso   1.00
H531   H     0.64880   0.40120   0.80530   0.01267  Uiso   1.00
H532   H     0.50550   0.42120   0.81990   0.01267  Uiso   1.00
C557   C     0.33220   0.43030   0.82573   0.01267  Uiso   1.00
C558   C     0.30370   0.48210   0.83890   0.01267  Uiso   1.00
C559   C     0.29610   0.48770   0.86800   0.01267  Uiso   1.00
C560   C     0.31760   0.44110   0.88520   0.01267  Uiso   1.00
C561   C     0.34450   0.38870   0.87358   0.01267  Uiso   1.00
C562   C     0.35250   0.38460   0.84437   0.01267  Uiso   1.00
C563   C     0.32160   0.48300   0.77470   0.01267  Uiso   1.00
C564   C     0.37300   0.53410   0.78150   0.01267  Uiso   1.00
C565   C     0.36420   0.58870   0.76750   0.01267  Uiso   1.00
C566   C     0.30600   0.59260   0.74560   0.01267  Uiso   1.00
C567   C     0.25440   0.54410   0.73770   0.01267  Uiso   1.00
C568   C     0.26620   0.48970   0.75160   0.01267  Uiso   1.00
C569   C     0.26710   0.36700   0.78410   0.01267  Uiso   1.00
C570   C     0.17660   0.37670   0.78340   0.01267  Uiso   1.00
C571   C     0.11250   0.33200   0.77730   0.01267  Uiso   1.00
C572   C     0.13880   0.27460   0.77260   0.01267  Uiso   1.00
C573   C     0.22690   0.26240   0.77370   0.01267  Uiso   1.00
C574   C     0.29040   0.30780   0.77940   0.01267  Uiso   1.00
C575   C     0.44200   0.40340   0.78311   0.01267  Uiso   1.00
C576   C     0.46050   0.38270   0.75622   0.01267  Uiso   1.00
C577   C     0.54540   0.36760   0.74752   0.01267  Uiso   1.00
C578   C     0.61500   0.37600   0.76583   0.01267  Uiso   1.00
C579   C     0.60070   0.39600   0.79260   0.01267  Uiso   1.00
C580   C     0.51470   0.40860   0.80116   0.01267  Uiso   1.00
B16    B     0.35670   0.47590   0.30160   0.01267  Uiso   1.00
H533   H     0.17460   0.49410   0.31310   0.01267  Uiso   1.00
H534   H     0.04480   0.47520   0.28770   0.01267  Uiso   1.00
H535   H     0.04870   0.42240   0.24600   0.01267  Uiso   1.00
H536   H     0.18430   0.39750   0.22660   0.01267  Uiso   1.00
H537   H     0.31320   0.41440   0.25270   0.01267  Uiso   1.00
H538   H     0.25520   0.41950   0.34400   0.01267  Uiso   1.00
H539   H     0.25120   0.42760   0.39270   0.01267  Uiso   1.00
H540   H     0.33970   0.50040   0.41510   0.01267  Uiso   1.00
H541   H     0.43190   0.56360   0.38860   0.01267  Uiso   1.00
H542   H     0.43180   0.55710   0.33970   0.01267  Uiso   1.00
H543   H     0.32590   0.59630   0.30870   0.01267  Uiso   1.00
H544   H     0.35990   0.68100   0.28160   0.01267  Uiso   1.00
H545   H     0.44420   0.67310   0.24120   0.01267  Uiso   1.00
H546   H     0.49820   0.58130   0.22790   0.01267  Uiso   1.00
H547   H     0.46320   0.49670   0.25490   0.01267  Uiso   1.00
H548   H     0.53940   0.47210   0.30140   0.01267  Uiso   1.00
H549   H     0.64150   0.39630   0.30140   0.01267  Uiso   1.00
H550   H     0.59180   0.29720   0.29770   0.01267  Uiso   1.00
H551   H     0.44160   0.27350   0.29620   0.01267  Uiso   1.00
H552   H     0.33960   0.34950   0.29510   0.01267  Uiso   1.00
C581   C     0.26040   0.45670   0.28597   0.01267  Uiso   1.00
C582   C     0.17780   0.47380   0.29570   0.01267  Uiso   1.00
C583   C     0.09950   0.46220   0.28060   0.01267  Uiso   1.00
C584   C     0.10210   0.43220   0.25560   0.01267  Uiso   1.00
C585   C     0.18170   0.41600   0.24450   0.01267  Uiso   1.00
C586   C     0.25880   0.42740   0.26020   0.01267  Uiso   1.00
C587   C     0.34670   0.48550   0.33580   0.01267  Uiso   1.00
C588   C     0.29210   0.44910   0.35285   0.01267  Uiso   1.00
C589   C     0.28890   0.45370   0.38203   0.01267  Uiso   1.00
C590   C     0.34110   0.49680   0.39520   0.01267  Uiso   1.00
C591   C     0.39510   0.53430   0.37957   0.01267  Uiso   1.00
C592   C     0.39610   0.52950   0.35023   0.01267  Uiso   1.00
C593   C     0.39060   0.53610   0.28490   0.01267  Uiso   1.00
C594   C     0.36080   0.59240   0.29230   0.01267  Uiso   1.00
C595   C     0.38100   0.64330   0.27610   0.01267  Uiso   1.00
C596   C     0.43120   0.63860   0.25220   0.01267  Uiso   1.00
C597   C     0.46270   0.58460   0.24430   0.01267  Uiso   1.00
C598   C     0.44160   0.53400   0.26070   0.01267  Uiso   1.00
C599   C     0.42720   0.42020   0.29850   0.01267  Uiso   1.00
C600   C     0.51840   0.43180   0.30020   0.01267  Uiso   1.00
C601   C     0.58010   0.38670   0.30010   0.01267  Uiso   1.00
C602   C     0.55050   0.32810   0.29810   0.01267  Uiso   1.00
C603   C     0.46180   0.31410   0.29690   0.01267  Uiso   1.00
C604   C     0.40080   0.35980   0.29660   0.01267  Uiso   1.00
Cl7    Cl    0.05682   0.27925   0.67174   0.01267  Uiso   1.00
Cl8    Cl    0.05682   0.77925   0.32826   0.01267  Uiso   1.00
