data_image0
_cell_length_a       30.76
_cell_length_b       30.76
_cell_length_c       16.103
_cell_angle_alpha    90
_cell_angle_beta     90
_cell_angle_gamma    90

_symmetry_space_group_name_H-M    "P 1"
_symmetry_int_tables_number       1

loop_
  _symmetry_equiv_pos_as_xyz
  'x, y, z'

loop_
  _atom_site_label
  _atom_site_occupancy
  _atom_site_fract_x
  _atom_site_fract_y
  _atom_site_fract_z
  _atom_site_thermal_displace_type
  _atom_site_B_iso_or_equiv
  _atom_site_type_symbol
  C1       1.0000 0.10370  0.68210  0.81850  Biso   1.000  C
  C2       1.0000 0.13950  0.65140  0.79350  Biso   1.000  C
  C3       1.0000 0.12660  0.61570  0.74890  Biso   1.000  C
  H1       1.0000 0.09730  0.61270  0.73550  Biso   1.000  H
  C4       1.0000 0.15570  0.58370  0.72300  Biso   1.000  C
  H2       1.0000 0.14570  0.56020  0.69220  Biso   1.000  H
  C5       1.0000 0.19910  0.58680  0.74270  Biso   1.000  C
  C6       1.0000 0.22840  0.55210  0.70910  Biso   1.000  C
  C7       1.0000 0.21400  0.62150  0.79260  Biso   1.000  C
  C8       1.0000 0.25820  0.62450  0.81250  Biso   1.000  C
  H3       1.0000 0.27780  0.60360  0.79430  Biso   1.000  H
  C9       1.0000 0.27180  0.65920  0.85990  Biso   1.000  C
  H4       1.0000 0.30120  0.66160  0.87260  Biso   1.000  H
  C10      1.0000 0.24340  0.69110  0.88960  Biso   1.000  C
  H5       1.0000 0.25320  0.71300  0.92480  Biso   1.000  H
  C11      1.0000 0.19980  0.68920  0.86500  Biso   1.000  C
  H6       1.0000 0.18080  0.71100  0.88220  Biso   1.000  H
  C12      1.0000 0.18400  0.65520  0.81510  Biso   1.000  C
  C13      1.0000 0.92020  0.67040  0.54470  Biso   1.000  C
  C14      1.0000 0.89400  0.63360  0.51350  Biso   1.000  C
  C15      1.0000 0.85020  0.63480  0.53420  Biso   1.000  C
  H7       1.0000 0.83940  0.65810  0.56470  Biso   1.000  H
  C16      1.0000 0.82200  0.60150  0.50990  Biso   1.000  C
  H8       1.0000 0.79260  0.60360  0.52280  Biso   1.000  H
  C17      1.0000 0.83690  0.56570  0.46740  Biso   1.000  C
  C18      1.0000 0.80480  0.53010  0.45020  Biso   1.000  C
  C19      1.0000 0.88150  0.56370  0.44080  Biso   1.000  C
  C20      1.0000 0.89920  0.52980  0.38970  Biso   1.000  C
  H9       1.0000 0.88070  0.50830  0.36980  Biso   1.000  H
  C21      1.0000 0.94190  0.52790  0.36950  Biso   1.000  C
  H10      1.0000 0.95220  0.50480  0.33770  Biso   1.000  H
  C22      1.0000 0.97110  0.56060  0.39650  Biso   1.000  C
  H11      1.0000 0.00030  0.55930  0.38210  Biso   1.000  H
  C23      1.0000 0.95570  0.59460  0.44430  Biso   1.000  C
  H12      1.0000 0.97500  0.61570  0.46290  Biso   1.000  H
  C24      1.0000 0.91080  0.59780  0.46600  Biso   1.000  C
  C25      1.0000 0.95600  0.67010  0.81790  Biso   1.000  C
  C26      1.0000 0.91990  0.63960  0.79480  Biso   1.000  C
  C27      1.0000 0.87890  0.64770  0.82590  Biso   1.000  C
  H13      1.0000 0.87420  0.67110  0.86120  Biso   1.000  H
  C28      1.0000 0.84410  0.61990  0.80350  Biso   1.000  C
  H14      1.0000 0.81660  0.62510  0.82540  Biso   1.000  H
  C29      1.0000 0.84960  0.58550  0.75060  Biso   1.000  C
  C30      1.0000 0.80890  0.56200  0.72410  Biso   1.000  C
  C31      1.0000 0.89230  0.57530  0.71710  Biso   1.000  C
  C32      1.0000 0.90160  0.54060  0.66420  Biso   1.000  C
  H15      1.0000 0.87940  0.52210  0.64700  Biso   1.000  H
  C33      1.0000 0.94260  0.53380  0.63810  Biso   1.000  C
  H16      1.0000 0.94790  0.50970  0.60450  Biso   1.000  H
  C34      1.0000 0.97780  0.56060  0.65830  Biso   1.000  C
  H17      1.0000 0.00550  0.55520  0.63790  Biso   1.000  H
  C35      1.0000 0.96950  0.59490  0.70910  Biso   1.000  C
  H18      1.0000 0.99230  0.61310  0.72410  Biso   1.000  H
  C36      1.0000 0.92720  0.60380  0.74000  Biso   1.000  C
  O1       1.0000 0.06545  0.67425  0.79240  Biso   1.000  O
  O2       1.0000 0.11028  0.71501  0.86420  Biso   1.000  O
  O3       1.0000 0.24959  0.52734  0.75720  Biso   1.000  O
  O4       1.0000 0.23097  0.54730  0.63040  Biso   1.000  O
  O5       1.0000 0.95401  0.68380  0.50430  Biso   1.000  O
  O6       1.0000 0.90926  0.68908  0.60950  Biso   1.000  O
  O7       1.0000 0.76866  0.53022  0.48850  Biso   1.000  O
  O8       1.0000 0.81205  0.50217  0.39540  Biso   1.000  O
  O9       1.0000 0.97253  0.69511  0.76600  Biso   1.000  O
  O10      1.0000 0.96812  0.67008  0.89260  Biso   1.000  O
  O11      1.0000 0.80939  0.54050  0.65800  Biso   1.000  O
  O12      1.0000 0.77533  0.56470  0.76690  Biso   1.000  O
  La1      1.0000 0.02717  0.73013  0.87940  Biso   1.000  La
  La2      1.0000 0.97572  0.73590  0.62923  Biso   1.000  La
  C37      1.0000 0.60370  0.18210  0.31850  Biso   1.000  C
  C38      1.0000 0.63950  0.15140  0.29350  Biso   1.000  C
  C39      1.0000 0.62660  0.11570  0.24890  Biso   1.000  C
  H19      1.0000 0.59730  0.11270  0.23550  Biso   1.000  H
  C40      1.0000 0.65570  0.08370  0.22300  Biso   1.000  C
  H20      1.0000 0.64570  0.06020  0.19220  Biso   1.000  H
  C41      1.0000 0.69910  0.08680  0.24270  Biso   1.000  C
  C42      1.0000 0.72840  0.05210  0.20910  Biso   1.000  C
  C43      1.0000 0.71400  0.12150  0.29260  Biso   1.000  C
  C44      1.0000 0.75820  0.12450  0.31250  Biso   1.000  C
  H21      1.0000 0.77780  0.10360  0.29430  Biso   1.000  H
  C45      1.0000 0.77180  0.15920  0.35990  Biso   1.000  C
  H22      1.0000 0.80120  0.16160  0.37260  Biso   1.000  H
  C46      1.0000 0.74340  0.19110  0.38960  Biso   1.000  C
  H23      1.0000 0.75320  0.21300  0.42480  Biso   1.000  H
  C47      1.0000 0.69980  0.18920  0.36500  Biso   1.000  C
  H24      1.0000 0.68080  0.21100  0.38220  Biso   1.000  H
  C48      1.0000 0.68400  0.15520  0.31510  Biso   1.000  C
  C49      1.0000 0.42020  0.17040  0.04470  Biso   1.000  C
  C50      1.0000 0.39400  0.13360  0.01350  Biso   1.000  C
  C51      1.0000 0.35020  0.13480  0.03420  Biso   1.000  C
  H25      1.0000 0.33940  0.15810  0.06470  Biso   1.000  H
  C52      1.0000 0.32200  0.10150  0.00990  Biso   1.000  C
  H26      1.0000 0.29260  0.10360  0.02280  Biso   1.000  H
  C53      1.0000 0.33690  0.06570  0.96740  Biso   1.000  C
  C54      1.0000 0.30480  0.03010  0.95020  Biso   1.000  C
  C55      1.0000 0.38150  0.06370  0.94080  Biso   1.000  C
  C56      1.0000 0.39920  0.02980  0.88970  Biso   1.000  C
  H27      1.0000 0.38070  0.00830  0.86980  Biso   1.000  H
  C57      1.0000 0.44190  0.02790  0.86950  Biso   1.000  C
  H28      1.0000 0.45220  0.00480  0.83770  Biso   1.000  H
  C58      1.0000 0.47110  0.06060  0.89650  Biso   1.000  C
  H29      1.0000 0.50030  0.05930  0.88210  Biso   1.000  H
  C59      1.0000 0.45570  0.09460  0.94430  Biso   1.000  C
  H30      1.0000 0.47500  0.11570  0.96290  Biso   1.000  H
  C60      1.0000 0.41080  0.09780  0.96600  Biso   1.000  C
  C61      1.0000 0.45600  0.17010  0.31790  Biso   1.000  C
  C62      1.0000 0.41990  0.13960  0.29480  Biso   1.000  C
  C63      1.0000 0.37890  0.14770  0.32590  Biso   1.000  C
  H31      1.0000 0.37420  0.17110  0.36120  Biso   1.000  H
  C64      1.0000 0.34410  0.11990  0.30350  Biso   1.000  C
  H32      1.0000 0.31660  0.12510  0.32540  Biso   1.000  H
  C65      1.0000 0.34960  0.08550  0.25060  Biso   1.000  C
  C66      1.0000 0.30890  0.06200  0.22410  Biso   1.000  C
  C67      1.0000 0.39230  0.07530  0.21710  Biso   1.000  C
  C68      1.0000 0.40160  0.04060  0.16420  Biso   1.000  C
  H33      1.0000 0.37940  0.02210  0.14700  Biso   1.000  H
  C69      1.0000 0.44260  0.03380  0.13810  Biso   1.000  C
  H34      1.0000 0.44790  0.00970  0.10450  Biso   1.000  H
  C70      1.0000 0.47780  0.06060  0.15830  Biso   1.000  C
  H35      1.0000 0.50550  0.05520  0.13790  Biso   1.000  H
  C71      1.0000 0.46950  0.09490  0.20910  Biso   1.000  C
  H36      1.0000 0.49230  0.11310  0.22410  Biso   1.000  H
  C72      1.0000 0.42720  0.10380  0.24000  Biso   1.000  C
  O13      1.0000 0.56545  0.17425  0.29240  Biso   1.000  O
  O14      1.0000 0.61028  0.21501  0.36420  Biso   1.000  O
  O15      1.0000 0.74959  0.02734  0.25720  Biso   1.000  O
  O16      1.0000 0.73097  0.04730  0.13040  Biso   1.000  O
  O17      1.0000 0.45401  0.18380  0.00430  Biso   1.000  O
  O18      1.0000 0.40926  0.18908  0.10950  Biso   1.000  O
  O19      1.0000 0.26866  0.03022  0.98850  Biso   1.000  O
  O20      1.0000 0.31205  0.00217  0.89540  Biso   1.000  O
  O21      1.0000 0.47253  0.19511  0.26600  Biso   1.000  O
  O22      1.0000 0.46812  0.17008  0.39260  Biso   1.000  O
  O23      1.0000 0.30939  0.04050  0.15800  Biso   1.000  O
  O24      1.0000 0.27533  0.06470  0.26690  Biso   1.000  O
  La3      1.0000 0.52717  0.23013  0.37940  Biso   1.000  La
  La4      1.0000 0.47572  0.23590  0.12923  Biso   1.000  La
  C73      1.0000 0.39630  0.81790  0.31850  Biso   1.000  C
  C74      1.0000 0.36050  0.84860  0.29350  Biso   1.000  C
  C75      1.0000 0.37340  0.88430  0.24890  Biso   1.000  C
  H37      1.0000 0.40270  0.88730  0.23550  Biso   1.000  H
  C76      1.0000 0.34430  0.91630  0.22300  Biso   1.000  C
  H38      1.0000 0.35430  0.93980  0.19220  Biso   1.000  H
  C77      1.0000 0.30090  0.91320  0.24270  Biso   1.000  C
  C78      1.0000 0.27160  0.94790  0.20910  Biso   1.000  C
  C79      1.0000 0.28600  0.87850  0.29260  Biso   1.000  C
  C80      1.0000 0.24180  0.87550  0.31250  Biso   1.000  C
  H39      1.0000 0.22220  0.89640  0.29430  Biso   1.000  H
  C81      1.0000 0.22820  0.84080  0.35990  Biso   1.000  C
  H40      1.0000 0.19880  0.83840  0.37260  Biso   1.000  H
  C82      1.0000 0.25660  0.80890  0.38960  Biso   1.000  C
  H41      1.0000 0.24680  0.78700  0.42480  Biso   1.000  H
  C83      1.0000 0.30020  0.81080  0.36500  Biso   1.000  C
  H42      1.0000 0.31920  0.78900  0.38220  Biso   1.000  H
  C84      1.0000 0.31600  0.84480  0.31510  Biso   1.000  C
  C85      1.0000 0.57980  0.82960  0.04470  Biso   1.000  C
  C86      1.0000 0.60600  0.86640  0.01350  Biso   1.000  C
  C87      1.0000 0.64980  0.86520  0.03420  Biso   1.000  C
  H43      1.0000 0.66060  0.84190  0.06470  Biso   1.000  H
  C88      1.0000 0.67800  0.89850  0.00990  Biso   1.000  C
  H44      1.0000 0.70740  0.89640  0.02280  Biso   1.000  H
  C89      1.0000 0.66310  0.93430  0.96740  Biso   1.000  C
  C90      1.0000 0.69520  0.96990  0.95020  Biso   1.000  C
  C91      1.0000 0.61850  0.93630  0.94080  Biso   1.000  C
  C92      1.0000 0.60080  0.97020  0.88970  Biso   1.000  C
  H45      1.0000 0.61930  0.99170  0.86980  Biso   1.000  H
  C93      1.0000 0.55810  0.97210  0.86950  Biso   1.000  C
  H46      1.0000 0.54780  0.99520  0.83770  Biso   1.000  H
  C94      1.0000 0.52890  0.93940  0.89650  Biso   1.000  C
  H47      1.0000 0.49970  0.94070  0.88210  Biso   1.000  H
  C95      1.0000 0.54430  0.90540  0.94430  Biso   1.000  C
  H48      1.0000 0.52500  0.88430  0.96290  Biso   1.000  H
  C96      1.0000 0.58920  0.90220  0.96600  Biso   1.000  C
  C97      1.0000 0.54400  0.82990  0.31790  Biso   1.000  C
  C98      1.0000 0.58010  0.86040  0.29480  Biso   1.000  C
  C99      1.0000 0.62110  0.85230  0.32590  Biso   1.000  C
  H49      1.0000 0.62580  0.82890  0.36120  Biso   1.000  H
  C100     1.0000 0.65590  0.88010  0.30350  Biso   1.000  C
  H50      1.0000 0.68340  0.87490  0.32540  Biso   1.000  H
  C101     1.0000 0.65040  0.91450  0.25060  Biso   1.000  C
  C102     1.0000 0.69110  0.93800  0.22410  Biso   1.000  C
  C103     1.0000 0.60770  0.92470  0.21710  Biso   1.000  C
  C104     1.0000 0.59840  0.95940  0.16420  Biso   1.000  C
  H51      1.0000 0.62060  0.97790  0.14700  Biso   1.000  H
  C105     1.0000 0.55740  0.96620  0.13810  Biso   1.000  C
  H52      1.0000 0.55210  0.99030  0.10450  Biso   1.000  H
  C106     1.0000 0.52220  0.93940  0.15830  Biso   1.000  C
  H53      1.0000 0.49450  0.94480  0.13790  Biso   1.000  H
  C107     1.0000 0.53050  0.90510  0.20910  Biso   1.000  C
  H54      1.0000 0.50770  0.88690  0.22410  Biso   1.000  H
  C108     1.0000 0.57280  0.89620  0.24000  Biso   1.000  C
  O25      1.0000 0.43455  0.82575  0.29240  Biso   1.000  O
  O26      1.0000 0.38972  0.78499  0.36420  Biso   1.000  O
  O27      1.0000 0.25041  0.97266  0.25720  Biso   1.000  O
  O28      1.0000 0.26903  0.95270  0.13040  Biso   1.000  O
  O29      1.0000 0.54599  0.81620  0.00430  Biso   1.000  O
  O30      1.0000 0.59074  0.81092  0.10950  Biso   1.000  O
  O31      1.0000 0.73134  0.96978  0.98850  Biso   1.000  O
  O32      1.0000 0.68795  0.99783  0.89540  Biso   1.000  O
  O33      1.0000 0.52747  0.80489  0.26600  Biso   1.000  O
  O34      1.0000 0.53188  0.82992  0.39260  Biso   1.000  O
  O35      1.0000 0.69061  0.95950  0.15800  Biso   1.000  O
  O36      1.0000 0.72467  0.93530  0.26690  Biso   1.000  O
  La5      1.0000 0.47283  0.76987  0.37940  Biso   1.000  La
  La6      1.0000 0.52428  0.76410  0.12923  Biso   1.000  La
  C109     1.0000 0.89630  0.31790  0.81850  Biso   1.000  C
  C110     1.0000 0.86050  0.34860  0.79350  Biso   1.000  C
  C111     1.0000 0.87340  0.38430  0.74890  Biso   1.000  C
  H55      1.0000 0.90270  0.38730  0.73550  Biso   1.000  H
  C112     1.0000 0.84430  0.41630  0.72300  Biso   1.000  C
  H56      1.0000 0.85430  0.43980  0.69220  Biso   1.000  H
  C113     1.0000 0.80090  0.41320  0.74270  Biso   1.000  C
  C114     1.0000 0.77160  0.44790  0.70910  Biso   1.000  C
  C115     1.0000 0.78600  0.37850  0.79260  Biso   1.000  C
  C116     1.0000 0.74180  0.37550  0.81250  Biso   1.000  C
  H57      1.0000 0.72220  0.39640  0.79430  Biso   1.000  H
  C117     1.0000 0.72820  0.34080  0.85990  Biso   1.000  C
  H58      1.0000 0.69880  0.33840  0.87260  Biso   1.000  H
  C118     1.0000 0.75660  0.30890  0.88960  Biso   1.000  C
  H59      1.0000 0.74680  0.28700  0.92480  Biso   1.000  H
  C119     1.0000 0.80020  0.31080  0.86500  Biso   1.000  C
  H60      1.0000 0.81920  0.28900  0.88220  Biso   1.000  H
  C120     1.0000 0.81600  0.34480  0.81510  Biso   1.000  C
  C121     1.0000 0.07980  0.32960  0.54470  Biso   1.000  C
  C122     1.0000 0.10600  0.36640  0.51350  Biso   1.000  C
  C123     1.0000 0.14980  0.36520  0.53420  Biso   1.000  C
  H61      1.0000 0.16060  0.34190  0.56470  Biso   1.000  H
  C124     1.0000 0.17800  0.39850  0.50990  Biso   1.000  C
  H62      1.0000 0.20740  0.39640  0.52280  Biso   1.000  H
  C125     1.0000 0.16310  0.43430  0.46740  Biso   1.000  C
  C126     1.0000 0.19520  0.46990  0.45020  Biso   1.000  C
  C127     1.0000 0.11850  0.43630  0.44080  Biso   1.000  C
  C128     1.0000 0.10080  0.47020  0.38970  Biso   1.000  C
  H63      1.0000 0.11930  0.49170  0.36980  Biso   1.000  H
  C129     1.0000 0.05810  0.47210  0.36950  Biso   1.000  C
  H64      1.0000 0.04780  0.49520  0.33770  Biso   1.000  H
  C130     1.0000 0.02890  0.43940  0.39650  Biso   1.000  C
  H65      1.0000 0.99970  0.44070  0.38210  Biso   1.000  H
  C131     1.0000 0.04430  0.40540  0.44430  Biso   1.000  C
  H66      1.0000 0.02500  0.38430  0.46290  Biso   1.000  H
  C132     1.0000 0.08920  0.40220  0.46600  Biso   1.000  C
  C133     1.0000 0.04400  0.32990  0.81790  Biso   1.000  C
  C134     1.0000 0.08010  0.36040  0.79480  Biso   1.000  C
  C135     1.0000 0.12110  0.35230  0.82590  Biso   1.000  C
  H67      1.0000 0.12580  0.32890  0.86120  Biso   1.000  H
  C136     1.0000 0.15590  0.38010  0.80350  Biso   1.000  C
  H68      1.0000 0.18340  0.37490  0.82540  Biso   1.000  H
  C137     1.0000 0.15040  0.41450  0.75060  Biso   1.000  C
  C138     1.0000 0.19110  0.43800  0.72410  Biso   1.000  C
  C139     1.0000 0.10770  0.42470  0.71710  Biso   1.000  C
  C140     1.0000 0.09840  0.45940  0.66420  Biso   1.000  C
  H69      1.0000 0.12060  0.47790  0.64700  Biso   1.000  H
  C141     1.0000 0.05740  0.46620  0.63810  Biso   1.000  C
  H70      1.0000 0.05210  0.49030  0.60450  Biso   1.000  H
  C142     1.0000 0.02220  0.43940  0.65830  Biso   1.000  C
  H71      1.0000 0.99450  0.44480  0.63790  Biso   1.000  H
  C143     1.0000 0.03050  0.40510  0.70910  Biso   1.000  C
  H72      1.0000 0.00770  0.38690  0.72410  Biso   1.000  H
  C144     1.0000 0.07280  0.39620  0.74000  Biso   1.000  C
  O37      1.0000 0.93455  0.32575  0.79240  Biso   1.000  O
  O38      1.0000 0.88972  0.28499  0.86420  Biso   1.000  O
  O39      1.0000 0.75041  0.47266  0.75720  Biso   1.000  O
  O40      1.0000 0.76903  0.45270  0.63040  Biso   1.000  O
  O41      1.0000 0.04599  0.31620  0.50430  Biso   1.000  O
  O42      1.0000 0.09074  0.31092  0.60950  Biso   1.000  O
  O43      1.0000 0.23134  0.46978  0.48850  Biso   1.000  O
  O44      1.0000 0.18795  0.49783  0.39540  Biso   1.000  O
  O45      1.0000 0.02747  0.30489  0.76600  Biso   1.000  O
  O46      1.0000 0.03188  0.32992  0.89260  Biso   1.000  O
  O47      1.0000 0.19061  0.45950  0.65800  Biso   1.000  O
  O48      1.0000 0.22467  0.43530  0.76690  Biso   1.000  O
  La7      1.0000 0.97283  0.26987  0.87940  Biso   1.000  La
  La8      1.0000 0.02428  0.26410  0.62923  Biso   1.000  La
  C145     1.0000 0.31790  0.60370  0.06850  Biso   1.000  C
  C146     1.0000 0.34860  0.63950  0.04350  Biso   1.000  C
  C147     1.0000 0.38430  0.62660  0.99890  Biso   1.000  C
  H73      1.0000 0.38730  0.59730  0.98550  Biso   1.000  H
  C148     1.0000 0.41630  0.65570  0.97300  Biso   1.000  C
  H74      1.0000 0.43980  0.64570  0.94220  Biso   1.000  H
  C149     1.0000 0.41320  0.69910  0.99270  Biso   1.000  C
  C150     1.0000 0.44790  0.72840  0.95910  Biso   1.000  C
  C151     1.0000 0.37850  0.71400  0.04260  Biso   1.000  C
  C152     1.0000 0.37550  0.75820  0.06250  Biso   1.000  C
  H75      1.0000 0.39640  0.77780  0.04430  Biso   1.000  H
  C153     1.0000 0.34080  0.77180  0.10990  Biso   1.000  C
  H76      1.0000 0.33840  0.80120  0.12260  Biso   1.000  H
  C154     1.0000 0.30890  0.74340  0.13960  Biso   1.000  C
  H77      1.0000 0.28700  0.75320  0.17480  Biso   1.000  H
  C155     1.0000 0.31080  0.69980  0.11500  Biso   1.000  C
  H78      1.0000 0.28900  0.68080  0.13220  Biso   1.000  H
  C156     1.0000 0.34480  0.68400  0.06510  Biso   1.000  C
  C157     1.0000 0.32960  0.42020  0.79470  Biso   1.000  C
  C158     1.0000 0.36640  0.39400  0.76350  Biso   1.000  C
  C159     1.0000 0.36520  0.35020  0.78420  Biso   1.000  C
  H79      1.0000 0.34190  0.33940  0.81470  Biso   1.000  H
  C160     1.0000 0.39850  0.32200  0.75990  Biso   1.000  C
  H80      1.0000 0.39640  0.29260  0.77280  Biso   1.000  H
  C161     1.0000 0.43430  0.33690  0.71740  Biso   1.000  C
  C162     1.0000 0.46990  0.30480  0.70020  Biso   1.000  C
  C163     1.0000 0.43630  0.38150  0.69080  Biso   1.000  C
  C164     1.0000 0.47020  0.39920  0.63970  Biso   1.000  C
  H81      1.0000 0.49170  0.38070  0.61980  Biso   1.000  H
  C165     1.0000 0.47210  0.44190  0.61950  Biso   1.000  C
  H82      1.0000 0.49520  0.45220  0.58770  Biso   1.000  H
  C166     1.0000 0.43940  0.47110  0.64650  Biso   1.000  C
  H83      1.0000 0.44070  0.50030  0.63210  Biso   1.000  H
  C167     1.0000 0.40540  0.45570  0.69430  Biso   1.000  C
  H84      1.0000 0.38430  0.47500  0.71290  Biso   1.000  H
  C168     1.0000 0.40220  0.41080  0.71600  Biso   1.000  C
  C169     1.0000 0.32990  0.45600  0.06790  Biso   1.000  C
  C170     1.0000 0.36040  0.41990  0.04480  Biso   1.000  C
  C171     1.0000 0.35230  0.37890  0.07590  Biso   1.000  C
  H85      1.0000 0.32890  0.37420  0.11120  Biso   1.000  H
  C172     1.0000 0.38010  0.34410  0.05350  Biso   1.000  C
  H86      1.0000 0.37490  0.31660  0.07540  Biso   1.000  H
  C173     1.0000 0.41450  0.34960  0.00060  Biso   1.000  C
  C174     1.0000 0.43800  0.30890  0.97410  Biso   1.000  C
  C175     1.0000 0.42470  0.39230  0.96710  Biso   1.000  C
  C176     1.0000 0.45940  0.40160  0.91420  Biso   1.000  C
  H87      1.0000 0.47790  0.37940  0.89700  Biso   1.000  H
  C177     1.0000 0.46620  0.44260  0.88810  Biso   1.000  C
  H88      1.0000 0.49030  0.44790  0.85450  Biso   1.000  H
  C178     1.0000 0.43940  0.47780  0.90830  Biso   1.000  C
  H89      1.0000 0.44480  0.50550  0.88790  Biso   1.000  H
  C179     1.0000 0.40510  0.46950  0.95910  Biso   1.000  C
  H90      1.0000 0.38690  0.49230  0.97410  Biso   1.000  H
  C180     1.0000 0.39620  0.42720  0.99000  Biso   1.000  C
  O49      1.0000 0.32575  0.56545  0.04240  Biso   1.000  O
  O50      1.0000 0.28499  0.61028  0.11420  Biso   1.000  O
  O51      1.0000 0.47266  0.74959  0.00720  Biso   1.000  O
  O52      1.0000 0.45270  0.73097  0.88040  Biso   1.000  O
  O53      1.0000 0.31620  0.45401  0.75430  Biso   1.000  O
  O54      1.0000 0.31092  0.40926  0.85950  Biso   1.000  O
  O55      1.0000 0.46978  0.26866  0.73850  Biso   1.000  O
  O56      1.0000 0.49783  0.31205  0.64540  Biso   1.000  O
  O57      1.0000 0.30489  0.47253  0.01600  Biso   1.000  O
  O58      1.0000 0.32992  0.46812  0.14260  Biso   1.000  O
  O59      1.0000 0.45950  0.30939  0.90800  Biso   1.000  O
  O60      1.0000 0.43530  0.27533  0.01690  Biso   1.000  O
  La9      1.0000 0.26987  0.52717  0.12940  Biso   1.000  La
  La10     1.0000 0.26410  0.47572  0.87923  Biso   1.000  La
  C181     1.0000 0.81790  0.10370  0.56850  Biso   1.000  C
  C182     1.0000 0.84860  0.13950  0.54350  Biso   1.000  C
  C183     1.0000 0.88430  0.12660  0.49890  Biso   1.000  C
  H91      1.0000 0.88730  0.09730  0.48550  Biso   1.000  H
  C184     1.0000 0.91630  0.15570  0.47300  Biso   1.000  C
  H92      1.0000 0.93980  0.14570  0.44220  Biso   1.000  H
  C185     1.0000 0.91320  0.19910  0.49270  Biso   1.000  C
  C186     1.0000 0.94790  0.22840  0.45910  Biso   1.000  C
  C187     1.0000 0.87850  0.21400  0.54260  Biso   1.000  C
  C188     1.0000 0.87550  0.25820  0.56250  Biso   1.000  C
  H93      1.0000 0.89640  0.27780  0.54430  Biso   1.000  H
  C189     1.0000 0.84080  0.27180  0.60990  Biso   1.000  C
  H94      1.0000 0.83840  0.30120  0.62260  Biso   1.000  H
  C190     1.0000 0.80890  0.24340  0.63960  Biso   1.000  C
  H95      1.0000 0.78700  0.25320  0.67480  Biso   1.000  H
  C191     1.0000 0.81080  0.19980  0.61500  Biso   1.000  C
  H96      1.0000 0.78900  0.18080  0.63220  Biso   1.000  H
  C192     1.0000 0.84480  0.18400  0.56510  Biso   1.000  C
  C193     1.0000 0.82960  0.92020  0.29470  Biso   1.000  C
  C194     1.0000 0.86640  0.89400  0.26350  Biso   1.000  C
  C195     1.0000 0.86520  0.85020  0.28420  Biso   1.000  C
  H97      1.0000 0.84190  0.83940  0.31470  Biso   1.000  H
  C196     1.0000 0.89850  0.82200  0.25990  Biso   1.000  C
  H98      1.0000 0.89640  0.79260  0.27280  Biso   1.000  H
  C197     1.0000 0.93430  0.83690  0.21740  Biso   1.000  C
  C198     1.0000 0.96990  0.80480  0.20020  Biso   1.000  C
  C199     1.0000 0.93630  0.88150  0.19080  Biso   1.000  C
  C200     1.0000 0.97020  0.89920  0.13970  Biso   1.000  C
  H99      1.0000 0.99170  0.88070  0.11980  Biso   1.000  H
  C201     1.0000 0.97210  0.94190  0.11950  Biso   1.000  C
  H100     1.0000 0.99520  0.95220  0.08770  Biso   1.000  H
  C202     1.0000 0.93940  0.97110  0.14650  Biso   1.000  C
  H101     1.0000 0.94070  0.00030  0.13210  Biso   1.000  H
  C203     1.0000 0.90540  0.95570  0.19430  Biso   1.000  C
  H102     1.0000 0.88430  0.97500  0.21290  Biso   1.000  H
  C204     1.0000 0.90220  0.91080  0.21600  Biso   1.000  C
  C205     1.0000 0.82990  0.95600  0.56790  Biso   1.000  C
  C206     1.0000 0.86040  0.91990  0.54480  Biso   1.000  C
  C207     1.0000 0.85230  0.87890  0.57590  Biso   1.000  C
  H103     1.0000 0.82890  0.87420  0.61120  Biso   1.000  H
  C208     1.0000 0.88010  0.84410  0.55350  Biso   1.000  C
  H104     1.0000 0.87490  0.81660  0.57540  Biso   1.000  H
  C209     1.0000 0.91450  0.84960  0.50060  Biso   1.000  C
  C210     1.0000 0.93800  0.80890  0.47410  Biso   1.000  C
  C211     1.0000 0.92470  0.89230  0.46710  Biso   1.000  C
  C212     1.0000 0.95940  0.90160  0.41420  Biso   1.000  C
  H105     1.0000 0.97790  0.87940  0.39700  Biso   1.000  H
  C213     1.0000 0.96620  0.94260  0.38810  Biso   1.000  C
  H106     1.0000 0.99030  0.94790  0.35450  Biso   1.000  H
  C214     1.0000 0.93940  0.97780  0.40830  Biso   1.000  C
  H107     1.0000 0.94480  0.00550  0.38790  Biso   1.000  H
  C215     1.0000 0.90510  0.96950  0.45910  Biso   1.000  C
  H108     1.0000 0.88690  0.99230  0.47410  Biso   1.000  H
  C216     1.0000 0.89620  0.92720  0.49000  Biso   1.000  C
  O61      1.0000 0.82575  0.06545  0.54240  Biso   1.000  O
  O62      1.0000 0.78499  0.11028  0.61420  Biso   1.000  O
  O63      1.0000 0.97266  0.24959  0.50720  Biso   1.000  O
  O64      1.0000 0.95270  0.23097  0.38040  Biso   1.000  O
  O65      1.0000 0.81620  0.95401  0.25430  Biso   1.000  O
  O66      1.0000 0.81092  0.90926  0.35950  Biso   1.000  O
  O67      1.0000 0.96978  0.76866  0.23850  Biso   1.000  O
  O68      1.0000 0.99783  0.81205  0.14540  Biso   1.000  O
  O69      1.0000 0.80489  0.97253  0.51600  Biso   1.000  O
  O70      1.0000 0.82992  0.96812  0.64260  Biso   1.000  O
  O71      1.0000 0.95950  0.80939  0.40800  Biso   1.000  O
  O72      1.0000 0.93530  0.77533  0.51690  Biso   1.000  O
  La11     1.0000 0.76987  0.02717  0.62940  Biso   1.000  La
  La12     1.0000 0.76410  0.97572  0.37923  Biso   1.000  La
  C217     1.0000 0.18210  0.89630  0.56850  Biso   1.000  C
  C218     1.0000 0.15140  0.86050  0.54350  Biso   1.000  C
  C219     1.0000 0.11570  0.87340  0.49890  Biso   1.000  C
  H109     1.0000 0.11270  0.90270  0.48550  Biso   1.000  H
  C220     1.0000 0.08370  0.84430  0.47300  Biso   1.000  C
  H110     1.0000 0.06020  0.85430  0.44220  Biso   1.000  H
  C221     1.0000 0.08680  0.80090  0.49270  Biso   1.000  C
  C222     1.0000 0.05210  0.77160  0.45910  Biso   1.000  C
  C223     1.0000 0.12150  0.78600  0.54260  Biso   1.000  C
  C224     1.0000 0.12450  0.74180  0.56250  Biso   1.000  C
  H111     1.0000 0.10360  0.72220  0.54430  Biso   1.000  H
  C225     1.0000 0.15920  0.72820  0.60990  Biso   1.000  C
  H112     1.0000 0.16160  0.69880  0.62260  Biso   1.000  H
  C226     1.0000 0.19110  0.75660  0.63960  Biso   1.000  C
  H113     1.0000 0.21300  0.74680  0.67480  Biso   1.000  H
  C227     1.0000 0.18920  0.80020  0.61500  Biso   1.000  C
  H114     1.0000 0.21100  0.81920  0.63220  Biso   1.000  H
  C228     1.0000 0.15520  0.81600  0.56510  Biso   1.000  C
  C229     1.0000 0.17040  0.07980  0.29470  Biso   1.000  C
  C230     1.0000 0.13360  0.10600  0.26350  Biso   1.000  C
  C231     1.0000 0.13480  0.14980  0.28420  Biso   1.000  C
  H115     1.0000 0.15810  0.16060  0.31470  Biso   1.000  H
  C232     1.0000 0.10150  0.17800  0.25990  Biso   1.000  C
  H116     1.0000 0.10360  0.20740  0.27280  Biso   1.000  H
  C233     1.0000 0.06570  0.16310  0.21740  Biso   1.000  C
  C234     1.0000 0.03010  0.19520  0.20020  Biso   1.000  C
  C235     1.0000 0.06370  0.11850  0.19080  Biso   1.000  C
  C236     1.0000 0.02980  0.10080  0.13970  Biso   1.000  C
  H117     1.0000 0.00830  0.11930  0.11980  Biso   1.000  H
  C237     1.0000 0.02790  0.05810  0.11950  Biso   1.000  C
  H118     1.0000 0.00480  0.04780  0.08770  Biso   1.000  H
  C238     1.0000 0.06060  0.02890  0.14650  Biso   1.000  C
  H119     1.0000 0.05930  0.99970  0.13210  Biso   1.000  H
  C239     1.0000 0.09460  0.04430  0.19430  Biso   1.000  C
  H120     1.0000 0.11570  0.02500  0.21290  Biso   1.000  H
  C240     1.0000 0.09780  0.08920  0.21600  Biso   1.000  C
  C241     1.0000 0.17010  0.04400  0.56790  Biso   1.000  C
  C242     1.0000 0.13960  0.08010  0.54480  Biso   1.000  C
  C243     1.0000 0.14770  0.12110  0.57590  Biso   1.000  C
  H121     1.0000 0.17110  0.12580  0.61120  Biso   1.000  H
  C244     1.0000 0.11990  0.15590  0.55350  Biso   1.000  C
  H122     1.0000 0.12510  0.18340  0.57540  Biso   1.000  H
  C245     1.0000 0.08550  0.15040  0.50060  Biso   1.000  C
  C246     1.0000 0.06200  0.19110  0.47410  Biso   1.000  C
  C247     1.0000 0.07530  0.10770  0.46710  Biso   1.000  C
  C248     1.0000 0.04060  0.09840  0.41420  Biso   1.000  C
  H123     1.0000 0.02210  0.12060  0.39700  Biso   1.000  H
  C249     1.0000 0.03380  0.05740  0.38810  Biso   1.000  C
  H124     1.0000 0.00970  0.05210  0.35450  Biso   1.000  H
  C250     1.0000 0.06060  0.02220  0.40830  Biso   1.000  C
  H125     1.0000 0.05520  0.99450  0.38790  Biso   1.000  H
  C251     1.0000 0.09490  0.03050  0.45910  Biso   1.000  C
  H126     1.0000 0.11310  0.00770  0.47410  Biso   1.000  H
  C252     1.0000 0.10380  0.07280  0.49000  Biso   1.000  C
  O73      1.0000 0.17425  0.93455  0.54240  Biso   1.000  O
  O74      1.0000 0.21501  0.88972  0.61420  Biso   1.000  O
  O75      1.0000 0.02734  0.75041  0.50720  Biso   1.000  O
  O76      1.0000 0.04730  0.76903  0.38040  Biso   1.000  O
  O77      1.0000 0.18380  0.04599  0.25430  Biso   1.000  O
  O78      1.0000 0.18908  0.09074  0.35950  Biso   1.000  O
  O79      1.0000 0.03022  0.23134  0.23850  Biso   1.000  O
  O80      1.0000 0.00217  0.18795  0.14540  Biso   1.000  O
  O81      1.0000 0.19511  0.02747  0.51600  Biso   1.000  O
  O82      1.0000 0.17008  0.03188  0.64260  Biso   1.000  O
  O83      1.0000 0.04050  0.19061  0.40800  Biso   1.000  O
  O84      1.0000 0.06470  0.22467  0.51690  Biso   1.000  O
  La13     1.0000 0.23013  0.97283  0.62940  Biso   1.000  La
  La14     1.0000 0.23590  0.02428  0.37923  Biso   1.000  La
  C253     1.0000 0.68210  0.39630  0.06850  Biso   1.000  C
  C254     1.0000 0.65140  0.36050  0.04350  Biso   1.000  C
  C255     1.0000 0.61570  0.37340  0.99890  Biso   1.000  C
  H127     1.0000 0.61270  0.40270  0.98550  Biso   1.000  H
  C256     1.0000 0.58370  0.34430  0.97300  Biso   1.000  C
  H128     1.0000 0.56020  0.35430  0.94220  Biso   1.000  H
  C257     1.0000 0.58680  0.30090  0.99270  Biso   1.000  C
  C258     1.0000 0.55210  0.27160  0.95910  Biso   1.000  C
  C259     1.0000 0.62150  0.28600  0.04260  Biso   1.000  C
  C260     1.0000 0.62450  0.24180  0.06250  Biso   1.000  C
  H129     1.0000 0.60360  0.22220  0.04430  Biso   1.000  H
  C261     1.0000 0.65920  0.22820  0.10990  Biso   1.000  C
  H130     1.0000 0.66160  0.19880  0.12260  Biso   1.000  H
  C262     1.0000 0.69110  0.25660  0.13960  Biso   1.000  C
  H131     1.0000 0.71300  0.24680  0.17480  Biso   1.000  H
  C263     1.0000 0.68920  0.30020  0.11500  Biso   1.000  C
  H132     1.0000 0.71100  0.31920  0.13220  Biso   1.000  H
  C264     1.0000 0.65520  0.31600  0.06510  Biso   1.000  C
  C265     1.0000 0.67040  0.57980  0.79470  Biso   1.000  C
  C266     1.0000 0.63360  0.60600  0.76350  Biso   1.000  C
  C267     1.0000 0.63480  0.64980  0.78420  Biso   1.000  C
  H133     1.0000 0.65810  0.66060  0.81470  Biso   1.000  H
  C268     1.0000 0.60150  0.67800  0.75990  Biso   1.000  C
  H134     1.0000 0.60360  0.70740  0.77280  Biso   1.000  H
  C269     1.0000 0.56570  0.66310  0.71740  Biso   1.000  C
  C270     1.0000 0.53010  0.69520  0.70020  Biso   1.000  C
  C271     1.0000 0.56370  0.61850  0.69080  Biso   1.000  C
  C272     1.0000 0.52980  0.60080  0.63970  Biso   1.000  C
  H135     1.0000 0.50830  0.61930  0.61980  Biso   1.000  H
  C273     1.0000 0.52790  0.55810  0.61950  Biso   1.000  C
  H136     1.0000 0.50480  0.54780  0.58770  Biso   1.000  H
  C274     1.0000 0.56060  0.52890  0.64650  Biso   1.000  C
  H137     1.0000 0.55930  0.49970  0.63210  Biso   1.000  H
  C275     1.0000 0.59460  0.54430  0.69430  Biso   1.000  C
  H138     1.0000 0.61570  0.52500  0.71290  Biso   1.000  H
  C276     1.0000 0.59780  0.58920  0.71600  Biso   1.000  C
  C277     1.0000 0.67010  0.54400  0.06790  Biso   1.000  C
  C278     1.0000 0.63960  0.58010  0.04480  Biso   1.000  C
  C279     1.0000 0.64770  0.62110  0.07590  Biso   1.000  C
  H139     1.0000 0.67110  0.62580  0.11120  Biso   1.000  H
  C280     1.0000 0.61990  0.65590  0.05350  Biso   1.000  C
  H140     1.0000 0.62510  0.68340  0.07540  Biso   1.000  H
  C281     1.0000 0.58550  0.65040  0.00060  Biso   1.000  C
  C282     1.0000 0.56200  0.69110  0.97410  Biso   1.000  C
  C283     1.0000 0.57530  0.60770  0.96710  Biso   1.000  C
  C284     1.0000 0.54060  0.59840  0.91420  Biso   1.000  C
  H141     1.0000 0.52210  0.62060  0.89700  Biso   1.000  H
  C285     1.0000 0.53380  0.55740  0.88810  Biso   1.000  C
  H142     1.0000 0.50970  0.55210  0.85450  Biso   1.000  H
  C286     1.0000 0.56060  0.52220  0.90830  Biso   1.000  C
  H143     1.0000 0.55520  0.49450  0.88790  Biso   1.000  H
  C287     1.0000 0.59490  0.53050  0.95910  Biso   1.000  C
  H144     1.0000 0.61310  0.50770  0.97410  Biso   1.000  H
  C288     1.0000 0.60380  0.57280  0.99000  Biso   1.000  C
  O85      1.0000 0.67425  0.43455  0.04240  Biso   1.000  O
  O86      1.0000 0.71501  0.38972  0.11420  Biso   1.000  O
  O87      1.0000 0.52734  0.25041  0.00720  Biso   1.000  O
  O88      1.0000 0.54730  0.26903  0.88040  Biso   1.000  O
  O89      1.0000 0.68380  0.54599  0.75430  Biso   1.000  O
  O90      1.0000 0.68908  0.59074  0.85950  Biso   1.000  O
  O91      1.0000 0.53022  0.73134  0.73850  Biso   1.000  O
  O92      1.0000 0.50217  0.68795  0.64540  Biso   1.000  O
  O93      1.0000 0.69511  0.52747  0.01600  Biso   1.000  O
  O94      1.0000 0.67008  0.53188  0.14260  Biso   1.000  O
  O95      1.0000 0.54050  0.69061  0.90800  Biso   1.000  O
  O96      1.0000 0.56470  0.72467  0.01690  Biso   1.000  O
  La15     1.0000 0.73013  0.47283  0.12940  Biso   1.000  La
  La16     1.0000 0.73590  0.52428  0.87923  Biso   1.000  La
  C289     1.0000 0.10370  0.31790  0.31850  Biso   1.000  C
  C290     1.0000 0.13950  0.34860  0.29350  Biso   1.000  C
  C291     1.0000 0.12660  0.38430  0.24890  Biso   1.000  C
  H145     1.0000 0.09730  0.38730  0.23550  Biso   1.000  H
  C292     1.0000 0.15570  0.41630  0.22300  Biso   1.000  C
  H146     1.0000 0.14570  0.43980  0.19220  Biso   1.000  H
  C293     1.0000 0.19910  0.41320  0.24270  Biso   1.000  C
  C294     1.0000 0.22840  0.44790  0.20910  Biso   1.000  C
  C295     1.0000 0.21400  0.37850  0.29260  Biso   1.000  C
  C296     1.0000 0.25820  0.37550  0.31250  Biso   1.000  C
  H147     1.0000 0.27780  0.39640  0.29430  Biso   1.000  H
  C297     1.0000 0.27180  0.34080  0.35990  Biso   1.000  C
  H148     1.0000 0.30120  0.33840  0.37260  Biso   1.000  H
  C298     1.0000 0.24340  0.30890  0.38960  Biso   1.000  C
  H149     1.0000 0.25320  0.28700  0.42480  Biso   1.000  H
  C299     1.0000 0.19980  0.31080  0.36500  Biso   1.000  C
  H150     1.0000 0.18080  0.28900  0.38220  Biso   1.000  H
  C300     1.0000 0.18400  0.34480  0.31510  Biso   1.000  C
  C301     1.0000 0.92020  0.32960  0.04470  Biso   1.000  C
  C302     1.0000 0.89400  0.36640  0.01350  Biso   1.000  C
  C303     1.0000 0.85020  0.36520  0.03420  Biso   1.000  C
  H151     1.0000 0.83940  0.34190  0.06470  Biso   1.000  H
  C304     1.0000 0.82200  0.39850  0.00990  Biso   1.000  C
  H152     1.0000 0.79260  0.39640  0.02280  Biso   1.000  H
  C305     1.0000 0.83690  0.43430  0.96740  Biso   1.000  C
  C306     1.0000 0.80480  0.46990  0.95020  Biso   1.000  C
  C307     1.0000 0.88150  0.43630  0.94080  Biso   1.000  C
  C308     1.0000 0.89920  0.47020  0.88970  Biso   1.000  C
  H153     1.0000 0.88070  0.49170  0.86980  Biso   1.000  H
  C309     1.0000 0.94190  0.47210  0.86950  Biso   1.000  C
  H154     1.0000 0.95220  0.49520  0.83770  Biso   1.000  H
  C310     1.0000 0.97110  0.43940  0.89650  Biso   1.000  C
  H155     1.0000 0.00030  0.44070  0.88210  Biso   1.000  H
  C311     1.0000 0.95570  0.40540  0.94430  Biso   1.000  C
  H156     1.0000 0.97500  0.38430  0.96290  Biso   1.000  H
  C312     1.0000 0.91080  0.40220  0.96600  Biso   1.000  C
  C313     1.0000 0.95600  0.32990  0.31790  Biso   1.000  C
  C314     1.0000 0.91990  0.36040  0.29480  Biso   1.000  C
  C315     1.0000 0.87890  0.35230  0.32590  Biso   1.000  C
  H157     1.0000 0.87420  0.32890  0.36120  Biso   1.000  H
  C316     1.0000 0.84410  0.38010  0.30350  Biso   1.000  C
  H158     1.0000 0.81660  0.37490  0.32540  Biso   1.000  H
  C317     1.0000 0.84960  0.41450  0.25060  Biso   1.000  C
  C318     1.0000 0.80890  0.43800  0.22410  Biso   1.000  C
  C319     1.0000 0.89230  0.42470  0.21710  Biso   1.000  C
  C320     1.0000 0.90160  0.45940  0.16420  Biso   1.000  C
  H159     1.0000 0.87940  0.47790  0.14700  Biso   1.000  H
  C321     1.0000 0.94260  0.46620  0.13810  Biso   1.000  C
  H160     1.0000 0.94790  0.49030  0.10450  Biso   1.000  H
  C322     1.0000 0.97780  0.43940  0.15830  Biso   1.000  C
  H161     1.0000 0.00550  0.44480  0.13790  Biso   1.000  H
  C323     1.0000 0.96950  0.40510  0.20910  Biso   1.000  C
  H162     1.0000 0.99230  0.38690  0.22410  Biso   1.000  H
  C324     1.0000 0.92720  0.39620  0.24000  Biso   1.000  C
  O97      1.0000 0.06545  0.32575  0.29240  Biso   1.000  O
  O98      1.0000 0.11028  0.28499  0.36420  Biso   1.000  O
  O99      1.0000 0.24959  0.47266  0.25720  Biso   1.000  O
  O100     1.0000 0.23097  0.45270  0.13040  Biso   1.000  O
  O101     1.0000 0.95401  0.31620  0.00430  Biso   1.000  O
  O102     1.0000 0.90926  0.31092  0.10950  Biso   1.000  O
  O103     1.0000 0.76866  0.46978  0.98850  Biso   1.000  O
  O104     1.0000 0.81205  0.49783  0.89540  Biso   1.000  O
  O105     1.0000 0.97253  0.30489  0.26600  Biso   1.000  O
  O106     1.0000 0.96812  0.32992  0.39260  Biso   1.000  O
  O107     1.0000 0.80939  0.45950  0.15800  Biso   1.000  O
  O108     1.0000 0.77533  0.43530  0.26690  Biso   1.000  O
  La17     1.0000 0.02717  0.26987  0.37940  Biso   1.000  La
  La18     1.0000 0.97572  0.26410  0.12923  Biso   1.000  La
  C325     1.0000 0.60370  0.81790  0.81850  Biso   1.000  C
  C326     1.0000 0.63950  0.84860  0.79350  Biso   1.000  C
  C327     1.0000 0.62660  0.88430  0.74890  Biso   1.000  C
  H163     1.0000 0.59730  0.88730  0.73550  Biso   1.000  H
  C328     1.0000 0.65570  0.91630  0.72300  Biso   1.000  C
  H164     1.0000 0.64570  0.93980  0.69220  Biso   1.000  H
  C329     1.0000 0.69910  0.91320  0.74270  Biso   1.000  C
  C330     1.0000 0.72840  0.94790  0.70910  Biso   1.000  C
  C331     1.0000 0.71400  0.87850  0.79260  Biso   1.000  C
  C332     1.0000 0.75820  0.87550  0.81250  Biso   1.000  C
  H165     1.0000 0.77780  0.89640  0.79430  Biso   1.000  H
  C333     1.0000 0.77180  0.84080  0.85990  Biso   1.000  C
  H166     1.0000 0.80120  0.83840  0.87260  Biso   1.000  H
  C334     1.0000 0.74340  0.80890  0.88960  Biso   1.000  C
  H167     1.0000 0.75320  0.78700  0.92480  Biso   1.000  H
  C335     1.0000 0.69980  0.81080  0.86500  Biso   1.000  C
  H168     1.0000 0.68080  0.78900  0.88220  Biso   1.000  H
  C336     1.0000 0.68400  0.84480  0.81510  Biso   1.000  C
  C337     1.0000 0.42020  0.82960  0.54470  Biso   1.000  C
  C338     1.0000 0.39400  0.86640  0.51350  Biso   1.000  C
  C339     1.0000 0.35020  0.86520  0.53420  Biso   1.000  C
  H169     1.0000 0.33940  0.84190  0.56470  Biso   1.000  H
  C340     1.0000 0.32200  0.89850  0.50990  Biso   1.000  C
  H170     1.0000 0.29260  0.89640  0.52280  Biso   1.000  H
  C341     1.0000 0.33690  0.93430  0.46740  Biso   1.000  C
  C342     1.0000 0.30480  0.96990  0.45020  Biso   1.000  C
  C343     1.0000 0.38150  0.93630  0.44080  Biso   1.000  C
  C344     1.0000 0.39920  0.97020  0.38970  Biso   1.000  C
  H171     1.0000 0.38070  0.99170  0.36980  Biso   1.000  H
  C345     1.0000 0.44190  0.97210  0.36950  Biso   1.000  C
  H172     1.0000 0.45220  0.99520  0.33770  Biso   1.000  H
  C346     1.0000 0.47110  0.93940  0.39650  Biso   1.000  C
  H173     1.0000 0.50030  0.94070  0.38210  Biso   1.000  H
  C347     1.0000 0.45570  0.90540  0.44430  Biso   1.000  C
  H174     1.0000 0.47500  0.88430  0.46290  Biso   1.000  H
  C348     1.0000 0.41080  0.90220  0.46600  Biso   1.000  C
  C349     1.0000 0.45600  0.82990  0.81790  Biso   1.000  C
  C350     1.0000 0.41990  0.86040  0.79480  Biso   1.000  C
  C351     1.0000 0.37890  0.85230  0.82590  Biso   1.000  C
  H175     1.0000 0.37420  0.82890  0.86120  Biso   1.000  H
  C352     1.0000 0.34410  0.88010  0.80350  Biso   1.000  C
  H176     1.0000 0.31660  0.87490  0.82540  Biso   1.000  H
  C353     1.0000 0.34960  0.91450  0.75060  Biso   1.000  C
  C354     1.0000 0.30890  0.93800  0.72410  Biso   1.000  C
  C355     1.0000 0.39230  0.92470  0.71710  Biso   1.000  C
  C356     1.0000 0.40160  0.95940  0.66420  Biso   1.000  C
  H177     1.0000 0.37940  0.97790  0.64700  Biso   1.000  H
  C357     1.0000 0.44260  0.96620  0.63810  Biso   1.000  C
  H178     1.0000 0.44790  0.99030  0.60450  Biso   1.000  H
  C358     1.0000 0.47780  0.93940  0.65830  Biso   1.000  C
  H179     1.0000 0.50550  0.94480  0.63790  Biso   1.000  H
  C359     1.0000 0.46950  0.90510  0.70910  Biso   1.000  C
  H180     1.0000 0.49230  0.88690  0.72410  Biso   1.000  H
  C360     1.0000 0.42720  0.89620  0.74000  Biso   1.000  C
  O109     1.0000 0.56545  0.82575  0.79240  Biso   1.000  O
  O110     1.0000 0.61028  0.78499  0.86420  Biso   1.000  O
  O111     1.0000 0.74959  0.97266  0.75720  Biso   1.000  O
  O112     1.0000 0.73097  0.95270  0.63040  Biso   1.000  O
  O113     1.0000 0.45401  0.81620  0.50430  Biso   1.000  O
  O114     1.0000 0.40926  0.81092  0.60950  Biso   1.000  O
  O115     1.0000 0.26866  0.96978  0.48850  Biso   1.000  O
  O116     1.0000 0.31205  0.99783  0.39540  Biso   1.000  O
  O117     1.0000 0.47253  0.80489  0.76600  Biso   1.000  O
  O118     1.0000 0.46812  0.82992  0.89260  Biso   1.000  O
  O119     1.0000 0.30939  0.95950  0.65800  Biso   1.000  O
  O120     1.0000 0.27533  0.93530  0.76690  Biso   1.000  O
  La19     1.0000 0.52717  0.76987  0.87940  Biso   1.000  La
  La20     1.0000 0.47572  0.76410  0.62923  Biso   1.000  La
  C361     1.0000 0.39630  0.18210  0.81850  Biso   1.000  C
  C362     1.0000 0.36050  0.15140  0.79350  Biso   1.000  C
  C363     1.0000 0.37340  0.11570  0.74890  Biso   1.000  C
  H181     1.0000 0.40270  0.11270  0.73550  Biso   1.000  H
  C364     1.0000 0.34430  0.08370  0.72300  Biso   1.000  C
  H182     1.0000 0.35430  0.06020  0.69220  Biso   1.000  H
  C365     1.0000 0.30090  0.08680  0.74270  Biso   1.000  C
  C366     1.0000 0.27160  0.05210  0.70910  Biso   1.000  C
  C367     1.0000 0.28600  0.12150  0.79260  Biso   1.000  C
  C368     1.0000 0.24180  0.12450  0.81250  Biso   1.000  C
  H183     1.0000 0.22220  0.10360  0.79430  Biso   1.000  H
  C369     1.0000 0.22820  0.15920  0.85990  Biso   1.000  C
  H184     1.0000 0.19880  0.16160  0.87260  Biso   1.000  H
  C370     1.0000 0.25660  0.19110  0.88960  Biso   1.000  C
  H185     1.0000 0.24680  0.21300  0.92480  Biso   1.000  H
  C371     1.0000 0.30020  0.18920  0.86500  Biso   1.000  C
  H186     1.0000 0.31920  0.21100  0.88220  Biso   1.000  H
  C372     1.0000 0.31600  0.15520  0.81510  Biso   1.000  C
  C373     1.0000 0.57980  0.17040  0.54470  Biso   1.000  C
  C374     1.0000 0.60600  0.13360  0.51350  Biso   1.000  C
  C375     1.0000 0.64980  0.13480  0.53420  Biso   1.000  C
  H187     1.0000 0.66060  0.15810  0.56470  Biso   1.000  H
  C376     1.0000 0.67800  0.10150  0.50990  Biso   1.000  C
  H188     1.0000 0.70740  0.10360  0.52280  Biso   1.000  H
  C377     1.0000 0.66310  0.06570  0.46740  Biso   1.000  C
  C378     1.0000 0.69520  0.03010  0.45020  Biso   1.000  C
  C379     1.0000 0.61850  0.06370  0.44080  Biso   1.000  C
  C380     1.0000 0.60080  0.02980  0.38970  Biso   1.000  C
  H189     1.0000 0.61930  0.00830  0.36980  Biso   1.000  H
  C381     1.0000 0.55810  0.02790  0.36950  Biso   1.000  C
  H190     1.0000 0.54780  0.00480  0.33770  Biso   1.000  H
  C382     1.0000 0.52890  0.06060  0.39650  Biso   1.000  C
  H191     1.0000 0.49970  0.05930  0.38210  Biso   1.000  H
  C383     1.0000 0.54430  0.09460  0.44430  Biso   1.000  C
  H192     1.0000 0.52500  0.11570  0.46290  Biso   1.000  H
  C384     1.0000 0.58920  0.09780  0.46600  Biso   1.000  C
  C385     1.0000 0.54400  0.17010  0.81790  Biso   1.000  C
  C386     1.0000 0.58010  0.13960  0.79480  Biso   1.000  C
  C387     1.0000 0.62110  0.14770  0.82590  Biso   1.000  C
  H193     1.0000 0.62580  0.17110  0.86120  Biso   1.000  H
  C388     1.0000 0.65590  0.11990  0.80350  Biso   1.000  C
  H194     1.0000 0.68340  0.12510  0.82540  Biso   1.000  H
  C389     1.0000 0.65040  0.08550  0.75060  Biso   1.000  C
  C390     1.0000 0.69110  0.06200  0.72410  Biso   1.000  C
  C391     1.0000 0.60770  0.07530  0.71710  Biso   1.000  C
  C392     1.0000 0.59840  0.04060  0.66420  Biso   1.000  C
  H195     1.0000 0.62060  0.02210  0.64700  Biso   1.000  H
  C393     1.0000 0.55740  0.03380  0.63810  Biso   1.000  C
  H196     1.0000 0.55210  0.00970  0.60450  Biso   1.000  H
  C394     1.0000 0.52220  0.06060  0.65830  Biso   1.000  C
  H197     1.0000 0.49450  0.05520  0.63790  Biso   1.000  H
  C395     1.0000 0.53050  0.09490  0.70910  Biso   1.000  C
  H198     1.0000 0.50770  0.11310  0.72410  Biso   1.000  H
  C396     1.0000 0.57280  0.10380  0.74000  Biso   1.000  C
  O121     1.0000 0.43455  0.17425  0.79240  Biso   1.000  O
  O122     1.0000 0.38972  0.21501  0.86420  Biso   1.000  O
  O123     1.0000 0.25041  0.02734  0.75720  Biso   1.000  O
  O124     1.0000 0.26903  0.04730  0.63040  Biso   1.000  O
  O125     1.0000 0.54599  0.18380  0.50430  Biso   1.000  O
  O126     1.0000 0.59074  0.18908  0.60950  Biso   1.000  O
  O127     1.0000 0.73134  0.03022  0.48850  Biso   1.000  O
  O128     1.0000 0.68795  0.00217  0.39540  Biso   1.000  O
  O129     1.0000 0.52747  0.19511  0.76600  Biso   1.000  O
  O130     1.0000 0.53188  0.17008  0.89260  Biso   1.000  O
  O131     1.0000 0.69061  0.04050  0.65800  Biso   1.000  O
  O132     1.0000 0.72467  0.06470  0.76690  Biso   1.000  O
  La21     1.0000 0.47283  0.23013  0.87940  Biso   1.000  La
  La22     1.0000 0.52428  0.23590  0.62923  Biso   1.000  La
  C397     1.0000 0.89630  0.68210  0.31850  Biso   1.000  C
  C398     1.0000 0.86050  0.65140  0.29350  Biso   1.000  C
  C399     1.0000 0.87340  0.61570  0.24890  Biso   1.000  C
  H199     1.0000 0.90270  0.61270  0.23550  Biso   1.000  H
  C400     1.0000 0.84430  0.58370  0.22300  Biso   1.000  C
  H200     1.0000 0.85430  0.56020  0.19220  Biso   1.000  H
  C401     1.0000 0.80090  0.58680  0.24270  Biso   1.000  C
  C402     1.0000 0.77160  0.55210  0.20910  Biso   1.000  C
  C403     1.0000 0.78600  0.62150  0.29260  Biso   1.000  C
  C404     1.0000 0.74180  0.62450  0.31250  Biso   1.000  C
  H201     1.0000 0.72220  0.60360  0.29430  Biso   1.000  H
  C405     1.0000 0.72820  0.65920  0.35990  Biso   1.000  C
  H202     1.0000 0.69880  0.66160  0.37260  Biso   1.000  H
  C406     1.0000 0.75660  0.69110  0.38960  Biso   1.000  C
  H203     1.0000 0.74680  0.71300  0.42480  Biso   1.000  H
  C407     1.0000 0.80020  0.68920  0.36500  Biso   1.000  C
  H204     1.0000 0.81920  0.71100  0.38220  Biso   1.000  H
  C408     1.0000 0.81600  0.65520  0.31510  Biso   1.000  C
  C409     1.0000 0.07980  0.67040  0.04470  Biso   1.000  C
  C410     1.0000 0.10600  0.63360  0.01350  Biso   1.000  C
  C411     1.0000 0.14980  0.63480  0.03420  Biso   1.000  C
  H205     1.0000 0.16060  0.65810  0.06470  Biso   1.000  H
  C412     1.0000 0.17800  0.60150  0.00990  Biso   1.000  C
  H206     1.0000 0.20740  0.60360  0.02280  Biso   1.000  H
  C413     1.0000 0.16310  0.56570  0.96740  Biso   1.000  C
  C414     1.0000 0.19520  0.53010  0.95020  Biso   1.000  C
  C415     1.0000 0.11850  0.56370  0.94080  Biso   1.000  C
  C416     1.0000 0.10080  0.52980  0.88970  Biso   1.000  C
  H207     1.0000 0.11930  0.50830  0.86980  Biso   1.000  H
  C417     1.0000 0.05810  0.52790  0.86950  Biso   1.000  C
  H208     1.0000 0.04780  0.50480  0.83770  Biso   1.000  H
  C418     1.0000 0.02890  0.56060  0.89650  Biso   1.000  C
  H209     1.0000 0.99970  0.55930  0.88210  Biso   1.000  H
  C419     1.0000 0.04430  0.59460  0.94430  Biso   1.000  C
  H210     1.0000 0.02500  0.61570  0.96290  Biso   1.000  H
  C420     1.0000 0.08920  0.59780  0.96600  Biso   1.000  C
  C421     1.0000 0.04400  0.67010  0.31790  Biso   1.000  C
  C422     1.0000 0.08010  0.63960  0.29480  Biso   1.000  C
  C423     1.0000 0.12110  0.64770  0.32590  Biso   1.000  C
  H211     1.0000 0.12580  0.67110  0.36120  Biso   1.000  H
  C424     1.0000 0.15590  0.61990  0.30350  Biso   1.000  C
  H212     1.0000 0.18340  0.62510  0.32540  Biso   1.000  H
  C425     1.0000 0.15040  0.58550  0.25060  Biso   1.000  C
  C426     1.0000 0.19110  0.56200  0.22410  Biso   1.000  C
  C427     1.0000 0.10770  0.57530  0.21710  Biso   1.000  C
  C428     1.0000 0.09840  0.54060  0.16420  Biso   1.000  C
  H213     1.0000 0.12060  0.52210  0.14700  Biso   1.000  H
  C429     1.0000 0.05740  0.53380  0.13810  Biso   1.000  C
  H214     1.0000 0.05210  0.50970  0.10450  Biso   1.000  H
  C430     1.0000 0.02220  0.56060  0.15830  Biso   1.000  C
  H215     1.0000 0.99450  0.55520  0.13790  Biso   1.000  H
  C431     1.0000 0.03050  0.59490  0.20910  Biso   1.000  C
  H216     1.0000 0.00770  0.61310  0.22410  Biso   1.000  H
  C432     1.0000 0.07280  0.60380  0.24000  Biso   1.000  C
  O133     1.0000 0.93455  0.67425  0.29240  Biso   1.000  O
  O134     1.0000 0.88972  0.71501  0.36420  Biso   1.000  O
  O135     1.0000 0.75041  0.52734  0.25720  Biso   1.000  O
  O136     1.0000 0.76903  0.54730  0.13040  Biso   1.000  O
  O137     1.0000 0.04599  0.68380  0.00430  Biso   1.000  O
  O138     1.0000 0.09074  0.68908  0.10950  Biso   1.000  O
  O139     1.0000 0.23134  0.53022  0.98850  Biso   1.000  O
  O140     1.0000 0.18795  0.50217  0.89540  Biso   1.000  O
  O141     1.0000 0.02747  0.69511  0.26600  Biso   1.000  O
  O142     1.0000 0.03188  0.67008  0.39260  Biso   1.000  O
  O143     1.0000 0.19061  0.54050  0.15800  Biso   1.000  O
  O144     1.0000 0.22467  0.56470  0.26690  Biso   1.000  O
  La23     1.0000 0.97283  0.73013  0.37940  Biso   1.000  La
  La24     1.0000 0.02428  0.73590  0.12923  Biso   1.000  La
  C433     1.0000 0.31790  0.39630  0.56850  Biso   1.000  C
  C434     1.0000 0.34860  0.36050  0.54350  Biso   1.000  C
  C435     1.0000 0.38430  0.37340  0.49890  Biso   1.000  C
  H217     1.0000 0.38730  0.40270  0.48550  Biso   1.000  H
  C436     1.0000 0.41630  0.34430  0.47300  Biso   1.000  C
  H218     1.0000 0.43980  0.35430  0.44220  Biso   1.000  H
  C437     1.0000 0.41320  0.30090  0.49270  Biso   1.000  C
  C438     1.0000 0.44790  0.27160  0.45910  Biso   1.000  C
  C439     1.0000 0.37850  0.28600  0.54260  Biso   1.000  C
  C440     1.0000 0.37550  0.24180  0.56250  Biso   1.000  C
  H219     1.0000 0.39640  0.22220  0.54430  Biso   1.000  H
  C441     1.0000 0.34080  0.22820  0.60990  Biso   1.000  C
  H220     1.0000 0.33840  0.19880  0.62260  Biso   1.000  H
  C442     1.0000 0.30890  0.25660  0.63960  Biso   1.000  C
  H221     1.0000 0.28700  0.24680  0.67480  Biso   1.000  H
  C443     1.0000 0.31080  0.30020  0.61500  Biso   1.000  C
  H222     1.0000 0.28900  0.31920  0.63220  Biso   1.000  H
  C444     1.0000 0.34480  0.31600  0.56510  Biso   1.000  C
  C445     1.0000 0.32960  0.57980  0.29470  Biso   1.000  C
  C446     1.0000 0.36640  0.60600  0.26350  Biso   1.000  C
  C447     1.0000 0.36520  0.64980  0.28420  Biso   1.000  C
  H223     1.0000 0.34190  0.66060  0.31470  Biso   1.000  H
  C448     1.0000 0.39850  0.67800  0.25990  Biso   1.000  C
  H224     1.0000 0.39640  0.70740  0.27280  Biso   1.000  H
  C449     1.0000 0.43430  0.66310  0.21740  Biso   1.000  C
  C450     1.0000 0.46990  0.69520  0.20020  Biso   1.000  C
  C451     1.0000 0.43630  0.61850  0.19080  Biso   1.000  C
  C452     1.0000 0.47020  0.60080  0.13970  Biso   1.000  C
  H225     1.0000 0.49170  0.61930  0.11980  Biso   1.000  H
  C453     1.0000 0.47210  0.55810  0.11950  Biso   1.000  C
  H226     1.0000 0.49520  0.54780  0.08770  Biso   1.000  H
  C454     1.0000 0.43940  0.52890  0.14650  Biso   1.000  C
  H227     1.0000 0.44070  0.49970  0.13210  Biso   1.000  H
  C455     1.0000 0.40540  0.54430  0.19430  Biso   1.000  C
  H228     1.0000 0.38430  0.52500  0.21290  Biso   1.000  H
  C456     1.0000 0.40220  0.58920  0.21600  Biso   1.000  C
  C457     1.0000 0.32990  0.54400  0.56790  Biso   1.000  C
  C458     1.0000 0.36040  0.58010  0.54480  Biso   1.000  C
  C459     1.0000 0.35230  0.62110  0.57590  Biso   1.000  C
  H229     1.0000 0.32890  0.62580  0.61120  Biso   1.000  H
  C460     1.0000 0.38010  0.65590  0.55350  Biso   1.000  C
  H230     1.0000 0.37490  0.68340  0.57540  Biso   1.000  H
  C461     1.0000 0.41450  0.65040  0.50060  Biso   1.000  C
  C462     1.0000 0.43800  0.69110  0.47410  Biso   1.000  C
  C463     1.0000 0.42470  0.60770  0.46710  Biso   1.000  C
  C464     1.0000 0.45940  0.59840  0.41420  Biso   1.000  C
  H231     1.0000 0.47790  0.62060  0.39700  Biso   1.000  H
  C465     1.0000 0.46620  0.55740  0.38810  Biso   1.000  C
  H232     1.0000 0.49030  0.55210  0.35450  Biso   1.000  H
  C466     1.0000 0.43940  0.52220  0.40830  Biso   1.000  C
  H233     1.0000 0.44480  0.49450  0.38790  Biso   1.000  H
  C467     1.0000 0.40510  0.53050  0.45910  Biso   1.000  C
  H234     1.0000 0.38690  0.50770  0.47410  Biso   1.000  H
  C468     1.0000 0.39620  0.57280  0.49000  Biso   1.000  C
  O145     1.0000 0.32575  0.43455  0.54240  Biso   1.000  O
  O146     1.0000 0.28499  0.38972  0.61420  Biso   1.000  O
  O147     1.0000 0.47266  0.25041  0.50720  Biso   1.000  O
  O148     1.0000 0.45270  0.26903  0.38040  Biso   1.000  O
  O149     1.0000 0.31620  0.54599  0.25430  Biso   1.000  O
  O150     1.0000 0.31092  0.59074  0.35950  Biso   1.000  O
  O151     1.0000 0.46978  0.73134  0.23850  Biso   1.000  O
  O152     1.0000 0.49783  0.68795  0.14540  Biso   1.000  O
  O153     1.0000 0.30489  0.52747  0.51600  Biso   1.000  O
  O154     1.0000 0.32992  0.53188  0.64260  Biso   1.000  O
  O155     1.0000 0.45950  0.69061  0.40800  Biso   1.000  O
  O156     1.0000 0.43530  0.72467  0.51690  Biso   1.000  O
  La25     1.0000 0.26987  0.47283  0.62940  Biso   1.000  La
  La26     1.0000 0.26410  0.52428  0.37923  Biso   1.000  La
  C469     1.0000 0.81790  0.89630  0.06850  Biso   1.000  C
  C470     1.0000 0.84860  0.86050  0.04350  Biso   1.000  C
  C471     1.0000 0.88430  0.87340  0.99890  Biso   1.000  C
  H235     1.0000 0.88730  0.90270  0.98550  Biso   1.000  H
  C472     1.0000 0.91630  0.84430  0.97300  Biso   1.000  C
  H236     1.0000 0.93980  0.85430  0.94220  Biso   1.000  H
  C473     1.0000 0.91320  0.80090  0.99270  Biso   1.000  C
  C474     1.0000 0.94790  0.77160  0.95910  Biso   1.000  C
  C475     1.0000 0.87850  0.78600  0.04260  Biso   1.000  C
  C476     1.0000 0.87550  0.74180  0.06250  Biso   1.000  C
  H237     1.0000 0.89640  0.72220  0.04430  Biso   1.000  H
  C477     1.0000 0.84080  0.72820  0.10990  Biso   1.000  C
  H238     1.0000 0.83840  0.69880  0.12260  Biso   1.000  H
  C478     1.0000 0.80890  0.75660  0.13960  Biso   1.000  C
  H239     1.0000 0.78700  0.74680  0.17480  Biso   1.000  H
  C479     1.0000 0.81080  0.80020  0.11500  Biso   1.000  C
  H240     1.0000 0.78900  0.81920  0.13220  Biso   1.000  H
  C480     1.0000 0.84480  0.81600  0.06510  Biso   1.000  C
  C481     1.0000 0.82960  0.07980  0.79470  Biso   1.000  C
  C482     1.0000 0.86640  0.10600  0.76350  Biso   1.000  C
  C483     1.0000 0.86520  0.14980  0.78420  Biso   1.000  C
  H241     1.0000 0.84190  0.16060  0.81470  Biso   1.000  H
  C484     1.0000 0.89850  0.17800  0.75990  Biso   1.000  C
  H242     1.0000 0.89640  0.20740  0.77280  Biso   1.000  H
  C485     1.0000 0.93430  0.16310  0.71740  Biso   1.000  C
  C486     1.0000 0.96990  0.19520  0.70020  Biso   1.000  C
  C487     1.0000 0.93630  0.11850  0.69080  Biso   1.000  C
  C488     1.0000 0.97020  0.10080  0.63970  Biso   1.000  C
  H243     1.0000 0.99170  0.11930  0.61980  Biso   1.000  H
  C489     1.0000 0.97210  0.05810  0.61950  Biso   1.000  C
  H244     1.0000 0.99520  0.04780  0.58770  Biso   1.000  H
  C490     1.0000 0.93940  0.02890  0.64650  Biso   1.000  C
  H245     1.0000 0.94070  0.99970  0.63210  Biso   1.000  H
  C491     1.0000 0.90540  0.04430  0.69430  Biso   1.000  C
  H246     1.0000 0.88430  0.02500  0.71290  Biso   1.000  H
  C492     1.0000 0.90220  0.08920  0.71600  Biso   1.000  C
  C493     1.0000 0.82990  0.04400  0.06790  Biso   1.000  C
  C494     1.0000 0.86040  0.08010  0.04480  Biso   1.000  C
  C495     1.0000 0.85230  0.12110  0.07590  Biso   1.000  C
  H247     1.0000 0.82890  0.12580  0.11120  Biso   1.000  H
  C496     1.0000 0.88010  0.15590  0.05350  Biso   1.000  C
  H248     1.0000 0.87490  0.18340  0.07540  Biso   1.000  H
  C497     1.0000 0.91450  0.15040  0.00060  Biso   1.000  C
  C498     1.0000 0.93800  0.19110  0.97410  Biso   1.000  C
  C499     1.0000 0.92470  0.10770  0.96710  Biso   1.000  C
  C500     1.0000 0.95940  0.09840  0.91420  Biso   1.000  C
  H249     1.0000 0.97790  0.12060  0.89700  Biso   1.000  H
  C501     1.0000 0.96620  0.05740  0.88810  Biso   1.000  C
  H250     1.0000 0.99030  0.05210  0.85450  Biso   1.000  H
  C502     1.0000 0.93940  0.02220  0.90830  Biso   1.000  C
  H251     1.0000 0.94480  0.99450  0.88790  Biso   1.000  H
  C503     1.0000 0.90510  0.03050  0.95910  Biso   1.000  C
  H252     1.0000 0.88690  0.00770  0.97410  Biso   1.000  H
  C504     1.0000 0.89620  0.07280  0.99000  Biso   1.000  C
  O157     1.0000 0.82575  0.93455  0.04240  Biso   1.000  O
  O158     1.0000 0.78499  0.88972  0.11420  Biso   1.000  O
  O159     1.0000 0.97266  0.75041  0.00720  Biso   1.000  O
  O160     1.0000 0.95270  0.76903  0.88040  Biso   1.000  O
  O161     1.0000 0.81620  0.04599  0.75430  Biso   1.000  O
  O162     1.0000 0.81092  0.09074  0.85950  Biso   1.000  O
  O163     1.0000 0.96978  0.23134  0.73850  Biso   1.000  O
  O164     1.0000 0.99783  0.18795  0.64540  Biso   1.000  O
  O165     1.0000 0.80489  0.02747  0.01600  Biso   1.000  O
  O166     1.0000 0.82992  0.03188  0.14260  Biso   1.000  O
  O167     1.0000 0.95950  0.19061  0.90800  Biso   1.000  O
  O168     1.0000 0.93530  0.22467  0.01690  Biso   1.000  O
  La27     1.0000 0.76987  0.97283  0.12940  Biso   1.000  La
  La28     1.0000 0.76410  0.02428  0.87923  Biso   1.000  La
  C505     1.0000 0.18210  0.10370  0.06850  Biso   1.000  C
  C506     1.0000 0.15140  0.13950  0.04350  Biso   1.000  C
  C507     1.0000 0.11570  0.12660  0.99890  Biso   1.000  C
  H253     1.0000 0.11270  0.09730  0.98550  Biso   1.000  H
  C508     1.0000 0.08370  0.15570  0.97300  Biso   1.000  C
  H254     1.0000 0.06020  0.14570  0.94220  Biso   1.000  H
  C509     1.0000 0.08680  0.19910  0.99270  Biso   1.000  C
  C510     1.0000 0.05210  0.22840  0.95910  Biso   1.000  C
  C511     1.0000 0.12150  0.21400  0.04260  Biso   1.000  C
  C512     1.0000 0.12450  0.25820  0.06250  Biso   1.000  C
  H255     1.0000 0.10360  0.27780  0.04430  Biso   1.000  H
  C513     1.0000 0.15920  0.27180  0.10990  Biso   1.000  C
  H256     1.0000 0.16160  0.30120  0.12260  Biso   1.000  H
  C514     1.0000 0.19110  0.24340  0.13960  Biso   1.000  C
  H257     1.0000 0.21300  0.25320  0.17480  Biso   1.000  H
  C515     1.0000 0.18920  0.19980  0.11500  Biso   1.000  C
  H258     1.0000 0.21100  0.18080  0.13220  Biso   1.000  H
  C516     1.0000 0.15520  0.18400  0.06510  Biso   1.000  C
  C517     1.0000 0.17040  0.92020  0.79470  Biso   1.000  C
  C518     1.0000 0.13360  0.89400  0.76350  Biso   1.000  C
  C519     1.0000 0.13480  0.85020  0.78420  Biso   1.000  C
  H259     1.0000 0.15810  0.83940  0.81470  Biso   1.000  H
  C520     1.0000 0.10150  0.82200  0.75990  Biso   1.000  C
  H260     1.0000 0.10360  0.79260  0.77280  Biso   1.000  H
  C521     1.0000 0.06570  0.83690  0.71740  Biso   1.000  C
  C522     1.0000 0.03010  0.80480  0.70020  Biso   1.000  C
  C523     1.0000 0.06370  0.88150  0.69080  Biso   1.000  C
  C524     1.0000 0.02980  0.89920  0.63970  Biso   1.000  C
  H261     1.0000 0.00830  0.88070  0.61980  Biso   1.000  H
  C525     1.0000 0.02790  0.94190  0.61950  Biso   1.000  C
  H262     1.0000 0.00480  0.95220  0.58770  Biso   1.000  H
  C526     1.0000 0.06060  0.97110  0.64650  Biso   1.000  C
  H263     1.0000 0.05930  0.00030  0.63210  Biso   1.000  H
  C527     1.0000 0.09460  0.95570  0.69430  Biso   1.000  C
  H264     1.0000 0.11570  0.97500  0.71290  Biso   1.000  H
  C528     1.0000 0.09780  0.91080  0.71600  Biso   1.000  C
  C529     1.0000 0.17010  0.95600  0.06790  Biso   1.000  C
  C530     1.0000 0.13960  0.91990  0.04480  Biso   1.000  C
  C531     1.0000 0.14770  0.87890  0.07590  Biso   1.000  C
  H265     1.0000 0.17110  0.87420  0.11120  Biso   1.000  H
  C532     1.0000 0.11990  0.84410  0.05350  Biso   1.000  C
  H266     1.0000 0.12510  0.81660  0.07540  Biso   1.000  H
  C533     1.0000 0.08550  0.84960  0.00060  Biso   1.000  C
  C534     1.0000 0.06200  0.80890  0.97410  Biso   1.000  C
  C535     1.0000 0.07530  0.89230  0.96710  Biso   1.000  C
  C536     1.0000 0.04060  0.90160  0.91420  Biso   1.000  C
  H267     1.0000 0.02210  0.87940  0.89700  Biso   1.000  H
  C537     1.0000 0.03380  0.94260  0.88810  Biso   1.000  C
  H268     1.0000 0.00970  0.94790  0.85450  Biso   1.000  H
  C538     1.0000 0.06060  0.97780  0.90830  Biso   1.000  C
  H269     1.0000 0.05520  0.00550  0.88790  Biso   1.000  H
  C539     1.0000 0.09490  0.96950  0.95910  Biso   1.000  C
  H270     1.0000 0.11310  0.99230  0.97410  Biso   1.000  H
  C540     1.0000 0.10380  0.92720  0.99000  Biso   1.000  C
  O169     1.0000 0.17425  0.06545  0.04240  Biso   1.000  O
  O170     1.0000 0.21501  0.11028  0.11420  Biso   1.000  O
  O171     1.0000 0.02734  0.24959  0.00720  Biso   1.000  O
  O172     1.0000 0.04730  0.23097  0.88040  Biso   1.000  O
  O173     1.0000 0.18380  0.95401  0.75430  Biso   1.000  O
  O174     1.0000 0.18908  0.90926  0.85950  Biso   1.000  O
  O175     1.0000 0.03022  0.76866  0.73850  Biso   1.000  O
  O176     1.0000 0.00217  0.81205  0.64540  Biso   1.000  O
  O177     1.0000 0.19511  0.97253  0.01600  Biso   1.000  O
  O178     1.0000 0.17008  0.96812  0.14260  Biso   1.000  O
  O179     1.0000 0.04050  0.80939  0.90800  Biso   1.000  O
  O180     1.0000 0.06470  0.77533  0.01690  Biso   1.000  O
  La29     1.0000 0.23013  0.02717  0.12940  Biso   1.000  La
  La30     1.0000 0.23590  0.97572  0.87923  Biso   1.000  La
  C541     1.0000 0.68210  0.60370  0.56850  Biso   1.000  C
  C542     1.0000 0.65140  0.63950  0.54350  Biso   1.000  C
  C543     1.0000 0.61570  0.62660  0.49890  Biso   1.000  C
  H271     1.0000 0.61270  0.59730  0.48550  Biso   1.000  H
  C544     1.0000 0.58370  0.65570  0.47300  Biso   1.000  C
  H272     1.0000 0.56020  0.64570  0.44220  Biso   1.000  H
  C545     1.0000 0.58680  0.69910  0.49270  Biso   1.000  C
  C546     1.0000 0.55210  0.72840  0.45910  Biso   1.000  C
  C547     1.0000 0.62150  0.71400  0.54260  Biso   1.000  C
  C548     1.0000 0.62450  0.75820  0.56250  Biso   1.000  C
  H273     1.0000 0.60360  0.77780  0.54430  Biso   1.000  H
  C549     1.0000 0.65920  0.77180  0.60990  Biso   1.000  C
  H274     1.0000 0.66160  0.80120  0.62260  Biso   1.000  H
  C550     1.0000 0.69110  0.74340  0.63960  Biso   1.000  C
  H275     1.0000 0.71300  0.75320  0.67480  Biso   1.000  H
  C551     1.0000 0.68920  0.69980  0.61500  Biso   1.000  C
  H276     1.0000 0.71100  0.68080  0.63220  Biso   1.000  H
  C552     1.0000 0.65520  0.68400  0.56510  Biso   1.000  C
  C553     1.0000 0.67040  0.42020  0.29470  Biso   1.000  C
  C554     1.0000 0.63360  0.39400  0.26350  Biso   1.000  C
  C555     1.0000 0.63480  0.35020  0.28420  Biso   1.000  C
  H277     1.0000 0.65810  0.33940  0.31470  Biso   1.000  H
  C556     1.0000 0.60150  0.32200  0.25990  Biso   1.000  C
  H278     1.0000 0.60360  0.29260  0.27280  Biso   1.000  H
  C557     1.0000 0.56570  0.33690  0.21740  Biso   1.000  C
  C558     1.0000 0.53010  0.30480  0.20020  Biso   1.000  C
  C559     1.0000 0.56370  0.38150  0.19080  Biso   1.000  C
  C560     1.0000 0.52980  0.39920  0.13970  Biso   1.000  C
  H279     1.0000 0.50830  0.38070  0.11980  Biso   1.000  H
  C561     1.0000 0.52790  0.44190  0.11950  Biso   1.000  C
  H280     1.0000 0.50480  0.45220  0.08770  Biso   1.000  H
  C562     1.0000 0.56060  0.47110  0.14650  Biso   1.000  C
  H281     1.0000 0.55930  0.50030  0.13210  Biso   1.000  H
  C563     1.0000 0.59460  0.45570  0.19430  Biso   1.000  C
  H282     1.0000 0.61570  0.47500  0.21290  Biso   1.000  H
  C564     1.0000 0.59780  0.41080  0.21600  Biso   1.000  C
  C565     1.0000 0.67010  0.45600  0.56790  Biso   1.000  C
  C566     1.0000 0.63960  0.41990  0.54480  Biso   1.000  C
  C567     1.0000 0.64770  0.37890  0.57590  Biso   1.000  C
  H283     1.0000 0.67110  0.37420  0.61120  Biso   1.000  H
  C568     1.0000 0.61990  0.34410  0.55350  Biso   1.000  C
  H284     1.0000 0.62510  0.31660  0.57540  Biso   1.000  H
  C569     1.0000 0.58550  0.34960  0.50060  Biso   1.000  C
  C570     1.0000 0.56200  0.30890  0.47410  Biso   1.000  C
  C571     1.0000 0.57530  0.39230  0.46710  Biso   1.000  C
  C572     1.0000 0.54060  0.40160  0.41420  Biso   1.000  C
  H285     1.0000 0.52210  0.37940  0.39700  Biso   1.000  H
  C573     1.0000 0.53380  0.44260  0.38810  Biso   1.000  C
  H286     1.0000 0.50970  0.44790  0.35450  Biso   1.000  H
  C574     1.0000 0.56060  0.47780  0.40830  Biso   1.000  C
  H287     1.0000 0.55520  0.50550  0.38790  Biso   1.000  H
  C575     1.0000 0.59490  0.46950  0.45910  Biso   1.000  C
  H288     1.0000 0.61310  0.49230  0.47410  Biso   1.000  H
  C576     1.0000 0.60380  0.42720  0.49000  Biso   1.000  C
  O181     1.0000 0.67425  0.56545  0.54240  Biso   1.000  O
  O182     1.0000 0.71501  0.61028  0.61420  Biso   1.000  O
  O183     1.0000 0.52734  0.74959  0.50720  Biso   1.000  O
  O184     1.0000 0.54730  0.73097  0.38040  Biso   1.000  O
  O185     1.0000 0.68380  0.45401  0.25430  Biso   1.000  O
  O186     1.0000 0.68908  0.40926  0.35950  Biso   1.000  O
  O187     1.0000 0.53022  0.26866  0.23850  Biso   1.000  O
  O188     1.0000 0.50217  0.31205  0.14540  Biso   1.000  O
  O189     1.0000 0.69511  0.47253  0.51600  Biso   1.000  O
  O190     1.0000 0.67008  0.46812  0.64260  Biso   1.000  O
  O191     1.0000 0.54050  0.30939  0.40800  Biso   1.000  O
  O192     1.0000 0.56470  0.27533  0.51690  Biso   1.000  O
  La31     1.0000 0.73013  0.52717  0.62940  Biso   1.000  La
  La32     1.0000 0.73590  0.47572  0.37923  Biso   1.000  La
