data_image0
_cell_length_a       27.2658
_cell_length_b       27.2658
_cell_length_c       27.2658
_cell_angle_alpha    90
_cell_angle_beta     90
_cell_angle_gamma    90

_symmetry_space_group_name_H-M    "P 1"
_symmetry_int_tables_number       1

loop_
  _symmetry_equiv_pos_as_xyz
  'x, y, z'

loop_
  _atom_site_label
  _atom_site_occupancy
  _atom_site_fract_x
  _atom_site_fract_y
  _atom_site_fract_z
  _atom_site_thermal_displace_type
  _atom_site_B_iso_or_equiv
  _atom_site_type_symbol
  O1       1.0000 0.11220  0.97354  0.41358  Biso   1.000  O
  O2       1.0000 0.18231  0.98087  0.45350  Biso   1.000  O
  O3       1.0000 0.17529  0.07989  0.45469  Biso   1.000  O
  S1       1.0000 0.11097  0.12227  0.53624  Biso   1.000  S
  C1       1.0000 0.14530  0.99760  0.43290  Biso   1.000  C
  C2       1.0000 0.13700  0.05130  0.43190  Biso   1.000  C
  H1       1.0000 0.13360  0.06180  0.39740  Biso   1.000  H
  H2       1.0000 0.10560  0.05850  0.44870  Biso   1.000  H
  C3       1.0000 0.16525  0.12965  0.45080  Biso   1.000  C
  C4       1.0000 0.13773  0.15316  0.48640  Biso   1.000  C
  C5       1.0000 0.18320  0.15620  0.41030  Biso   1.000  C
  C6       1.0000 0.17010  0.20530  0.40490  Biso   1.000  C
  H3       1.0000 0.18200  0.22290  0.37730  Biso   1.000  H
  C7       1.0000 0.14020  0.22940  0.43880  Biso   1.000  C
  C8       1.0000 0.12590  0.20310  0.48010  Biso   1.000  C
  H4       1.0000 0.10750  0.21930  0.50490  Biso   1.000  H
  C9       1.0000 0.12520  0.28290  0.43110  Biso   1.000  C
  C10      1.0000 0.08890  0.29910  0.46740  Biso   1.000  C
  H5       1.0000 0.10060  0.29130  0.50050  Biso   1.000  H
  H6       1.0000 0.05770  0.28220  0.46150  Biso   1.000  H
  H7       1.0000 0.08400  0.33460  0.46440  Biso   1.000  H
  C11      1.0000 0.17350  0.31480  0.43700  Biso   1.000  C
  H8       1.0000 0.18590  0.31170  0.47060  Biso   1.000  H
  H9       1.0000 0.16590  0.34930  0.43010  Biso   1.000  H
  H10      1.0000 0.19840  0.30310  0.41390  Biso   1.000  H
  C12      1.0000 0.10730  0.29060  0.37860  Biso   1.000  C
  H11      1.0000 0.13300  0.28050  0.35560  Biso   1.000  H
  H12      1.0000 0.09970  0.32540  0.37350  Biso   1.000  H
  H13      1.0000 0.07780  0.27100  0.37300  Biso   1.000  H
  O4       1.0000 0.61220  0.47354  0.91358  Biso   1.000  O
  O5       1.0000 0.68231  0.48087  0.95350  Biso   1.000  O
  O6       1.0000 0.67529  0.57989  0.95469  Biso   1.000  O
  S2       1.0000 0.61097  0.62227  0.03624  Biso   1.000  S
  C13      1.0000 0.64530  0.49760  0.93290  Biso   1.000  C
  C14      1.0000 0.63700  0.55130  0.93190  Biso   1.000  C
  H14      1.0000 0.63360  0.56180  0.89740  Biso   1.000  H
  H15      1.0000 0.60560  0.55850  0.94870  Biso   1.000  H
  C15      1.0000 0.66525  0.62965  0.95080  Biso   1.000  C
  C16      1.0000 0.63773  0.65316  0.98640  Biso   1.000  C
  C17      1.0000 0.68320  0.65620  0.91030  Biso   1.000  C
  C18      1.0000 0.67010  0.70530  0.90490  Biso   1.000  C
  H16      1.0000 0.68200  0.72290  0.87730  Biso   1.000  H
  C19      1.0000 0.64020  0.72940  0.93880  Biso   1.000  C
  C20      1.0000 0.62590  0.70310  0.98010  Biso   1.000  C
  H17      1.0000 0.60750  0.71930  0.00490  Biso   1.000  H
  C21      1.0000 0.62520  0.78290  0.93110  Biso   1.000  C
  C22      1.0000 0.58890  0.79910  0.96740  Biso   1.000  C
  H18      1.0000 0.60060  0.79130  0.00050  Biso   1.000  H
  H19      1.0000 0.55770  0.78220  0.96150  Biso   1.000  H
  H20      1.0000 0.58400  0.83460  0.96440  Biso   1.000  H
  C23      1.0000 0.67350  0.81480  0.93700  Biso   1.000  C
  H21      1.0000 0.68590  0.81170  0.97060  Biso   1.000  H
  H22      1.0000 0.66590  0.84930  0.93010  Biso   1.000  H
  H23      1.0000 0.69840  0.80310  0.91390  Biso   1.000  H
  C24      1.0000 0.60730  0.79060  0.87860  Biso   1.000  C
  H24      1.0000 0.63300  0.78050  0.85560  Biso   1.000  H
  H25      1.0000 0.59970  0.82540  0.87350  Biso   1.000  H
  H26      1.0000 0.57780  0.77100  0.87300  Biso   1.000  H
  O7       1.0000 0.38780  0.02646  0.91358  Biso   1.000  O
  O8       1.0000 0.31769  0.01913  0.95350  Biso   1.000  O
  O9       1.0000 0.32471  0.92011  0.95469  Biso   1.000  O
  S3       1.0000 0.38903  0.87773  0.03624  Biso   1.000  S
  C25      1.0000 0.35470  0.00240  0.93290  Biso   1.000  C
  C26      1.0000 0.36300  0.94870  0.93190  Biso   1.000  C
  H27      1.0000 0.36640  0.93820  0.89740  Biso   1.000  H
  H28      1.0000 0.39440  0.94150  0.94870  Biso   1.000  H
  C27      1.0000 0.33475  0.87035  0.95080  Biso   1.000  C
  C28      1.0000 0.36227  0.84684  0.98640  Biso   1.000  C
  C29      1.0000 0.31680  0.84380  0.91030  Biso   1.000  C
  C30      1.0000 0.32990  0.79470  0.90490  Biso   1.000  C
  H29      1.0000 0.31800  0.77710  0.87730  Biso   1.000  H
  C31      1.0000 0.35980  0.77060  0.93880  Biso   1.000  C
  C32      1.0000 0.37410  0.79690  0.98010  Biso   1.000  C
  H30      1.0000 0.39250  0.78070  0.00490  Biso   1.000  H
  C33      1.0000 0.37480  0.71710  0.93110  Biso   1.000  C
  C34      1.0000 0.41110  0.70090  0.96740  Biso   1.000  C
  H31      1.0000 0.39940  0.70870  0.00050  Biso   1.000  H
  H32      1.0000 0.44230  0.71780  0.96150  Biso   1.000  H
  H33      1.0000 0.41600  0.66540  0.96440  Biso   1.000  H
  C35      1.0000 0.32650  0.68520  0.93700  Biso   1.000  C
  H34      1.0000 0.31410  0.68830  0.97060  Biso   1.000  H
  H35      1.0000 0.33410  0.65070  0.93010  Biso   1.000  H
  H36      1.0000 0.30160  0.69690  0.91390  Biso   1.000  H
  C36      1.0000 0.39270  0.70940  0.87860  Biso   1.000  C
  H37      1.0000 0.36700  0.71950  0.85560  Biso   1.000  H
  H38      1.0000 0.40030  0.67460  0.87350  Biso   1.000  H
  H39      1.0000 0.42220  0.72900  0.87300  Biso   1.000  H
  O10      1.0000 0.88780  0.52646  0.41358  Biso   1.000  O
  O11      1.0000 0.81769  0.51913  0.45350  Biso   1.000  O
  O12      1.0000 0.82471  0.42011  0.45469  Biso   1.000  O
  S4       1.0000 0.88903  0.37773  0.53624  Biso   1.000  S
  C37      1.0000 0.85470  0.50240  0.43290  Biso   1.000  C
  C38      1.0000 0.86300  0.44870  0.43190  Biso   1.000  C
  H40      1.0000 0.86640  0.43820  0.39740  Biso   1.000  H
  H41      1.0000 0.89440  0.44150  0.44870  Biso   1.000  H
  C39      1.0000 0.83475  0.37035  0.45080  Biso   1.000  C
  C40      1.0000 0.86227  0.34684  0.48640  Biso   1.000  C
  C41      1.0000 0.81680  0.34380  0.41030  Biso   1.000  C
  C42      1.0000 0.82990  0.29470  0.40490  Biso   1.000  C
  H42      1.0000 0.81800  0.27710  0.37730  Biso   1.000  H
  C43      1.0000 0.85980  0.27060  0.43880  Biso   1.000  C
  C44      1.0000 0.87410  0.29690  0.48010  Biso   1.000  C
  H43      1.0000 0.89250  0.28070  0.50490  Biso   1.000  H
  C45      1.0000 0.87480  0.21710  0.43110  Biso   1.000  C
  C46      1.0000 0.91110  0.20090  0.46740  Biso   1.000  C
  H44      1.0000 0.89940  0.20870  0.50050  Biso   1.000  H
  H45      1.0000 0.94230  0.21780  0.46150  Biso   1.000  H
  H46      1.0000 0.91600  0.16540  0.46440  Biso   1.000  H
  C47      1.0000 0.82650  0.18520  0.43700  Biso   1.000  C
  H47      1.0000 0.81410  0.18830  0.47060  Biso   1.000  H
  H48      1.0000 0.83410  0.15070  0.43010  Biso   1.000  H
  H49      1.0000 0.80160  0.19690  0.41390  Biso   1.000  H
  C48      1.0000 0.89270  0.20940  0.37860  Biso   1.000  C
  H50      1.0000 0.86700  0.21950  0.35560  Biso   1.000  H
  H51      1.0000 0.90030  0.17460  0.37350  Biso   1.000  H
  H52      1.0000 0.92220  0.22900  0.37300  Biso   1.000  H
  O13      1.0000 0.88780  0.47354  0.08642  Biso   1.000  O
  O14      1.0000 0.81769  0.48087  0.04650  Biso   1.000  O
  O15      1.0000 0.82471  0.57989  0.04531  Biso   1.000  O
  S5       1.0000 0.88903  0.62227  0.96376  Biso   1.000  S
  C49      1.0000 0.85470  0.49760  0.06710  Biso   1.000  C
  C50      1.0000 0.86300  0.55130  0.06810  Biso   1.000  C
  H53      1.0000 0.86640  0.56180  0.10260  Biso   1.000  H
  H54      1.0000 0.89440  0.55850  0.05130  Biso   1.000  H
  C51      1.0000 0.83475  0.62965  0.04920  Biso   1.000  C
  C52      1.0000 0.86227  0.65316  0.01360  Biso   1.000  C
  C53      1.0000 0.81680  0.65620  0.08970  Biso   1.000  C
  C54      1.0000 0.82990  0.70530  0.09510  Biso   1.000  C
  H55      1.0000 0.81800  0.72290  0.12270  Biso   1.000  H
  C55      1.0000 0.85980  0.72940  0.06120  Biso   1.000  C
  C56      1.0000 0.87410  0.70310  0.01990  Biso   1.000  C
  H56      1.0000 0.89250  0.71930  0.99510  Biso   1.000  H
  C57      1.0000 0.87480  0.78290  0.06890  Biso   1.000  C
  C58      1.0000 0.91110  0.79910  0.03260  Biso   1.000  C
  H57      1.0000 0.89940  0.79130  0.99950  Biso   1.000  H
  H58      1.0000 0.94230  0.78220  0.03850  Biso   1.000  H
  H59      1.0000 0.91600  0.83460  0.03560  Biso   1.000  H
  C59      1.0000 0.82650  0.81480  0.06300  Biso   1.000  C
  H60      1.0000 0.81410  0.81170  0.02940  Biso   1.000  H
  H61      1.0000 0.83410  0.84930  0.06990  Biso   1.000  H
  H62      1.0000 0.80160  0.80310  0.08610  Biso   1.000  H
  C60      1.0000 0.89270  0.79060  0.12140  Biso   1.000  C
  H63      1.0000 0.86700  0.78050  0.14440  Biso   1.000  H
  H64      1.0000 0.90030  0.82540  0.12650  Biso   1.000  H
  H65      1.0000 0.92220  0.77100  0.12700  Biso   1.000  H
  O16      1.0000 0.38780  0.97354  0.58642  Biso   1.000  O
  O17      1.0000 0.31769  0.98087  0.54650  Biso   1.000  O
  O18      1.0000 0.32471  0.07989  0.54531  Biso   1.000  O
  S6       1.0000 0.38903  0.12227  0.46376  Biso   1.000  S
  C61      1.0000 0.35470  0.99760  0.56710  Biso   1.000  C
  C62      1.0000 0.36300  0.05130  0.56810  Biso   1.000  C
  H66      1.0000 0.36640  0.06180  0.60260  Biso   1.000  H
  H67      1.0000 0.39440  0.05850  0.55130  Biso   1.000  H
  C63      1.0000 0.33475  0.12965  0.54920  Biso   1.000  C
  C64      1.0000 0.36227  0.15316  0.51360  Biso   1.000  C
  C65      1.0000 0.31680  0.15620  0.58970  Biso   1.000  C
  C66      1.0000 0.32990  0.20530  0.59510  Biso   1.000  C
  H68      1.0000 0.31800  0.22290  0.62270  Biso   1.000  H
  C67      1.0000 0.35980  0.22940  0.56120  Biso   1.000  C
  C68      1.0000 0.37410  0.20310  0.51990  Biso   1.000  C
  H69      1.0000 0.39250  0.21930  0.49510  Biso   1.000  H
  C69      1.0000 0.37480  0.28290  0.56890  Biso   1.000  C
  C70      1.0000 0.41110  0.29910  0.53260  Biso   1.000  C
  H70      1.0000 0.39940  0.29130  0.49950  Biso   1.000  H
  H71      1.0000 0.44230  0.28220  0.53850  Biso   1.000  H
  H72      1.0000 0.41600  0.33460  0.53560  Biso   1.000  H
  C71      1.0000 0.32650  0.31480  0.56300  Biso   1.000  C
  H73      1.0000 0.31410  0.31170  0.52940  Biso   1.000  H
  H74      1.0000 0.33410  0.34930  0.56990  Biso   1.000  H
  H75      1.0000 0.30160  0.30310  0.58610  Biso   1.000  H
  C72      1.0000 0.39270  0.29060  0.62140  Biso   1.000  C
  H76      1.0000 0.36700  0.28050  0.64440  Biso   1.000  H
  H77      1.0000 0.40030  0.32540  0.62650  Biso   1.000  H
  H78      1.0000 0.42220  0.27100  0.62700  Biso   1.000  H
  O19      1.0000 0.61220  0.52646  0.58642  Biso   1.000  O
  O20      1.0000 0.68231  0.51913  0.54650  Biso   1.000  O
  O21      1.0000 0.67529  0.42011  0.54531  Biso   1.000  O
  S7       1.0000 0.61097  0.37773  0.46376  Biso   1.000  S
  C73      1.0000 0.64530  0.50240  0.56710  Biso   1.000  C
  C74      1.0000 0.63700  0.44870  0.56810  Biso   1.000  C
  H79      1.0000 0.63360  0.43820  0.60260  Biso   1.000  H
  H80      1.0000 0.60560  0.44150  0.55130  Biso   1.000  H
  C75      1.0000 0.66525  0.37035  0.54920  Biso   1.000  C
  C76      1.0000 0.63773  0.34684  0.51360  Biso   1.000  C
  C77      1.0000 0.68320  0.34380  0.58970  Biso   1.000  C
  C78      1.0000 0.67010  0.29470  0.59510  Biso   1.000  C
  H81      1.0000 0.68200  0.27710  0.62270  Biso   1.000  H
  C79      1.0000 0.64020  0.27060  0.56120  Biso   1.000  C
  C80      1.0000 0.62590  0.29690  0.51990  Biso   1.000  C
  H82      1.0000 0.60750  0.28070  0.49510  Biso   1.000  H
  C81      1.0000 0.62520  0.21710  0.56890  Biso   1.000  C
  C82      1.0000 0.58890  0.20090  0.53260  Biso   1.000  C
  H83      1.0000 0.60060  0.20870  0.49950  Biso   1.000  H
  H84      1.0000 0.55770  0.21780  0.53850  Biso   1.000  H
  H85      1.0000 0.58400  0.16540  0.53560  Biso   1.000  H
  C83      1.0000 0.67350  0.18520  0.56300  Biso   1.000  C
  H86      1.0000 0.68590  0.18830  0.52940  Biso   1.000  H
  H87      1.0000 0.66590  0.15070  0.56990  Biso   1.000  H
  H88      1.0000 0.69840  0.19690  0.58610  Biso   1.000  H
  C84      1.0000 0.60730  0.20940  0.62140  Biso   1.000  C
  H89      1.0000 0.63300  0.21950  0.64440  Biso   1.000  H
  H90      1.0000 0.59970  0.17460  0.62650  Biso   1.000  H
  H91      1.0000 0.57780  0.22900  0.62700  Biso   1.000  H
  O22      1.0000 0.11220  0.02646  0.08642  Biso   1.000  O
  O23      1.0000 0.18231  0.01913  0.04650  Biso   1.000  O
  O24      1.0000 0.17529  0.92011  0.04531  Biso   1.000  O
  S8       1.0000 0.11097  0.87773  0.96376  Biso   1.000  S
  C85      1.0000 0.14530  0.00240  0.06710  Biso   1.000  C
  C86      1.0000 0.13700  0.94870  0.06810  Biso   1.000  C
  H92      1.0000 0.13360  0.93820  0.10260  Biso   1.000  H
  H93      1.0000 0.10560  0.94150  0.05130  Biso   1.000  H
  C87      1.0000 0.16525  0.87035  0.04920  Biso   1.000  C
  C88      1.0000 0.13773  0.84684  0.01360  Biso   1.000  C
  C89      1.0000 0.18320  0.84380  0.08970  Biso   1.000  C
  C90      1.0000 0.17010  0.79470  0.09510  Biso   1.000  C
  H94      1.0000 0.18200  0.77710  0.12270  Biso   1.000  H
  C91      1.0000 0.14020  0.77060  0.06120  Biso   1.000  C
  C92      1.0000 0.12590  0.79690  0.01990  Biso   1.000  C
  H95      1.0000 0.10750  0.78070  0.99510  Biso   1.000  H
  C93      1.0000 0.12520  0.71710  0.06890  Biso   1.000  C
  C94      1.0000 0.08890  0.70090  0.03260  Biso   1.000  C
  H96      1.0000 0.10060  0.70870  0.99950  Biso   1.000  H
  H97      1.0000 0.05770  0.71780  0.03850  Biso   1.000  H
  H98      1.0000 0.08400  0.66540  0.03560  Biso   1.000  H
  C95      1.0000 0.17350  0.68520  0.06300  Biso   1.000  C
  H99      1.0000 0.18590  0.68830  0.02940  Biso   1.000  H
  H100     1.0000 0.16590  0.65070  0.06990  Biso   1.000  H
  H101     1.0000 0.19840  0.69690  0.08610  Biso   1.000  H
  C96      1.0000 0.10730  0.70940  0.12140  Biso   1.000  C
  H102     1.0000 0.13300  0.71950  0.14440  Biso   1.000  H
  H103     1.0000 0.09970  0.67460  0.12650  Biso   1.000  H
  H104     1.0000 0.07780  0.72900  0.12700  Biso   1.000  H
  O25      1.0000 0.41358  0.11220  0.97354  Biso   1.000  O
  O26      1.0000 0.45350  0.18231  0.98087  Biso   1.000  O
  O27      1.0000 0.45469  0.17529  0.07989  Biso   1.000  O
  S9       1.0000 0.53624  0.11097  0.12227  Biso   1.000  S
  C97      1.0000 0.43290  0.14530  0.99760  Biso   1.000  C
  C98      1.0000 0.43190  0.13700  0.05130  Biso   1.000  C
  H105     1.0000 0.39740  0.13360  0.06180  Biso   1.000  H
  H106     1.0000 0.44870  0.10560  0.05850  Biso   1.000  H
  C99      1.0000 0.45080  0.16525  0.12965  Biso   1.000  C
  C100     1.0000 0.48640  0.13773  0.15316  Biso   1.000  C
  C101     1.0000 0.41030  0.18320  0.15620  Biso   1.000  C
  C102     1.0000 0.40490  0.17010  0.20530  Biso   1.000  C
  H107     1.0000 0.37730  0.18200  0.22290  Biso   1.000  H
  C103     1.0000 0.43880  0.14020  0.22940  Biso   1.000  C
  C104     1.0000 0.48010  0.12590  0.20310  Biso   1.000  C
  H108     1.0000 0.50490  0.10750  0.21930  Biso   1.000  H
  C105     1.0000 0.43110  0.12520  0.28290  Biso   1.000  C
  C106     1.0000 0.46740  0.08890  0.29910  Biso   1.000  C
  H109     1.0000 0.50050  0.10060  0.29130  Biso   1.000  H
  H110     1.0000 0.46150  0.05770  0.28220  Biso   1.000  H
  H111     1.0000 0.46440  0.08400  0.33460  Biso   1.000  H
  C107     1.0000 0.43700  0.17350  0.31480  Biso   1.000  C
  H112     1.0000 0.47060  0.18590  0.31170  Biso   1.000  H
  H113     1.0000 0.43010  0.16590  0.34930  Biso   1.000  H
  H114     1.0000 0.41390  0.19840  0.30310  Biso   1.000  H
  C108     1.0000 0.37860  0.10730  0.29060  Biso   1.000  C
  H115     1.0000 0.35560  0.13300  0.28050  Biso   1.000  H
  H116     1.0000 0.37350  0.09970  0.32540  Biso   1.000  H
  H117     1.0000 0.37300  0.07780  0.27100  Biso   1.000  H
  O28      1.0000 0.91358  0.61220  0.47354  Biso   1.000  O
  O29      1.0000 0.95350  0.68231  0.48087  Biso   1.000  O
  O30      1.0000 0.95469  0.67529  0.57989  Biso   1.000  O
  S10      1.0000 0.03624  0.61097  0.62227  Biso   1.000  S
  C109     1.0000 0.93290  0.64530  0.49760  Biso   1.000  C
  C110     1.0000 0.93190  0.63700  0.55130  Biso   1.000  C
  H118     1.0000 0.89740  0.63360  0.56180  Biso   1.000  H
  H119     1.0000 0.94870  0.60560  0.55850  Biso   1.000  H
  C111     1.0000 0.95080  0.66525  0.62965  Biso   1.000  C
  C112     1.0000 0.98640  0.63773  0.65316  Biso   1.000  C
  C113     1.0000 0.91030  0.68320  0.65620  Biso   1.000  C
  C114     1.0000 0.90490  0.67010  0.70530  Biso   1.000  C
  H120     1.0000 0.87730  0.68200  0.72290  Biso   1.000  H
  C115     1.0000 0.93880  0.64020  0.72940  Biso   1.000  C
  C116     1.0000 0.98010  0.62590  0.70310  Biso   1.000  C
  H121     1.0000 0.00490  0.60750  0.71930  Biso   1.000  H
  C117     1.0000 0.93110  0.62520  0.78290  Biso   1.000  C
  C118     1.0000 0.96740  0.58890  0.79910  Biso   1.000  C
  H122     1.0000 0.00050  0.60060  0.79130  Biso   1.000  H
  H123     1.0000 0.96150  0.55770  0.78220  Biso   1.000  H
  H124     1.0000 0.96440  0.58400  0.83460  Biso   1.000  H
  C119     1.0000 0.93700  0.67350  0.81480  Biso   1.000  C
  H125     1.0000 0.97060  0.68590  0.81170  Biso   1.000  H
  H126     1.0000 0.93010  0.66590  0.84930  Biso   1.000  H
  H127     1.0000 0.91390  0.69840  0.80310  Biso   1.000  H
  C120     1.0000 0.87860  0.60730  0.79060  Biso   1.000  C
  H128     1.0000 0.85560  0.63300  0.78050  Biso   1.000  H
  H129     1.0000 0.87350  0.59970  0.82540  Biso   1.000  H
  H130     1.0000 0.87300  0.57780  0.77100  Biso   1.000  H
  O31      1.0000 0.91358  0.38780  0.02646  Biso   1.000  O
  O32      1.0000 0.95350  0.31769  0.01913  Biso   1.000  O
  O33      1.0000 0.95469  0.32471  0.92011  Biso   1.000  O
  S11      1.0000 0.03624  0.38903  0.87773  Biso   1.000  S
  C121     1.0000 0.93290  0.35470  0.00240  Biso   1.000  C
  C122     1.0000 0.93190  0.36300  0.94870  Biso   1.000  C
  H131     1.0000 0.89740  0.36640  0.93820  Biso   1.000  H
  H132     1.0000 0.94870  0.39440  0.94150  Biso   1.000  H
  C123     1.0000 0.95080  0.33475  0.87035  Biso   1.000  C
  C124     1.0000 0.98640  0.36227  0.84684  Biso   1.000  C
  C125     1.0000 0.91030  0.31680  0.84380  Biso   1.000  C
  C126     1.0000 0.90490  0.32990  0.79470  Biso   1.000  C
  H133     1.0000 0.87730  0.31800  0.77710  Biso   1.000  H
  C127     1.0000 0.93880  0.35980  0.77060  Biso   1.000  C
  C128     1.0000 0.98010  0.37410  0.79690  Biso   1.000  C
  H134     1.0000 0.00490  0.39250  0.78070  Biso   1.000  H
  C129     1.0000 0.93110  0.37480  0.71710  Biso   1.000  C
  C130     1.0000 0.96740  0.41110  0.70090  Biso   1.000  C
  H135     1.0000 0.00050  0.39940  0.70870  Biso   1.000  H
  H136     1.0000 0.96150  0.44230  0.71780  Biso   1.000  H
  H137     1.0000 0.96440  0.41600  0.66540  Biso   1.000  H
  C131     1.0000 0.93700  0.32650  0.68520  Biso   1.000  C
  H138     1.0000 0.97060  0.31410  0.68830  Biso   1.000  H
  H139     1.0000 0.93010  0.33410  0.65070  Biso   1.000  H
  H140     1.0000 0.91390  0.30160  0.69690  Biso   1.000  H
  C132     1.0000 0.87860  0.39270  0.70940  Biso   1.000  C
  H141     1.0000 0.85560  0.36700  0.71950  Biso   1.000  H
  H142     1.0000 0.87350  0.40030  0.67460  Biso   1.000  H
  H143     1.0000 0.87300  0.42220  0.72900  Biso   1.000  H
  O34      1.0000 0.41358  0.88780  0.52646  Biso   1.000  O
  O35      1.0000 0.45350  0.81769  0.51913  Biso   1.000  O
  O36      1.0000 0.45469  0.82471  0.42011  Biso   1.000  O
  S12      1.0000 0.53624  0.88903  0.37773  Biso   1.000  S
  C133     1.0000 0.43290  0.85470  0.50240  Biso   1.000  C
  C134     1.0000 0.43190  0.86300  0.44870  Biso   1.000  C
  H144     1.0000 0.39740  0.86640  0.43820  Biso   1.000  H
  H145     1.0000 0.44870  0.89440  0.44150  Biso   1.000  H
  C135     1.0000 0.45080  0.83475  0.37035  Biso   1.000  C
  C136     1.0000 0.48640  0.86227  0.34684  Biso   1.000  C
  C137     1.0000 0.41030  0.81680  0.34380  Biso   1.000  C
  C138     1.0000 0.40490  0.82990  0.29470  Biso   1.000  C
  H146     1.0000 0.37730  0.81800  0.27710  Biso   1.000  H
  C139     1.0000 0.43880  0.85980  0.27060  Biso   1.000  C
  C140     1.0000 0.48010  0.87410  0.29690  Biso   1.000  C
  H147     1.0000 0.50490  0.89250  0.28070  Biso   1.000  H
  C141     1.0000 0.43110  0.87480  0.21710  Biso   1.000  C
  C142     1.0000 0.46740  0.91110  0.20090  Biso   1.000  C
  H148     1.0000 0.50050  0.89940  0.20870  Biso   1.000  H
  H149     1.0000 0.46150  0.94230  0.21780  Biso   1.000  H
  H150     1.0000 0.46440  0.91600  0.16540  Biso   1.000  H
  C143     1.0000 0.43700  0.82650  0.18520  Biso   1.000  C
  H151     1.0000 0.47060  0.81410  0.18830  Biso   1.000  H
  H152     1.0000 0.43010  0.83410  0.15070  Biso   1.000  H
  H153     1.0000 0.41390  0.80160  0.19690  Biso   1.000  H
  C144     1.0000 0.37860  0.89270  0.20940  Biso   1.000  C
  H154     1.0000 0.35560  0.86700  0.21950  Biso   1.000  H
  H155     1.0000 0.37350  0.90030  0.17460  Biso   1.000  H
  H156     1.0000 0.37300  0.92220  0.22900  Biso   1.000  H
  O37      1.0000 0.08642  0.88780  0.47354  Biso   1.000  O
  O38      1.0000 0.04650  0.81769  0.48087  Biso   1.000  O
  O39      1.0000 0.04531  0.82471  0.57989  Biso   1.000  O
  S13      1.0000 0.96376  0.88903  0.62227  Biso   1.000  S
  C145     1.0000 0.06710  0.85470  0.49760  Biso   1.000  C
  C146     1.0000 0.06810  0.86300  0.55130  Biso   1.000  C
  H157     1.0000 0.10260  0.86640  0.56180  Biso   1.000  H
  H158     1.0000 0.05130  0.89440  0.55850  Biso   1.000  H
  C147     1.0000 0.04920  0.83475  0.62965  Biso   1.000  C
  C148     1.0000 0.01360  0.86227  0.65316  Biso   1.000  C
  C149     1.0000 0.08970  0.81680  0.65620  Biso   1.000  C
  C150     1.0000 0.09510  0.82990  0.70530  Biso   1.000  C
  H159     1.0000 0.12270  0.81800  0.72290  Biso   1.000  H
  C151     1.0000 0.06120  0.85980  0.72940  Biso   1.000  C
  C152     1.0000 0.01990  0.87410  0.70310  Biso   1.000  C
  H160     1.0000 0.99510  0.89250  0.71930  Biso   1.000  H
  C153     1.0000 0.06890  0.87480  0.78290  Biso   1.000  C
  C154     1.0000 0.03260  0.91110  0.79910  Biso   1.000  C
  H161     1.0000 0.99950  0.89940  0.79130  Biso   1.000  H
  H162     1.0000 0.03850  0.94230  0.78220  Biso   1.000  H
  H163     1.0000 0.03560  0.91600  0.83460  Biso   1.000  H
  C155     1.0000 0.06300  0.82650  0.81480  Biso   1.000  C
  H164     1.0000 0.02940  0.81410  0.81170  Biso   1.000  H
  H165     1.0000 0.06990  0.83410  0.84930  Biso   1.000  H
  H166     1.0000 0.08610  0.80160  0.80310  Biso   1.000  H
  C156     1.0000 0.12140  0.89270  0.79060  Biso   1.000  C
  H167     1.0000 0.14440  0.86700  0.78050  Biso   1.000  H
  H168     1.0000 0.12650  0.90030  0.82540  Biso   1.000  H
  H169     1.0000 0.12700  0.92220  0.77100  Biso   1.000  H
  O40      1.0000 0.58642  0.38780  0.97354  Biso   1.000  O
  O41      1.0000 0.54650  0.31769  0.98087  Biso   1.000  O
  O42      1.0000 0.54531  0.32471  0.07989  Biso   1.000  O
  S14      1.0000 0.46376  0.38903  0.12227  Biso   1.000  S
  C157     1.0000 0.56710  0.35470  0.99760  Biso   1.000  C
  C158     1.0000 0.56810  0.36300  0.05130  Biso   1.000  C
  H170     1.0000 0.60260  0.36640  0.06180  Biso   1.000  H
  H171     1.0000 0.55130  0.39440  0.05850  Biso   1.000  H
  C159     1.0000 0.54920  0.33475  0.12965  Biso   1.000  C
  C160     1.0000 0.51360  0.36227  0.15316  Biso   1.000  C
  C161     1.0000 0.58970  0.31680  0.15620  Biso   1.000  C
  C162     1.0000 0.59510  0.32990  0.20530  Biso   1.000  C
  H172     1.0000 0.62270  0.31800  0.22290  Biso   1.000  H
  C163     1.0000 0.56120  0.35980  0.22940  Biso   1.000  C
  C164     1.0000 0.51990  0.37410  0.20310  Biso   1.000  C
  H173     1.0000 0.49510  0.39250  0.21930  Biso   1.000  H
  C165     1.0000 0.56890  0.37480  0.28290  Biso   1.000  C
  C166     1.0000 0.53260  0.41110  0.29910  Biso   1.000  C
  H174     1.0000 0.49950  0.39940  0.29130  Biso   1.000  H
  H175     1.0000 0.53850  0.44230  0.28220  Biso   1.000  H
  H176     1.0000 0.53560  0.41600  0.33460  Biso   1.000  H
  C167     1.0000 0.56300  0.32650  0.31480  Biso   1.000  C
  H177     1.0000 0.52940  0.31410  0.31170  Biso   1.000  H
  H178     1.0000 0.56990  0.33410  0.34930  Biso   1.000  H
  H179     1.0000 0.58610  0.30160  0.30310  Biso   1.000  H
  C168     1.0000 0.62140  0.39270  0.29060  Biso   1.000  C
  H180     1.0000 0.64440  0.36700  0.28050  Biso   1.000  H
  H181     1.0000 0.62650  0.40030  0.32540  Biso   1.000  H
  H182     1.0000 0.62700  0.42220  0.27100  Biso   1.000  H
  O43      1.0000 0.58642  0.61220  0.52646  Biso   1.000  O
  O44      1.0000 0.54650  0.68231  0.51913  Biso   1.000  O
  O45      1.0000 0.54531  0.67529  0.42011  Biso   1.000  O
  S15      1.0000 0.46376  0.61097  0.37773  Biso   1.000  S
  C169     1.0000 0.56710  0.64530  0.50240  Biso   1.000  C
  C170     1.0000 0.56810  0.63700  0.44870  Biso   1.000  C
  H183     1.0000 0.60260  0.63360  0.43820  Biso   1.000  H
  H184     1.0000 0.55130  0.60560  0.44150  Biso   1.000  H
  C171     1.0000 0.54920  0.66525  0.37035  Biso   1.000  C
  C172     1.0000 0.51360  0.63773  0.34684  Biso   1.000  C
  C173     1.0000 0.58970  0.68320  0.34380  Biso   1.000  C
  C174     1.0000 0.59510  0.67010  0.29470  Biso   1.000  C
  H185     1.0000 0.62270  0.68200  0.27710  Biso   1.000  H
  C175     1.0000 0.56120  0.64020  0.27060  Biso   1.000  C
  C176     1.0000 0.51990  0.62590  0.29690  Biso   1.000  C
  H186     1.0000 0.49510  0.60750  0.28070  Biso   1.000  H
  C177     1.0000 0.56890  0.62520  0.21710  Biso   1.000  C
  C178     1.0000 0.53260  0.58890  0.20090  Biso   1.000  C
  H187     1.0000 0.49950  0.60060  0.20870  Biso   1.000  H
  H188     1.0000 0.53850  0.55770  0.21780  Biso   1.000  H
  H189     1.0000 0.53560  0.58400  0.16540  Biso   1.000  H
  C179     1.0000 0.56300  0.67350  0.18520  Biso   1.000  C
  H190     1.0000 0.52940  0.68590  0.18830  Biso   1.000  H
  H191     1.0000 0.56990  0.66590  0.15070  Biso   1.000  H
  H192     1.0000 0.58610  0.69840  0.19690  Biso   1.000  H
  C180     1.0000 0.62140  0.60730  0.20940  Biso   1.000  C
  H193     1.0000 0.64440  0.63300  0.21950  Biso   1.000  H
  H194     1.0000 0.62650  0.59970  0.17460  Biso   1.000  H
  H195     1.0000 0.62700  0.57780  0.22900  Biso   1.000  H
  O46      1.0000 0.08642  0.11220  0.02646  Biso   1.000  O
  O47      1.0000 0.04650  0.18231  0.01913  Biso   1.000  O
  O48      1.0000 0.04531  0.17529  0.92011  Biso   1.000  O
  S16      1.0000 0.96376  0.11097  0.87773  Biso   1.000  S
  C181     1.0000 0.06710  0.14530  0.00240  Biso   1.000  C
  C182     1.0000 0.06810  0.13700  0.94870  Biso   1.000  C
  H196     1.0000 0.10260  0.13360  0.93820  Biso   1.000  H
  H197     1.0000 0.05130  0.10560  0.94150  Biso   1.000  H
  C183     1.0000 0.04920  0.16525  0.87035  Biso   1.000  C
  C184     1.0000 0.01360  0.13773  0.84684  Biso   1.000  C
  C185     1.0000 0.08970  0.18320  0.84380  Biso   1.000  C
  C186     1.0000 0.09510  0.17010  0.79470  Biso   1.000  C
  H198     1.0000 0.12270  0.18200  0.77710  Biso   1.000  H
  C187     1.0000 0.06120  0.14020  0.77060  Biso   1.000  C
  C188     1.0000 0.01990  0.12590  0.79690  Biso   1.000  C
  H199     1.0000 0.99510  0.10750  0.78070  Biso   1.000  H
  C189     1.0000 0.06890  0.12520  0.71710  Biso   1.000  C
  C190     1.0000 0.03260  0.08890  0.70090  Biso   1.000  C
  H200     1.0000 0.99950  0.10060  0.70870  Biso   1.000  H
  H201     1.0000 0.03850  0.05770  0.71780  Biso   1.000  H
  H202     1.0000 0.03560  0.08400  0.66540  Biso   1.000  H
  C191     1.0000 0.06300  0.17350  0.68520  Biso   1.000  C
  H203     1.0000 0.02940  0.18590  0.68830  Biso   1.000  H
  H204     1.0000 0.06990  0.16590  0.65070  Biso   1.000  H
  H205     1.0000 0.08610  0.19840  0.69690  Biso   1.000  H
  C192     1.0000 0.12140  0.10730  0.70940  Biso   1.000  C
  H206     1.0000 0.14440  0.13300  0.71950  Biso   1.000  H
  H207     1.0000 0.12650  0.09970  0.67460  Biso   1.000  H
  H208     1.0000 0.12700  0.07780  0.72900  Biso   1.000  H
  O49      1.0000 0.97354  0.41358  0.11220  Biso   1.000  O
  O50      1.0000 0.98087  0.45350  0.18231  Biso   1.000  O
  O51      1.0000 0.07989  0.45469  0.17529  Biso   1.000  O
  S17      1.0000 0.12227  0.53624  0.11097  Biso   1.000  S
  C193     1.0000 0.99760  0.43290  0.14530  Biso   1.000  C
  C194     1.0000 0.05130  0.43190  0.13700  Biso   1.000  C
  H209     1.0000 0.06180  0.39740  0.13360  Biso   1.000  H
  H210     1.0000 0.05850  0.44870  0.10560  Biso   1.000  H
  C195     1.0000 0.12965  0.45080  0.16525  Biso   1.000  C
  C196     1.0000 0.15316  0.48640  0.13773  Biso   1.000  C
  C197     1.0000 0.15620  0.41030  0.18320  Biso   1.000  C
  C198     1.0000 0.20530  0.40490  0.17010  Biso   1.000  C
  H211     1.0000 0.22290  0.37730  0.18200  Biso   1.000  H
  C199     1.0000 0.22940  0.43880  0.14020  Biso   1.000  C
  C200     1.0000 0.20310  0.48010  0.12590  Biso   1.000  C
  H212     1.0000 0.21930  0.50490  0.10750  Biso   1.000  H
  C201     1.0000 0.28290  0.43110  0.12520  Biso   1.000  C
  C202     1.0000 0.29910  0.46740  0.08890  Biso   1.000  C
  H213     1.0000 0.29130  0.50050  0.10060  Biso   1.000  H
  H214     1.0000 0.28220  0.46150  0.05770  Biso   1.000  H
  H215     1.0000 0.33460  0.46440  0.08400  Biso   1.000  H
  C203     1.0000 0.31480  0.43700  0.17350  Biso   1.000  C
  H216     1.0000 0.31170  0.47060  0.18590  Biso   1.000  H
  H217     1.0000 0.34930  0.43010  0.16590  Biso   1.000  H
  H218     1.0000 0.30310  0.41390  0.19840  Biso   1.000  H
  C204     1.0000 0.29060  0.37860  0.10730  Biso   1.000  C
  H219     1.0000 0.28050  0.35560  0.13300  Biso   1.000  H
  H220     1.0000 0.32540  0.37350  0.09970  Biso   1.000  H
  H221     1.0000 0.27100  0.37300  0.07780  Biso   1.000  H
  O52      1.0000 0.47354  0.91358  0.61220  Biso   1.000  O
  O53      1.0000 0.48087  0.95350  0.68231  Biso   1.000  O
  O54      1.0000 0.57989  0.95469  0.67529  Biso   1.000  O
  S18      1.0000 0.62227  0.03624  0.61097  Biso   1.000  S
  C205     1.0000 0.49760  0.93290  0.64530  Biso   1.000  C
  C206     1.0000 0.55130  0.93190  0.63700  Biso   1.000  C
  H222     1.0000 0.56180  0.89740  0.63360  Biso   1.000  H
  H223     1.0000 0.55850  0.94870  0.60560  Biso   1.000  H
  C207     1.0000 0.62965  0.95080  0.66525  Biso   1.000  C
  C208     1.0000 0.65316  0.98640  0.63773  Biso   1.000  C
  C209     1.0000 0.65620  0.91030  0.68320  Biso   1.000  C
  C210     1.0000 0.70530  0.90490  0.67010  Biso   1.000  C
  H224     1.0000 0.72290  0.87730  0.68200  Biso   1.000  H
  C211     1.0000 0.72940  0.93880  0.64020  Biso   1.000  C
  C212     1.0000 0.70310  0.98010  0.62590  Biso   1.000  C
  H225     1.0000 0.71930  0.00490  0.60750  Biso   1.000  H
  C213     1.0000 0.78290  0.93110  0.62520  Biso   1.000  C
  C214     1.0000 0.79910  0.96740  0.58890  Biso   1.000  C
  H226     1.0000 0.79130  0.00050  0.60060  Biso   1.000  H
  H227     1.0000 0.78220  0.96150  0.55770  Biso   1.000  H
  H228     1.0000 0.83460  0.96440  0.58400  Biso   1.000  H
  C215     1.0000 0.81480  0.93700  0.67350  Biso   1.000  C
  H229     1.0000 0.81170  0.97060  0.68590  Biso   1.000  H
  H230     1.0000 0.84930  0.93010  0.66590  Biso   1.000  H
  H231     1.0000 0.80310  0.91390  0.69840  Biso   1.000  H
  C216     1.0000 0.79060  0.87860  0.60730  Biso   1.000  C
  H232     1.0000 0.78050  0.85560  0.63300  Biso   1.000  H
  H233     1.0000 0.82540  0.87350  0.59970  Biso   1.000  H
  H234     1.0000 0.77100  0.87300  0.57780  Biso   1.000  H
  O55      1.0000 0.02646  0.91358  0.38780  Biso   1.000  O
  O56      1.0000 0.01913  0.95350  0.31769  Biso   1.000  O
  O57      1.0000 0.92011  0.95469  0.32471  Biso   1.000  O
  S19      1.0000 0.87773  0.03624  0.38903  Biso   1.000  S
  C217     1.0000 0.00240  0.93290  0.35470  Biso   1.000  C
  C218     1.0000 0.94870  0.93190  0.36300  Biso   1.000  C
  H235     1.0000 0.93820  0.89740  0.36640  Biso   1.000  H
  H236     1.0000 0.94150  0.94870  0.39440  Biso   1.000  H
  C219     1.0000 0.87035  0.95080  0.33475  Biso   1.000  C
  C220     1.0000 0.84684  0.98640  0.36227  Biso   1.000  C
  C221     1.0000 0.84380  0.91030  0.31680  Biso   1.000  C
  C222     1.0000 0.79470  0.90490  0.32990  Biso   1.000  C
  H237     1.0000 0.77710  0.87730  0.31800  Biso   1.000  H
  C223     1.0000 0.77060  0.93880  0.35980  Biso   1.000  C
  C224     1.0000 0.79690  0.98010  0.37410  Biso   1.000  C
  H238     1.0000 0.78070  0.00490  0.39250  Biso   1.000  H
  C225     1.0000 0.71710  0.93110  0.37480  Biso   1.000  C
  C226     1.0000 0.70090  0.96740  0.41110  Biso   1.000  C
  H239     1.0000 0.70870  0.00050  0.39940  Biso   1.000  H
  H240     1.0000 0.71780  0.96150  0.44230  Biso   1.000  H
  H241     1.0000 0.66540  0.96440  0.41600  Biso   1.000  H
  C227     1.0000 0.68520  0.93700  0.32650  Biso   1.000  C
  H242     1.0000 0.68830  0.97060  0.31410  Biso   1.000  H
  H243     1.0000 0.65070  0.93010  0.33410  Biso   1.000  H
  H244     1.0000 0.69690  0.91390  0.30160  Biso   1.000  H
  C228     1.0000 0.70940  0.87860  0.39270  Biso   1.000  C
  H245     1.0000 0.71950  0.85560  0.36700  Biso   1.000  H
  H246     1.0000 0.67460  0.87350  0.40030  Biso   1.000  H
  H247     1.0000 0.72900  0.87300  0.42220  Biso   1.000  H
  O58      1.0000 0.52646  0.41358  0.88780  Biso   1.000  O
  O59      1.0000 0.51913  0.45350  0.81769  Biso   1.000  O
  O60      1.0000 0.42011  0.45469  0.82471  Biso   1.000  O
  S20      1.0000 0.37773  0.53624  0.88903  Biso   1.000  S
  C229     1.0000 0.50240  0.43290  0.85470  Biso   1.000  C
  C230     1.0000 0.44870  0.43190  0.86300  Biso   1.000  C
  H248     1.0000 0.43820  0.39740  0.86640  Biso   1.000  H
  H249     1.0000 0.44150  0.44870  0.89440  Biso   1.000  H
  C231     1.0000 0.37035  0.45080  0.83475  Biso   1.000  C
  C232     1.0000 0.34684  0.48640  0.86227  Biso   1.000  C
  C233     1.0000 0.34380  0.41030  0.81680  Biso   1.000  C
  C234     1.0000 0.29470  0.40490  0.82990  Biso   1.000  C
  H250     1.0000 0.27710  0.37730  0.81800  Biso   1.000  H
  C235     1.0000 0.27060  0.43880  0.85980  Biso   1.000  C
  C236     1.0000 0.29690  0.48010  0.87410  Biso   1.000  C
  H251     1.0000 0.28070  0.50490  0.89250  Biso   1.000  H
  C237     1.0000 0.21710  0.43110  0.87480  Biso   1.000  C
  C238     1.0000 0.20090  0.46740  0.91110  Biso   1.000  C
  H252     1.0000 0.20870  0.50050  0.89940  Biso   1.000  H
  H253     1.0000 0.21780  0.46150  0.94230  Biso   1.000  H
  H254     1.0000 0.16540  0.46440  0.91600  Biso   1.000  H
  C239     1.0000 0.18520  0.43700  0.82650  Biso   1.000  C
  H255     1.0000 0.18830  0.47060  0.81410  Biso   1.000  H
  H256     1.0000 0.15070  0.43010  0.83410  Biso   1.000  H
  H257     1.0000 0.19690  0.41390  0.80160  Biso   1.000  H
  C240     1.0000 0.20940  0.37860  0.89270  Biso   1.000  C
  H258     1.0000 0.21950  0.35560  0.86700  Biso   1.000  H
  H259     1.0000 0.17460  0.37350  0.90030  Biso   1.000  H
  H260     1.0000 0.22900  0.37300  0.92220  Biso   1.000  H
  O61      1.0000 0.47354  0.08642  0.88780  Biso   1.000  O
  O62      1.0000 0.48087  0.04650  0.81769  Biso   1.000  O
  O63      1.0000 0.57989  0.04531  0.82471  Biso   1.000  O
  S21      1.0000 0.62227  0.96376  0.88903  Biso   1.000  S
  C241     1.0000 0.49760  0.06710  0.85470  Biso   1.000  C
  C242     1.0000 0.55130  0.06810  0.86300  Biso   1.000  C
  H261     1.0000 0.56180  0.10260  0.86640  Biso   1.000  H
  H262     1.0000 0.55850  0.05130  0.89440  Biso   1.000  H
  C243     1.0000 0.62965  0.04920  0.83475  Biso   1.000  C
  C244     1.0000 0.65316  0.01360  0.86227  Biso   1.000  C
  C245     1.0000 0.65620  0.08970  0.81680  Biso   1.000  C
  C246     1.0000 0.70530  0.09510  0.82990  Biso   1.000  C
  H263     1.0000 0.72290  0.12270  0.81800  Biso   1.000  H
  C247     1.0000 0.72940  0.06120  0.85980  Biso   1.000  C
  C248     1.0000 0.70310  0.01990  0.87410  Biso   1.000  C
  H264     1.0000 0.71930  0.99510  0.89250  Biso   1.000  H
  C249     1.0000 0.78290  0.06890  0.87480  Biso   1.000  C
  C250     1.0000 0.79910  0.03260  0.91110  Biso   1.000  C
  H265     1.0000 0.79130  0.99950  0.89940  Biso   1.000  H
  H266     1.0000 0.78220  0.03850  0.94230  Biso   1.000  H
  H267     1.0000 0.83460  0.03560  0.91600  Biso   1.000  H
  C251     1.0000 0.81480  0.06300  0.82650  Biso   1.000  C
  H268     1.0000 0.81170  0.02940  0.81410  Biso   1.000  H
  H269     1.0000 0.84930  0.06990  0.83410  Biso   1.000  H
  H270     1.0000 0.80310  0.08610  0.80160  Biso   1.000  H
  C252     1.0000 0.79060  0.12140  0.89270  Biso   1.000  C
  H271     1.0000 0.78050  0.14440  0.86700  Biso   1.000  H
  H272     1.0000 0.82540  0.12650  0.90030  Biso   1.000  H
  H273     1.0000 0.77100  0.12700  0.92220  Biso   1.000  H
  O64      1.0000 0.97354  0.58642  0.38780  Biso   1.000  O
  O65      1.0000 0.98087  0.54650  0.31769  Biso   1.000  O
  O66      1.0000 0.07989  0.54531  0.32471  Biso   1.000  O
  S22      1.0000 0.12227  0.46376  0.38903  Biso   1.000  S
  C253     1.0000 0.99760  0.56710  0.35470  Biso   1.000  C
  C254     1.0000 0.05130  0.56810  0.36300  Biso   1.000  C
  H274     1.0000 0.06180  0.60260  0.36640  Biso   1.000  H
  H275     1.0000 0.05850  0.55130  0.39440  Biso   1.000  H
  C255     1.0000 0.12965  0.54920  0.33475  Biso   1.000  C
  C256     1.0000 0.15316  0.51360  0.36227  Biso   1.000  C
  C257     1.0000 0.15620  0.58970  0.31680  Biso   1.000  C
  C258     1.0000 0.20530  0.59510  0.32990  Biso   1.000  C
  H276     1.0000 0.22290  0.62270  0.31800  Biso   1.000  H
  C259     1.0000 0.22940  0.56120  0.35980  Biso   1.000  C
  C260     1.0000 0.20310  0.51990  0.37410  Biso   1.000  C
  H277     1.0000 0.21930  0.49510  0.39250  Biso   1.000  H
  C261     1.0000 0.28290  0.56890  0.37480  Biso   1.000  C
  C262     1.0000 0.29910  0.53260  0.41110  Biso   1.000  C
  H278     1.0000 0.29130  0.49950  0.39940  Biso   1.000  H
  H279     1.0000 0.28220  0.53850  0.44230  Biso   1.000  H
  H280     1.0000 0.33460  0.53560  0.41600  Biso   1.000  H
  C263     1.0000 0.31480  0.56300  0.32650  Biso   1.000  C
  H281     1.0000 0.31170  0.52940  0.31410  Biso   1.000  H
  H282     1.0000 0.34930  0.56990  0.33410  Biso   1.000  H
  H283     1.0000 0.30310  0.58610  0.30160  Biso   1.000  H
  C264     1.0000 0.29060  0.62140  0.39270  Biso   1.000  C
  H284     1.0000 0.28050  0.64440  0.36700  Biso   1.000  H
  H285     1.0000 0.32540  0.62650  0.40030  Biso   1.000  H
  H286     1.0000 0.27100  0.62700  0.42220  Biso   1.000  H
  O67      1.0000 0.52646  0.58642  0.61220  Biso   1.000  O
  O68      1.0000 0.51913  0.54650  0.68231  Biso   1.000  O
  O69      1.0000 0.42011  0.54531  0.67529  Biso   1.000  O
  S23      1.0000 0.37773  0.46376  0.61097  Biso   1.000  S
  C265     1.0000 0.50240  0.56710  0.64530  Biso   1.000  C
  C266     1.0000 0.44870  0.56810  0.63700  Biso   1.000  C
  H287     1.0000 0.43820  0.60260  0.63360  Biso   1.000  H
  H288     1.0000 0.44150  0.55130  0.60560  Biso   1.000  H
  C267     1.0000 0.37035  0.54920  0.66525  Biso   1.000  C
  C268     1.0000 0.34684  0.51360  0.63773  Biso   1.000  C
  C269     1.0000 0.34380  0.58970  0.68320  Biso   1.000  C
  C270     1.0000 0.29470  0.59510  0.67010  Biso   1.000  C
  H289     1.0000 0.27710  0.62270  0.68200  Biso   1.000  H
  C271     1.0000 0.27060  0.56120  0.64020  Biso   1.000  C
  C272     1.0000 0.29690  0.51990  0.62590  Biso   1.000  C
  H290     1.0000 0.28070  0.49510  0.60750  Biso   1.000  H
  C273     1.0000 0.21710  0.56890  0.62520  Biso   1.000  C
  C274     1.0000 0.20090  0.53260  0.58890  Biso   1.000  C
  H291     1.0000 0.20870  0.49950  0.60060  Biso   1.000  H
  H292     1.0000 0.21780  0.53850  0.55770  Biso   1.000  H
  H293     1.0000 0.16540  0.53560  0.58400  Biso   1.000  H
  C275     1.0000 0.18520  0.56300  0.67350  Biso   1.000  C
  H294     1.0000 0.18830  0.52940  0.68590  Biso   1.000  H
  H295     1.0000 0.15070  0.56990  0.66590  Biso   1.000  H
  H296     1.0000 0.19690  0.58610  0.69840  Biso   1.000  H
  C276     1.0000 0.20940  0.62140  0.60730  Biso   1.000  C
  H297     1.0000 0.21950  0.64440  0.63300  Biso   1.000  H
  H298     1.0000 0.17460  0.62650  0.59970  Biso   1.000  H
  H299     1.0000 0.22900  0.62700  0.57780  Biso   1.000  H
  O70      1.0000 0.02646  0.08642  0.11220  Biso   1.000  O
  O71      1.0000 0.01913  0.04650  0.18231  Biso   1.000  O
  O72      1.0000 0.92011  0.04531  0.17529  Biso   1.000  O
  S24      1.0000 0.87773  0.96376  0.11097  Biso   1.000  S
  C277     1.0000 0.00240  0.06710  0.14530  Biso   1.000  C
  C278     1.0000 0.94870  0.06810  0.13700  Biso   1.000  C
  H300     1.0000 0.93820  0.10260  0.13360  Biso   1.000  H
  H301     1.0000 0.94150  0.05130  0.10560  Biso   1.000  H
  C279     1.0000 0.87035  0.04920  0.16525  Biso   1.000  C
  C280     1.0000 0.84684  0.01360  0.13773  Biso   1.000  C
  C281     1.0000 0.84380  0.08970  0.18320  Biso   1.000  C
  C282     1.0000 0.79470  0.09510  0.17010  Biso   1.000  C
  H302     1.0000 0.77710  0.12270  0.18200  Biso   1.000  H
  C283     1.0000 0.77060  0.06120  0.14020  Biso   1.000  C
  C284     1.0000 0.79690  0.01990  0.12590  Biso   1.000  C
  H303     1.0000 0.78070  0.99510  0.10750  Biso   1.000  H
  C285     1.0000 0.71710  0.06890  0.12520  Biso   1.000  C
  C286     1.0000 0.70090  0.03260  0.08890  Biso   1.000  C
  H304     1.0000 0.70870  0.99950  0.10060  Biso   1.000  H
  H305     1.0000 0.71780  0.03850  0.05770  Biso   1.000  H
  H306     1.0000 0.66540  0.03560  0.08400  Biso   1.000  H
  C287     1.0000 0.68520  0.06300  0.17350  Biso   1.000  C
  H307     1.0000 0.68830  0.02940  0.18590  Biso   1.000  H
  H308     1.0000 0.65070  0.06990  0.16590  Biso   1.000  H
  H309     1.0000 0.69690  0.08610  0.19840  Biso   1.000  H
  C288     1.0000 0.70940  0.12140  0.10730  Biso   1.000  C
  H310     1.0000 0.71950  0.14440  0.13300  Biso   1.000  H
  H311     1.0000 0.67460  0.12650  0.09970  Biso   1.000  H
  H312     1.0000 0.72900  0.12700  0.07780  Biso   1.000  H
  O73      1.0000 0.22354  0.36220  0.66358  Biso   1.000  O
  O74      1.0000 0.23087  0.43231  0.70350  Biso   1.000  O
  O75      1.0000 0.32989  0.42529  0.70469  Biso   1.000  O
  S25      1.0000 0.37227  0.36097  0.78624  Biso   1.000  S
  C289     1.0000 0.24760  0.39530  0.68290  Biso   1.000  C
  C290     1.0000 0.30130  0.38700  0.68190  Biso   1.000  C
  H313     1.0000 0.31180  0.38360  0.64740  Biso   1.000  H
  H314     1.0000 0.30850  0.35560  0.69870  Biso   1.000  H
  C291     1.0000 0.37965  0.41525  0.70080  Biso   1.000  C
  C292     1.0000 0.40316  0.38773  0.73640  Biso   1.000  C
  C293     1.0000 0.40620  0.43320  0.66030  Biso   1.000  C
  C294     1.0000 0.45530  0.42010  0.65490  Biso   1.000  C
  H315     1.0000 0.47290  0.43200  0.62730  Biso   1.000  H
  C295     1.0000 0.47940  0.39020  0.68880  Biso   1.000  C
  C296     1.0000 0.45310  0.37590  0.73010  Biso   1.000  C
  H316     1.0000 0.46930  0.35750  0.75490  Biso   1.000  H
  C297     1.0000 0.53290  0.37520  0.68110  Biso   1.000  C
  C298     1.0000 0.54910  0.33890  0.71740  Biso   1.000  C
  H317     1.0000 0.54130  0.35060  0.75050  Biso   1.000  H
  H318     1.0000 0.53220  0.30770  0.71150  Biso   1.000  H
  H319     1.0000 0.58460  0.33400  0.71440  Biso   1.000  H
  C299     1.0000 0.56480  0.42350  0.68700  Biso   1.000  C
  H320     1.0000 0.56170  0.43590  0.72060  Biso   1.000  H
  H321     1.0000 0.59930  0.41590  0.68010  Biso   1.000  H
  H322     1.0000 0.55310  0.44840  0.66390  Biso   1.000  H
  C300     1.0000 0.54060  0.35730  0.62860  Biso   1.000  C
  H323     1.0000 0.53050  0.38300  0.60560  Biso   1.000  H
  H324     1.0000 0.57540  0.34970  0.62350  Biso   1.000  H
  H325     1.0000 0.52100  0.32780  0.62300  Biso   1.000  H
  O76      1.0000 0.72354  0.86220  0.16358  Biso   1.000  O
  O77      1.0000 0.73087  0.93231  0.20350  Biso   1.000  O
  O78      1.0000 0.82989  0.92529  0.20469  Biso   1.000  O
  S26      1.0000 0.87227  0.86097  0.28624  Biso   1.000  S
  C301     1.0000 0.74760  0.89530  0.18290  Biso   1.000  C
  C302     1.0000 0.80130  0.88700  0.18190  Biso   1.000  C
  H326     1.0000 0.81180  0.88360  0.14740  Biso   1.000  H
  H327     1.0000 0.80850  0.85560  0.19870  Biso   1.000  H
  C303     1.0000 0.87965  0.91525  0.20080  Biso   1.000  C
  C304     1.0000 0.90316  0.88773  0.23640  Biso   1.000  C
  C305     1.0000 0.90620  0.93320  0.16030  Biso   1.000  C
  C306     1.0000 0.95530  0.92010  0.15490  Biso   1.000  C
  H328     1.0000 0.97290  0.93200  0.12730  Biso   1.000  H
  C307     1.0000 0.97940  0.89020  0.18880  Biso   1.000  C
  C308     1.0000 0.95310  0.87590  0.23010  Biso   1.000  C
  H329     1.0000 0.96930  0.85750  0.25490  Biso   1.000  H
  C309     1.0000 0.03290  0.87520  0.18110  Biso   1.000  C
  C310     1.0000 0.04910  0.83890  0.21740  Biso   1.000  C
  H330     1.0000 0.04130  0.85060  0.25050  Biso   1.000  H
  H331     1.0000 0.03220  0.80770  0.21150  Biso   1.000  H
  H332     1.0000 0.08460  0.83400  0.21440  Biso   1.000  H
  C311     1.0000 0.06480  0.92350  0.18700  Biso   1.000  C
  H333     1.0000 0.06170  0.93590  0.22060  Biso   1.000  H
  H334     1.0000 0.09930  0.91590  0.18010  Biso   1.000  H
  H335     1.0000 0.05310  0.94840  0.16390  Biso   1.000  H
  C312     1.0000 0.04060  0.85730  0.12860  Biso   1.000  C
  H336     1.0000 0.03050  0.88300  0.10560  Biso   1.000  H
  H337     1.0000 0.07540  0.84970  0.12350  Biso   1.000  H
  H338     1.0000 0.02100  0.82780  0.12300  Biso   1.000  H
  O79      1.0000 0.27646  0.63780  0.16358  Biso   1.000  O
  O80      1.0000 0.26913  0.56769  0.20350  Biso   1.000  O
  O81      1.0000 0.17011  0.57471  0.20469  Biso   1.000  O
  S27      1.0000 0.12773  0.63903  0.28624  Biso   1.000  S
  C313     1.0000 0.25240  0.60470  0.18290  Biso   1.000  C
  C314     1.0000 0.19870  0.61300  0.18190  Biso   1.000  C
  H339     1.0000 0.18820  0.61640  0.14740  Biso   1.000  H
  H340     1.0000 0.19150  0.64440  0.19870  Biso   1.000  H
  C315     1.0000 0.12035  0.58475  0.20080  Biso   1.000  C
  C316     1.0000 0.09684  0.61227  0.23640  Biso   1.000  C
  C317     1.0000 0.09380  0.56680  0.16030  Biso   1.000  C
  C318     1.0000 0.04470  0.57990  0.15490  Biso   1.000  C
  H341     1.0000 0.02710  0.56800  0.12730  Biso   1.000  H
  C319     1.0000 0.02060  0.60980  0.18880  Biso   1.000  C
  C320     1.0000 0.04690  0.62410  0.23010  Biso   1.000  C
  H342     1.0000 0.03070  0.64250  0.25490  Biso   1.000  H
  C321     1.0000 0.96710  0.62480  0.18110  Biso   1.000  C
  C322     1.0000 0.95090  0.66110  0.21740  Biso   1.000  C
  H343     1.0000 0.95870  0.64940  0.25050  Biso   1.000  H
  H344     1.0000 0.96780  0.69230  0.21150  Biso   1.000  H
  H345     1.0000 0.91540  0.66600  0.21440  Biso   1.000  H
  C323     1.0000 0.93520  0.57650  0.18700  Biso   1.000  C
  H346     1.0000 0.93830  0.56410  0.22060  Biso   1.000  H
  H347     1.0000 0.90070  0.58410  0.18010  Biso   1.000  H
  H348     1.0000 0.94690  0.55160  0.16390  Biso   1.000  H
  C324     1.0000 0.95940  0.64270  0.12860  Biso   1.000  C
  H349     1.0000 0.96950  0.61700  0.10560  Biso   1.000  H
  H350     1.0000 0.92460  0.65030  0.12350  Biso   1.000  H
  H351     1.0000 0.97900  0.67220  0.12300  Biso   1.000  H
  O82      1.0000 0.77646  0.13780  0.66358  Biso   1.000  O
  O83      1.0000 0.76913  0.06769  0.70350  Biso   1.000  O
  O84      1.0000 0.67011  0.07471  0.70469  Biso   1.000  O
  S28      1.0000 0.62773  0.13903  0.78624  Biso   1.000  S
  C325     1.0000 0.75240  0.10470  0.68290  Biso   1.000  C
  C326     1.0000 0.69870  0.11300  0.68190  Biso   1.000  C
  H352     1.0000 0.68820  0.11640  0.64740  Biso   1.000  H
  H353     1.0000 0.69150  0.14440  0.69870  Biso   1.000  H
  C327     1.0000 0.62035  0.08475  0.70080  Biso   1.000  C
  C328     1.0000 0.59684  0.11227  0.73640  Biso   1.000  C
  C329     1.0000 0.59380  0.06680  0.66030  Biso   1.000  C
  C330     1.0000 0.54470  0.07990  0.65490  Biso   1.000  C
  H354     1.0000 0.52710  0.06800  0.62730  Biso   1.000  H
  C331     1.0000 0.52060  0.10980  0.68880  Biso   1.000  C
  C332     1.0000 0.54690  0.12410  0.73010  Biso   1.000  C
  H355     1.0000 0.53070  0.14250  0.75490  Biso   1.000  H
  C333     1.0000 0.46710  0.12480  0.68110  Biso   1.000  C
  C334     1.0000 0.45090  0.16110  0.71740  Biso   1.000  C
  H356     1.0000 0.45870  0.14940  0.75050  Biso   1.000  H
  H357     1.0000 0.46780  0.19230  0.71150  Biso   1.000  H
  H358     1.0000 0.41540  0.16600  0.71440  Biso   1.000  H
  C335     1.0000 0.43520  0.07650  0.68700  Biso   1.000  C
  H359     1.0000 0.43830  0.06410  0.72060  Biso   1.000  H
  H360     1.0000 0.40070  0.08410  0.68010  Biso   1.000  H
  H361     1.0000 0.44690  0.05160  0.66390  Biso   1.000  H
  C336     1.0000 0.45940  0.14270  0.62860  Biso   1.000  C
  H362     1.0000 0.46950  0.11700  0.60560  Biso   1.000  H
  H363     1.0000 0.42460  0.15030  0.62350  Biso   1.000  H
  H364     1.0000 0.47900  0.17220  0.62300  Biso   1.000  H
  O85      1.0000 0.72354  0.13780  0.33642  Biso   1.000  O
  O86      1.0000 0.73087  0.06769  0.29650  Biso   1.000  O
  O87      1.0000 0.82989  0.07471  0.29531  Biso   1.000  O
  S29      1.0000 0.87227  0.13903  0.21376  Biso   1.000  S
  C337     1.0000 0.74760  0.10470  0.31710  Biso   1.000  C
  C338     1.0000 0.80130  0.11300  0.31810  Biso   1.000  C
  H365     1.0000 0.81180  0.11640  0.35260  Biso   1.000  H
  H366     1.0000 0.80850  0.14440  0.30130  Biso   1.000  H
  C339     1.0000 0.87965  0.08475  0.29920  Biso   1.000  C
  C340     1.0000 0.90316  0.11227  0.26360  Biso   1.000  C
  C341     1.0000 0.90620  0.06680  0.33970  Biso   1.000  C
  C342     1.0000 0.95530  0.07990  0.34510  Biso   1.000  C
  H367     1.0000 0.97290  0.06800  0.37270  Biso   1.000  H
  C343     1.0000 0.97940  0.10980  0.31120  Biso   1.000  C
  C344     1.0000 0.95310  0.12410  0.26990  Biso   1.000  C
  H368     1.0000 0.96930  0.14250  0.24510  Biso   1.000  H
  C345     1.0000 0.03290  0.12480  0.31890  Biso   1.000  C
  C346     1.0000 0.04910  0.16110  0.28260  Biso   1.000  C
  H369     1.0000 0.04130  0.14940  0.24950  Biso   1.000  H
  H370     1.0000 0.03220  0.19230  0.28850  Biso   1.000  H
  H371     1.0000 0.08460  0.16600  0.28560  Biso   1.000  H
  C347     1.0000 0.06480  0.07650  0.31300  Biso   1.000  C
  H372     1.0000 0.06170  0.06410  0.27940  Biso   1.000  H
  H373     1.0000 0.09930  0.08410  0.31990  Biso   1.000  H
  H374     1.0000 0.05310  0.05160  0.33610  Biso   1.000  H
  C348     1.0000 0.04060  0.14270  0.37140  Biso   1.000  C
  H375     1.0000 0.03050  0.11700  0.39440  Biso   1.000  H
  H376     1.0000 0.07540  0.15030  0.37650  Biso   1.000  H
  H377     1.0000 0.02100  0.17220  0.37700  Biso   1.000  H
  O88      1.0000 0.22354  0.63780  0.83642  Biso   1.000  O
  O89      1.0000 0.23087  0.56769  0.79650  Biso   1.000  O
  O90      1.0000 0.32989  0.57471  0.79531  Biso   1.000  O
  S30      1.0000 0.37227  0.63903  0.71376  Biso   1.000  S
  C349     1.0000 0.24760  0.60470  0.81710  Biso   1.000  C
  C350     1.0000 0.30130  0.61300  0.81810  Biso   1.000  C
  H378     1.0000 0.31180  0.61640  0.85260  Biso   1.000  H
  H379     1.0000 0.30850  0.64440  0.80130  Biso   1.000  H
  C351     1.0000 0.37965  0.58475  0.79920  Biso   1.000  C
  C352     1.0000 0.40316  0.61227  0.76360  Biso   1.000  C
  C353     1.0000 0.40620  0.56680  0.83970  Biso   1.000  C
  C354     1.0000 0.45530  0.57990  0.84510  Biso   1.000  C
  H380     1.0000 0.47290  0.56800  0.87270  Biso   1.000  H
  C355     1.0000 0.47940  0.60980  0.81120  Biso   1.000  C
  C356     1.0000 0.45310  0.62410  0.76990  Biso   1.000  C
  H381     1.0000 0.46930  0.64250  0.74510  Biso   1.000  H
  C357     1.0000 0.53290  0.62480  0.81890  Biso   1.000  C
  C358     1.0000 0.54910  0.66110  0.78260  Biso   1.000  C
  H382     1.0000 0.54130  0.64940  0.74950  Biso   1.000  H
  H383     1.0000 0.53220  0.69230  0.78850  Biso   1.000  H
  H384     1.0000 0.58460  0.66600  0.78560  Biso   1.000  H
  C359     1.0000 0.56480  0.57650  0.81300  Biso   1.000  C
  H385     1.0000 0.56170  0.56410  0.77940  Biso   1.000  H
  H386     1.0000 0.59930  0.58410  0.81990  Biso   1.000  H
  H387     1.0000 0.55310  0.55160  0.83610  Biso   1.000  H
  C360     1.0000 0.54060  0.64270  0.87140  Biso   1.000  C
  H388     1.0000 0.53050  0.61700  0.89440  Biso   1.000  H
  H389     1.0000 0.57540  0.65030  0.87650  Biso   1.000  H
  H390     1.0000 0.52100  0.67220  0.87700  Biso   1.000  H
  O91      1.0000 0.77646  0.86220  0.83642  Biso   1.000  O
  O92      1.0000 0.76913  0.93231  0.79650  Biso   1.000  O
  O93      1.0000 0.67011  0.92529  0.79531  Biso   1.000  O
  S31      1.0000 0.62773  0.86097  0.71376  Biso   1.000  S
  C361     1.0000 0.75240  0.89530  0.81710  Biso   1.000  C
  C362     1.0000 0.69870  0.88700  0.81810  Biso   1.000  C
  H391     1.0000 0.68820  0.88360  0.85260  Biso   1.000  H
  H392     1.0000 0.69150  0.85560  0.80130  Biso   1.000  H
  C363     1.0000 0.62035  0.91525  0.79920  Biso   1.000  C
  C364     1.0000 0.59684  0.88773  0.76360  Biso   1.000  C
  C365     1.0000 0.59380  0.93320  0.83970  Biso   1.000  C
  C366     1.0000 0.54470  0.92010  0.84510  Biso   1.000  C
  H393     1.0000 0.52710  0.93200  0.87270  Biso   1.000  H
  C367     1.0000 0.52060  0.89020  0.81120  Biso   1.000  C
  C368     1.0000 0.54690  0.87590  0.76990  Biso   1.000  C
  H394     1.0000 0.53070  0.85750  0.74510  Biso   1.000  H
  C369     1.0000 0.46710  0.87520  0.81890  Biso   1.000  C
  C370     1.0000 0.45090  0.83890  0.78260  Biso   1.000  C
  H395     1.0000 0.45870  0.85060  0.74950  Biso   1.000  H
  H396     1.0000 0.46780  0.80770  0.78850  Biso   1.000  H
  H397     1.0000 0.41540  0.83400  0.78560  Biso   1.000  H
  C371     1.0000 0.43520  0.92350  0.81300  Biso   1.000  C
  H398     1.0000 0.43830  0.93590  0.77940  Biso   1.000  H
  H399     1.0000 0.40070  0.91590  0.81990  Biso   1.000  H
  H400     1.0000 0.44690  0.94840  0.83610  Biso   1.000  H
  C372     1.0000 0.45940  0.85730  0.87140  Biso   1.000  C
  H401     1.0000 0.46950  0.88300  0.89440  Biso   1.000  H
  H402     1.0000 0.42460  0.84970  0.87650  Biso   1.000  H
  H403     1.0000 0.47900  0.82780  0.87700  Biso   1.000  H
  O94      1.0000 0.27646  0.36220  0.33642  Biso   1.000  O
  O95      1.0000 0.26913  0.43231  0.29650  Biso   1.000  O
  O96      1.0000 0.17011  0.42529  0.29531  Biso   1.000  O
  S32      1.0000 0.12773  0.36097  0.21376  Biso   1.000  S
  C373     1.0000 0.25240  0.39530  0.31710  Biso   1.000  C
  C374     1.0000 0.19870  0.38700  0.31810  Biso   1.000  C
  H404     1.0000 0.18820  0.38360  0.35260  Biso   1.000  H
  H405     1.0000 0.19150  0.35560  0.30130  Biso   1.000  H
  C375     1.0000 0.12035  0.41525  0.29920  Biso   1.000  C
  C376     1.0000 0.09684  0.38773  0.26360  Biso   1.000  C
  C377     1.0000 0.09380  0.43320  0.33970  Biso   1.000  C
  C378     1.0000 0.04470  0.42010  0.34510  Biso   1.000  C
  H406     1.0000 0.02710  0.43200  0.37270  Biso   1.000  H
  C379     1.0000 0.02060  0.39020  0.31120  Biso   1.000  C
  C380     1.0000 0.04690  0.37590  0.26990  Biso   1.000  C
  H407     1.0000 0.03070  0.35750  0.24510  Biso   1.000  H
  C381     1.0000 0.96710  0.37520  0.31890  Biso   1.000  C
  C382     1.0000 0.95090  0.33890  0.28260  Biso   1.000  C
  H408     1.0000 0.95870  0.35060  0.24950  Biso   1.000  H
  H409     1.0000 0.96780  0.30770  0.28850  Biso   1.000  H
  H410     1.0000 0.91540  0.33400  0.28560  Biso   1.000  H
  C383     1.0000 0.93520  0.42350  0.31300  Biso   1.000  C
  H411     1.0000 0.93830  0.43590  0.27940  Biso   1.000  H
  H412     1.0000 0.90070  0.41590  0.31990  Biso   1.000  H
  H413     1.0000 0.94690  0.44840  0.33610  Biso   1.000  H
  C384     1.0000 0.95940  0.35730  0.37140  Biso   1.000  C
  H414     1.0000 0.96950  0.38300  0.39440  Biso   1.000  H
  H415     1.0000 0.92460  0.34970  0.37650  Biso   1.000  H
  H416     1.0000 0.97900  0.32780  0.37700  Biso   1.000  H
  O97      1.0000 0.36220  0.66358  0.22354  Biso   1.000  O
  O98      1.0000 0.43231  0.70350  0.23087  Biso   1.000  O
  O99      1.0000 0.42529  0.70469  0.32989  Biso   1.000  O
  S33      1.0000 0.36097  0.78624  0.37227  Biso   1.000  S
  C385     1.0000 0.39530  0.68290  0.24760  Biso   1.000  C
  C386     1.0000 0.38700  0.68190  0.30130  Biso   1.000  C
  H417     1.0000 0.38360  0.64740  0.31180  Biso   1.000  H
  H418     1.0000 0.35560  0.69870  0.30850  Biso   1.000  H
  C387     1.0000 0.41525  0.70080  0.37965  Biso   1.000  C
  C388     1.0000 0.38773  0.73640  0.40316  Biso   1.000  C
  C389     1.0000 0.43320  0.66030  0.40620  Biso   1.000  C
  C390     1.0000 0.42010  0.65490  0.45530  Biso   1.000  C
  H419     1.0000 0.43200  0.62730  0.47290  Biso   1.000  H
  C391     1.0000 0.39020  0.68880  0.47940  Biso   1.000  C
  C392     1.0000 0.37590  0.73010  0.45310  Biso   1.000  C
  H420     1.0000 0.35750  0.75490  0.46930  Biso   1.000  H
  C393     1.0000 0.37520  0.68110  0.53290  Biso   1.000  C
  C394     1.0000 0.33890  0.71740  0.54910  Biso   1.000  C
  H421     1.0000 0.35060  0.75050  0.54130  Biso   1.000  H
  H422     1.0000 0.30770  0.71150  0.53220  Biso   1.000  H
  H423     1.0000 0.33400  0.71440  0.58460  Biso   1.000  H
  C395     1.0000 0.42350  0.68700  0.56480  Biso   1.000  C
  H424     1.0000 0.43590  0.72060  0.56170  Biso   1.000  H
  H425     1.0000 0.41590  0.68010  0.59930  Biso   1.000  H
  H426     1.0000 0.44840  0.66390  0.55310  Biso   1.000  H
  C396     1.0000 0.35730  0.62860  0.54060  Biso   1.000  C
  H427     1.0000 0.38300  0.60560  0.53050  Biso   1.000  H
  H428     1.0000 0.34970  0.62350  0.57540  Biso   1.000  H
  H429     1.0000 0.32780  0.62300  0.52100  Biso   1.000  H
  O100     1.0000 0.86220  0.16358  0.72354  Biso   1.000  O
  O101     1.0000 0.93231  0.20350  0.73087  Biso   1.000  O
  O102     1.0000 0.92529  0.20469  0.82989  Biso   1.000  O
  S34      1.0000 0.86097  0.28624  0.87227  Biso   1.000  S
  C397     1.0000 0.89530  0.18290  0.74760  Biso   1.000  C
  C398     1.0000 0.88700  0.18190  0.80130  Biso   1.000  C
  H430     1.0000 0.88360  0.14740  0.81180  Biso   1.000  H
  H431     1.0000 0.85560  0.19870  0.80850  Biso   1.000  H
  C399     1.0000 0.91525  0.20080  0.87965  Biso   1.000  C
  C400     1.0000 0.88773  0.23640  0.90316  Biso   1.000  C
  C401     1.0000 0.93320  0.16030  0.90620  Biso   1.000  C
  C402     1.0000 0.92010  0.15490  0.95530  Biso   1.000  C
  H432     1.0000 0.93200  0.12730  0.97290  Biso   1.000  H
  C403     1.0000 0.89020  0.18880  0.97940  Biso   1.000  C
  C404     1.0000 0.87590  0.23010  0.95310  Biso   1.000  C
  H433     1.0000 0.85750  0.25490  0.96930  Biso   1.000  H
  C405     1.0000 0.87520  0.18110  0.03290  Biso   1.000  C
  C406     1.0000 0.83890  0.21740  0.04910  Biso   1.000  C
  H434     1.0000 0.85060  0.25050  0.04130  Biso   1.000  H
  H435     1.0000 0.80770  0.21150  0.03220  Biso   1.000  H
  H436     1.0000 0.83400  0.21440  0.08460  Biso   1.000  H
  C407     1.0000 0.92350  0.18700  0.06480  Biso   1.000  C
  H437     1.0000 0.93590  0.22060  0.06170  Biso   1.000  H
  H438     1.0000 0.91590  0.18010  0.09930  Biso   1.000  H
  H439     1.0000 0.94840  0.16390  0.05310  Biso   1.000  H
  C408     1.0000 0.85730  0.12860  0.04060  Biso   1.000  C
  H440     1.0000 0.88300  0.10560  0.03050  Biso   1.000  H
  H441     1.0000 0.84970  0.12350  0.07540  Biso   1.000  H
  H442     1.0000 0.82780  0.12300  0.02100  Biso   1.000  H
  O103     1.0000 0.63780  0.16358  0.27646  Biso   1.000  O
  O104     1.0000 0.56769  0.20350  0.26913  Biso   1.000  O
  O105     1.0000 0.57471  0.20469  0.17011  Biso   1.000  O
  S35      1.0000 0.63903  0.28624  0.12773  Biso   1.000  S
  C409     1.0000 0.60470  0.18290  0.25240  Biso   1.000  C
  C410     1.0000 0.61300  0.18190  0.19870  Biso   1.000  C
  H443     1.0000 0.61640  0.14740  0.18820  Biso   1.000  H
  H444     1.0000 0.64440  0.19870  0.19150  Biso   1.000  H
  C411     1.0000 0.58475  0.20080  0.12035  Biso   1.000  C
  C412     1.0000 0.61227  0.23640  0.09684  Biso   1.000  C
  C413     1.0000 0.56680  0.16030  0.09380  Biso   1.000  C
  C414     1.0000 0.57990  0.15490  0.04470  Biso   1.000  C
  H445     1.0000 0.56800  0.12730  0.02710  Biso   1.000  H
  C415     1.0000 0.60980  0.18880  0.02060  Biso   1.000  C
  C416     1.0000 0.62410  0.23010  0.04690  Biso   1.000  C
  H446     1.0000 0.64250  0.25490  0.03070  Biso   1.000  H
  C417     1.0000 0.62480  0.18110  0.96710  Biso   1.000  C
  C418     1.0000 0.66110  0.21740  0.95090  Biso   1.000  C
  H447     1.0000 0.64940  0.25050  0.95870  Biso   1.000  H
  H448     1.0000 0.69230  0.21150  0.96780  Biso   1.000  H
  H449     1.0000 0.66600  0.21440  0.91540  Biso   1.000  H
  C419     1.0000 0.57650  0.18700  0.93520  Biso   1.000  C
  H450     1.0000 0.56410  0.22060  0.93830  Biso   1.000  H
  H451     1.0000 0.58410  0.18010  0.90070  Biso   1.000  H
  H452     1.0000 0.55160  0.16390  0.94690  Biso   1.000  H
  C420     1.0000 0.64270  0.12860  0.95940  Biso   1.000  C
  H453     1.0000 0.61700  0.10560  0.96950  Biso   1.000  H
  H454     1.0000 0.65030  0.12350  0.92460  Biso   1.000  H
  H455     1.0000 0.67220  0.12300  0.97900  Biso   1.000  H
  O106     1.0000 0.13780  0.66358  0.77646  Biso   1.000  O
  O107     1.0000 0.06769  0.70350  0.76913  Biso   1.000  O
  O108     1.0000 0.07471  0.70469  0.67011  Biso   1.000  O
  S36      1.0000 0.13903  0.78624  0.62773  Biso   1.000  S
  C421     1.0000 0.10470  0.68290  0.75240  Biso   1.000  C
  C422     1.0000 0.11300  0.68190  0.69870  Biso   1.000  C
  H456     1.0000 0.11640  0.64740  0.68820  Biso   1.000  H
  H457     1.0000 0.14440  0.69870  0.69150  Biso   1.000  H
  C423     1.0000 0.08475  0.70080  0.62035  Biso   1.000  C
  C424     1.0000 0.11227  0.73640  0.59684  Biso   1.000  C
  C425     1.0000 0.06680  0.66030  0.59380  Biso   1.000  C
  C426     1.0000 0.07990  0.65490  0.54470  Biso   1.000  C
  H458     1.0000 0.06800  0.62730  0.52710  Biso   1.000  H
  C427     1.0000 0.10980  0.68880  0.52060  Biso   1.000  C
  C428     1.0000 0.12410  0.73010  0.54690  Biso   1.000  C
  H459     1.0000 0.14250  0.75490  0.53070  Biso   1.000  H
  C429     1.0000 0.12480  0.68110  0.46710  Biso   1.000  C
  C430     1.0000 0.16110  0.71740  0.45090  Biso   1.000  C
  H460     1.0000 0.14940  0.75050  0.45870  Biso   1.000  H
  H461     1.0000 0.19230  0.71150  0.46780  Biso   1.000  H
  H462     1.0000 0.16600  0.71440  0.41540  Biso   1.000  H
  C431     1.0000 0.07650  0.68700  0.43520  Biso   1.000  C
  H463     1.0000 0.06410  0.72060  0.43830  Biso   1.000  H
  H464     1.0000 0.08410  0.68010  0.40070  Biso   1.000  H
  H465     1.0000 0.05160  0.66390  0.44690  Biso   1.000  H
  C432     1.0000 0.14270  0.62860  0.45940  Biso   1.000  C
  H466     1.0000 0.11700  0.60560  0.46950  Biso   1.000  H
  H467     1.0000 0.15030  0.62350  0.42460  Biso   1.000  H
  H468     1.0000 0.17220  0.62300  0.47900  Biso   1.000  H
  O109     1.0000 0.13780  0.33642  0.72354  Biso   1.000  O
  O110     1.0000 0.06769  0.29650  0.73087  Biso   1.000  O
  O111     1.0000 0.07471  0.29531  0.82989  Biso   1.000  O
  S37      1.0000 0.13903  0.21376  0.87227  Biso   1.000  S
  C433     1.0000 0.10470  0.31710  0.74760  Biso   1.000  C
  C434     1.0000 0.11300  0.31810  0.80130  Biso   1.000  C
  H469     1.0000 0.11640  0.35260  0.81180  Biso   1.000  H
  H470     1.0000 0.14440  0.30130  0.80850  Biso   1.000  H
  C435     1.0000 0.08475  0.29920  0.87965  Biso   1.000  C
  C436     1.0000 0.11227  0.26360  0.90316  Biso   1.000  C
  C437     1.0000 0.06680  0.33970  0.90620  Biso   1.000  C
  C438     1.0000 0.07990  0.34510  0.95530  Biso   1.000  C
  H471     1.0000 0.06800  0.37270  0.97290  Biso   1.000  H
  C439     1.0000 0.10980  0.31120  0.97940  Biso   1.000  C
  C440     1.0000 0.12410  0.26990  0.95310  Biso   1.000  C
  H472     1.0000 0.14250  0.24510  0.96930  Biso   1.000  H
  C441     1.0000 0.12480  0.31890  0.03290  Biso   1.000  C
  C442     1.0000 0.16110  0.28260  0.04910  Biso   1.000  C
  H473     1.0000 0.14940  0.24950  0.04130  Biso   1.000  H
  H474     1.0000 0.19230  0.28850  0.03220  Biso   1.000  H
  H475     1.0000 0.16600  0.28560  0.08460  Biso   1.000  H
  C443     1.0000 0.07650  0.31300  0.06480  Biso   1.000  C
  H476     1.0000 0.06410  0.27940  0.06170  Biso   1.000  H
  H477     1.0000 0.08410  0.31990  0.09930  Biso   1.000  H
  H478     1.0000 0.05160  0.33610  0.05310  Biso   1.000  H
  C444     1.0000 0.14270  0.37140  0.04060  Biso   1.000  C
  H479     1.0000 0.11700  0.39440  0.03050  Biso   1.000  H
  H480     1.0000 0.15030  0.37650  0.07540  Biso   1.000  H
  H481     1.0000 0.17220  0.37700  0.02100  Biso   1.000  H
  O112     1.0000 0.63780  0.83642  0.22354  Biso   1.000  O
  O113     1.0000 0.56769  0.79650  0.23087  Biso   1.000  O
  O114     1.0000 0.57471  0.79531  0.32989  Biso   1.000  O
  S38      1.0000 0.63903  0.71376  0.37227  Biso   1.000  S
  C445     1.0000 0.60470  0.81710  0.24760  Biso   1.000  C
  C446     1.0000 0.61300  0.81810  0.30130  Biso   1.000  C
  H482     1.0000 0.61640  0.85260  0.31180  Biso   1.000  H
  H483     1.0000 0.64440  0.80130  0.30850  Biso   1.000  H
  C447     1.0000 0.58475  0.79920  0.37965  Biso   1.000  C
  C448     1.0000 0.61227  0.76360  0.40316  Biso   1.000  C
  C449     1.0000 0.56680  0.83970  0.40620  Biso   1.000  C
  C450     1.0000 0.57990  0.84510  0.45530  Biso   1.000  C
  H484     1.0000 0.56800  0.87270  0.47290  Biso   1.000  H
  C451     1.0000 0.60980  0.81120  0.47940  Biso   1.000  C
  C452     1.0000 0.62410  0.76990  0.45310  Biso   1.000  C
  H485     1.0000 0.64250  0.74510  0.46930  Biso   1.000  H
  C453     1.0000 0.62480  0.81890  0.53290  Biso   1.000  C
  C454     1.0000 0.66110  0.78260  0.54910  Biso   1.000  C
  H486     1.0000 0.64940  0.74950  0.54130  Biso   1.000  H
  H487     1.0000 0.69230  0.78850  0.53220  Biso   1.000  H
  H488     1.0000 0.66600  0.78560  0.58460  Biso   1.000  H
  C455     1.0000 0.57650  0.81300  0.56480  Biso   1.000  C
  H489     1.0000 0.56410  0.77940  0.56170  Biso   1.000  H
  H490     1.0000 0.58410  0.81990  0.59930  Biso   1.000  H
  H491     1.0000 0.55160  0.83610  0.55310  Biso   1.000  H
  C456     1.0000 0.64270  0.87140  0.54060  Biso   1.000  C
  H492     1.0000 0.61700  0.89440  0.53050  Biso   1.000  H
  H493     1.0000 0.65030  0.87650  0.57540  Biso   1.000  H
  H494     1.0000 0.67220  0.87700  0.52100  Biso   1.000  H
  O115     1.0000 0.86220  0.83642  0.77646  Biso   1.000  O
  O116     1.0000 0.93231  0.79650  0.76913  Biso   1.000  O
  O117     1.0000 0.92529  0.79531  0.67011  Biso   1.000  O
  S39      1.0000 0.86097  0.71376  0.62773  Biso   1.000  S
  C457     1.0000 0.89530  0.81710  0.75240  Biso   1.000  C
  C458     1.0000 0.88700  0.81810  0.69870  Biso   1.000  C
  H495     1.0000 0.88360  0.85260  0.68820  Biso   1.000  H
  H496     1.0000 0.85560  0.80130  0.69150  Biso   1.000  H
  C459     1.0000 0.91525  0.79920  0.62035  Biso   1.000  C
  C460     1.0000 0.88773  0.76360  0.59684  Biso   1.000  C
  C461     1.0000 0.93320  0.83970  0.59380  Biso   1.000  C
  C462     1.0000 0.92010  0.84510  0.54470  Biso   1.000  C
  H497     1.0000 0.93200  0.87270  0.52710  Biso   1.000  H
  C463     1.0000 0.89020  0.81120  0.52060  Biso   1.000  C
  C464     1.0000 0.87590  0.76990  0.54690  Biso   1.000  C
  H498     1.0000 0.85750  0.74510  0.53070  Biso   1.000  H
  C465     1.0000 0.87520  0.81890  0.46710  Biso   1.000  C
  C466     1.0000 0.83890  0.78260  0.45090  Biso   1.000  C
  H499     1.0000 0.85060  0.74950  0.45870  Biso   1.000  H
  H500     1.0000 0.80770  0.78850  0.46780  Biso   1.000  H
  H501     1.0000 0.83400  0.78560  0.41540  Biso   1.000  H
  C467     1.0000 0.92350  0.81300  0.43520  Biso   1.000  C
  H502     1.0000 0.93590  0.77940  0.43830  Biso   1.000  H
  H503     1.0000 0.91590  0.81990  0.40070  Biso   1.000  H
  H504     1.0000 0.94840  0.83610  0.44690  Biso   1.000  H
  C468     1.0000 0.85730  0.87140  0.45940  Biso   1.000  C
  H505     1.0000 0.88300  0.89440  0.46950  Biso   1.000  H
  H506     1.0000 0.84970  0.87650  0.42460  Biso   1.000  H
  H507     1.0000 0.82780  0.87700  0.47900  Biso   1.000  H
  O118     1.0000 0.36220  0.33642  0.27646  Biso   1.000  O
  O119     1.0000 0.43231  0.29650  0.26913  Biso   1.000  O
  O120     1.0000 0.42529  0.29531  0.17011  Biso   1.000  O
  S40      1.0000 0.36097  0.21376  0.12773  Biso   1.000  S
  C469     1.0000 0.39530  0.31710  0.25240  Biso   1.000  C
  C470     1.0000 0.38700  0.31810  0.19870  Biso   1.000  C
  H508     1.0000 0.38360  0.35260  0.18820  Biso   1.000  H
  H509     1.0000 0.35560  0.30130  0.19150  Biso   1.000  H
  C471     1.0000 0.41525  0.29920  0.12035  Biso   1.000  C
  C472     1.0000 0.38773  0.26360  0.09684  Biso   1.000  C
  C473     1.0000 0.43320  0.33970  0.09380  Biso   1.000  C
  C474     1.0000 0.42010  0.34510  0.04470  Biso   1.000  C
  H510     1.0000 0.43200  0.37270  0.02710  Biso   1.000  H
  C475     1.0000 0.39020  0.31120  0.02060  Biso   1.000  C
  C476     1.0000 0.37590  0.26990  0.04690  Biso   1.000  C
  H511     1.0000 0.35750  0.24510  0.03070  Biso   1.000  H
  C477     1.0000 0.37520  0.31890  0.96710  Biso   1.000  C
  C478     1.0000 0.33890  0.28260  0.95090  Biso   1.000  C
  H512     1.0000 0.35060  0.24950  0.95870  Biso   1.000  H
  H513     1.0000 0.30770  0.28850  0.96780  Biso   1.000  H
  H514     1.0000 0.33400  0.28560  0.91540  Biso   1.000  H
  C479     1.0000 0.42350  0.31300  0.93520  Biso   1.000  C
  H515     1.0000 0.43590  0.27940  0.93830  Biso   1.000  H
  H516     1.0000 0.41590  0.31990  0.90070  Biso   1.000  H
  H517     1.0000 0.44840  0.33610  0.94690  Biso   1.000  H
  C480     1.0000 0.35730  0.37140  0.95940  Biso   1.000  C
  H518     1.0000 0.38300  0.39440  0.96950  Biso   1.000  H
  H519     1.0000 0.34970  0.37650  0.92460  Biso   1.000  H
  H520     1.0000 0.32780  0.37700  0.97900  Biso   1.000  H
  O121     1.0000 0.66358  0.22354  0.36220  Biso   1.000  O
  O122     1.0000 0.70350  0.23087  0.43231  Biso   1.000  O
  O123     1.0000 0.70469  0.32989  0.42529  Biso   1.000  O
  S41      1.0000 0.78624  0.37227  0.36097  Biso   1.000  S
  C481     1.0000 0.68290  0.24760  0.39530  Biso   1.000  C
  C482     1.0000 0.68190  0.30130  0.38700  Biso   1.000  C
  H521     1.0000 0.64740  0.31180  0.38360  Biso   1.000  H
  H522     1.0000 0.69870  0.30850  0.35560  Biso   1.000  H
  C483     1.0000 0.70080  0.37965  0.41525  Biso   1.000  C
  C484     1.0000 0.73640  0.40316  0.38773  Biso   1.000  C
  C485     1.0000 0.66030  0.40620  0.43320  Biso   1.000  C
  C486     1.0000 0.65490  0.45530  0.42010  Biso   1.000  C
  H523     1.0000 0.62730  0.47290  0.43200  Biso   1.000  H
  C487     1.0000 0.68880  0.47940  0.39020  Biso   1.000  C
  C488     1.0000 0.73010  0.45310  0.37590  Biso   1.000  C
  H524     1.0000 0.75490  0.46930  0.35750  Biso   1.000  H
  C489     1.0000 0.68110  0.53290  0.37520  Biso   1.000  C
  C490     1.0000 0.71740  0.54910  0.33890  Biso   1.000  C
  H525     1.0000 0.75050  0.54130  0.35060  Biso   1.000  H
  H526     1.0000 0.71150  0.53220  0.30770  Biso   1.000  H
  H527     1.0000 0.71440  0.58460  0.33400  Biso   1.000  H
  C491     1.0000 0.68700  0.56480  0.42350  Biso   1.000  C
  H528     1.0000 0.72060  0.56170  0.43590  Biso   1.000  H
  H529     1.0000 0.68010  0.59930  0.41590  Biso   1.000  H
  H530     1.0000 0.66390  0.55310  0.44840  Biso   1.000  H
  C492     1.0000 0.62860  0.54060  0.35730  Biso   1.000  C
  H531     1.0000 0.60560  0.53050  0.38300  Biso   1.000  H
  H532     1.0000 0.62350  0.57540  0.34970  Biso   1.000  H
  H533     1.0000 0.62300  0.52100  0.32780  Biso   1.000  H
  O124     1.0000 0.16358  0.72354  0.86220  Biso   1.000  O
  O125     1.0000 0.20350  0.73087  0.93231  Biso   1.000  O
  O126     1.0000 0.20469  0.82989  0.92529  Biso   1.000  O
  S42      1.0000 0.28624  0.87227  0.86097  Biso   1.000  S
  C493     1.0000 0.18290  0.74760  0.89530  Biso   1.000  C
  C494     1.0000 0.18190  0.80130  0.88700  Biso   1.000  C
  H534     1.0000 0.14740  0.81180  0.88360  Biso   1.000  H
  H535     1.0000 0.19870  0.80850  0.85560  Biso   1.000  H
  C495     1.0000 0.20080  0.87965  0.91525  Biso   1.000  C
  C496     1.0000 0.23640  0.90316  0.88773  Biso   1.000  C
  C497     1.0000 0.16030  0.90620  0.93320  Biso   1.000  C
  C498     1.0000 0.15490  0.95530  0.92010  Biso   1.000  C
  H536     1.0000 0.12730  0.97290  0.93200  Biso   1.000  H
  C499     1.0000 0.18880  0.97940  0.89020  Biso   1.000  C
  C500     1.0000 0.23010  0.95310  0.87590  Biso   1.000  C
  H537     1.0000 0.25490  0.96930  0.85750  Biso   1.000  H
  C501     1.0000 0.18110  0.03290  0.87520  Biso   1.000  C
  C502     1.0000 0.21740  0.04910  0.83890  Biso   1.000  C
  H538     1.0000 0.25050  0.04130  0.85060  Biso   1.000  H
  H539     1.0000 0.21150  0.03220  0.80770  Biso   1.000  H
  H540     1.0000 0.21440  0.08460  0.83400  Biso   1.000  H
  C503     1.0000 0.18700  0.06480  0.92350  Biso   1.000  C
  H541     1.0000 0.22060  0.06170  0.93590  Biso   1.000  H
  H542     1.0000 0.18010  0.09930  0.91590  Biso   1.000  H
  H543     1.0000 0.16390  0.05310  0.94840  Biso   1.000  H
  C504     1.0000 0.12860  0.04060  0.85730  Biso   1.000  C
  H544     1.0000 0.10560  0.03050  0.88300  Biso   1.000  H
  H545     1.0000 0.12350  0.07540  0.84970  Biso   1.000  H
  H546     1.0000 0.12300  0.02100  0.82780  Biso   1.000  H
  O127     1.0000 0.16358  0.27646  0.63780  Biso   1.000  O
  O128     1.0000 0.20350  0.26913  0.56769  Biso   1.000  O
  O129     1.0000 0.20469  0.17011  0.57471  Biso   1.000  O
  S43      1.0000 0.28624  0.12773  0.63903  Biso   1.000  S
  C505     1.0000 0.18290  0.25240  0.60470  Biso   1.000  C
  C506     1.0000 0.18190  0.19870  0.61300  Biso   1.000  C
  H547     1.0000 0.14740  0.18820  0.61640  Biso   1.000  H
  H548     1.0000 0.19870  0.19150  0.64440  Biso   1.000  H
  C507     1.0000 0.20080  0.12035  0.58475  Biso   1.000  C
  C508     1.0000 0.23640  0.09684  0.61227  Biso   1.000  C
  C509     1.0000 0.16030  0.09380  0.56680  Biso   1.000  C
  C510     1.0000 0.15490  0.04470  0.57990  Biso   1.000  C
  H549     1.0000 0.12730  0.02710  0.56800  Biso   1.000  H
  C511     1.0000 0.18880  0.02060  0.60980  Biso   1.000  C
  C512     1.0000 0.23010  0.04690  0.62410  Biso   1.000  C
  H550     1.0000 0.25490  0.03070  0.64250  Biso   1.000  H
  C513     1.0000 0.18110  0.96710  0.62480  Biso   1.000  C
  C514     1.0000 0.21740  0.95090  0.66110  Biso   1.000  C
  H551     1.0000 0.25050  0.95870  0.64940  Biso   1.000  H
  H552     1.0000 0.21150  0.96780  0.69230  Biso   1.000  H
  H553     1.0000 0.21440  0.91540  0.66600  Biso   1.000  H
  C515     1.0000 0.18700  0.93520  0.57650  Biso   1.000  C
  H554     1.0000 0.22060  0.93830  0.56410  Biso   1.000  H
  H555     1.0000 0.18010  0.90070  0.58410  Biso   1.000  H
  H556     1.0000 0.16390  0.94690  0.55160  Biso   1.000  H
  C516     1.0000 0.12860  0.95940  0.64270  Biso   1.000  C
  H557     1.0000 0.10560  0.96950  0.61700  Biso   1.000  H
  H558     1.0000 0.12350  0.92460  0.65030  Biso   1.000  H
  H559     1.0000 0.12300  0.97900  0.67220  Biso   1.000  H
  O130     1.0000 0.66358  0.77646  0.13780  Biso   1.000  O
  O131     1.0000 0.70350  0.76913  0.06769  Biso   1.000  O
  O132     1.0000 0.70469  0.67011  0.07471  Biso   1.000  O
  S44      1.0000 0.78624  0.62773  0.13903  Biso   1.000  S
  C517     1.0000 0.68290  0.75240  0.10470  Biso   1.000  C
  C518     1.0000 0.68190  0.69870  0.11300  Biso   1.000  C
  H560     1.0000 0.64740  0.68820  0.11640  Biso   1.000  H
  H561     1.0000 0.69870  0.69150  0.14440  Biso   1.000  H
  C519     1.0000 0.70080  0.62035  0.08475  Biso   1.000  C
  C520     1.0000 0.73640  0.59684  0.11227  Biso   1.000  C
  C521     1.0000 0.66030  0.59380  0.06680  Biso   1.000  C
  C522     1.0000 0.65490  0.54470  0.07990  Biso   1.000  C
  H562     1.0000 0.62730  0.52710  0.06800  Biso   1.000  H
  C523     1.0000 0.68880  0.52060  0.10980  Biso   1.000  C
  C524     1.0000 0.73010  0.54690  0.12410  Biso   1.000  C
  H563     1.0000 0.75490  0.53070  0.14250  Biso   1.000  H
  C525     1.0000 0.68110  0.46710  0.12480  Biso   1.000  C
  C526     1.0000 0.71740  0.45090  0.16110  Biso   1.000  C
  H564     1.0000 0.75050  0.45870  0.14940  Biso   1.000  H
  H565     1.0000 0.71150  0.46780  0.19230  Biso   1.000  H
  H566     1.0000 0.71440  0.41540  0.16600  Biso   1.000  H
  C527     1.0000 0.68700  0.43520  0.07650  Biso   1.000  C
  H567     1.0000 0.72060  0.43830  0.06410  Biso   1.000  H
  H568     1.0000 0.68010  0.40070  0.08410  Biso   1.000  H
  H569     1.0000 0.66390  0.44690  0.05160  Biso   1.000  H
  C528     1.0000 0.62860  0.45940  0.14270  Biso   1.000  C
  H570     1.0000 0.60560  0.46950  0.11700  Biso   1.000  H
  H571     1.0000 0.62350  0.42460  0.15030  Biso   1.000  H
  H572     1.0000 0.62300  0.47900  0.17220  Biso   1.000  H
  O133     1.0000 0.33642  0.72354  0.13780  Biso   1.000  O
  O134     1.0000 0.29650  0.73087  0.06769  Biso   1.000  O
  O135     1.0000 0.29531  0.82989  0.07471  Biso   1.000  O
  S45      1.0000 0.21376  0.87227  0.13903  Biso   1.000  S
  C529     1.0000 0.31710  0.74760  0.10470  Biso   1.000  C
  C530     1.0000 0.31810  0.80130  0.11300  Biso   1.000  C
  H573     1.0000 0.35260  0.81180  0.11640  Biso   1.000  H
  H574     1.0000 0.30130  0.80850  0.14440  Biso   1.000  H
  C531     1.0000 0.29920  0.87965  0.08475  Biso   1.000  C
  C532     1.0000 0.26360  0.90316  0.11227  Biso   1.000  C
  C533     1.0000 0.33970  0.90620  0.06680  Biso   1.000  C
  C534     1.0000 0.34510  0.95530  0.07990  Biso   1.000  C
  H575     1.0000 0.37270  0.97290  0.06800  Biso   1.000  H
  C535     1.0000 0.31120  0.97940  0.10980  Biso   1.000  C
  C536     1.0000 0.26990  0.95310  0.12410  Biso   1.000  C
  H576     1.0000 0.24510  0.96930  0.14250  Biso   1.000  H
  C537     1.0000 0.31890  0.03290  0.12480  Biso   1.000  C
  C538     1.0000 0.28260  0.04910  0.16110  Biso   1.000  C
  H577     1.0000 0.24950  0.04130  0.14940  Biso   1.000  H
  H578     1.0000 0.28850  0.03220  0.19230  Biso   1.000  H
  H579     1.0000 0.28560  0.08460  0.16600  Biso   1.000  H
  C539     1.0000 0.31300  0.06480  0.07650  Biso   1.000  C
  H580     1.0000 0.27940  0.06170  0.06410  Biso   1.000  H
  H581     1.0000 0.31990  0.09930  0.08410  Biso   1.000  H
  H582     1.0000 0.33610  0.05310  0.05160  Biso   1.000  H
  C540     1.0000 0.37140  0.04060  0.14270  Biso   1.000  C
  H583     1.0000 0.39440  0.03050  0.11700  Biso   1.000  H
  H584     1.0000 0.37650  0.07540  0.15030  Biso   1.000  H
  H585     1.0000 0.37700  0.02100  0.17220  Biso   1.000  H
  O136     1.0000 0.83642  0.22354  0.63780  Biso   1.000  O
  O137     1.0000 0.79650  0.23087  0.56769  Biso   1.000  O
  O138     1.0000 0.79531  0.32989  0.57471  Biso   1.000  O
  S46      1.0000 0.71376  0.37227  0.63903  Biso   1.000  S
  C541     1.0000 0.81710  0.24760  0.60470  Biso   1.000  C
  C542     1.0000 0.81810  0.30130  0.61300  Biso   1.000  C
  H586     1.0000 0.85260  0.31180  0.61640  Biso   1.000  H
  H587     1.0000 0.80130  0.30850  0.64440  Biso   1.000  H
  C543     1.0000 0.79920  0.37965  0.58475  Biso   1.000  C
  C544     1.0000 0.76360  0.40316  0.61227  Biso   1.000  C
  C545     1.0000 0.83970  0.40620  0.56680  Biso   1.000  C
  C546     1.0000 0.84510  0.45530  0.57990  Biso   1.000  C
  H588     1.0000 0.87270  0.47290  0.56800  Biso   1.000  H
  C547     1.0000 0.81120  0.47940  0.60980  Biso   1.000  C
  C548     1.0000 0.76990  0.45310  0.62410  Biso   1.000  C
  H589     1.0000 0.74510  0.46930  0.64250  Biso   1.000  H
  C549     1.0000 0.81890  0.53290  0.62480  Biso   1.000  C
  C550     1.0000 0.78260  0.54910  0.66110  Biso   1.000  C
  H590     1.0000 0.74950  0.54130  0.64940  Biso   1.000  H
  H591     1.0000 0.78850  0.53220  0.69230  Biso   1.000  H
  H592     1.0000 0.78560  0.58460  0.66600  Biso   1.000  H
  C551     1.0000 0.81300  0.56480  0.57650  Biso   1.000  C
  H593     1.0000 0.77940  0.56170  0.56410  Biso   1.000  H
  H594     1.0000 0.81990  0.59930  0.58410  Biso   1.000  H
  H595     1.0000 0.83610  0.55310  0.55160  Biso   1.000  H
  C552     1.0000 0.87140  0.54060  0.64270  Biso   1.000  C
  H596     1.0000 0.89440  0.53050  0.61700  Biso   1.000  H
  H597     1.0000 0.87650  0.57540  0.65030  Biso   1.000  H
  H598     1.0000 0.87700  0.52100  0.67220  Biso   1.000  H
  O139     1.0000 0.83642  0.77646  0.86220  Biso   1.000  O
  O140     1.0000 0.79650  0.76913  0.93231  Biso   1.000  O
  O141     1.0000 0.79531  0.67011  0.92529  Biso   1.000  O
  S47      1.0000 0.71376  0.62773  0.86097  Biso   1.000  S
  C553     1.0000 0.81710  0.75240  0.89530  Biso   1.000  C
  C554     1.0000 0.81810  0.69870  0.88700  Biso   1.000  C
  H599     1.0000 0.85260  0.68820  0.88360  Biso   1.000  H
  H600     1.0000 0.80130  0.69150  0.85560  Biso   1.000  H
  C555     1.0000 0.79920  0.62035  0.91525  Biso   1.000  C
  C556     1.0000 0.76360  0.59684  0.88773  Biso   1.000  C
  C557     1.0000 0.83970  0.59380  0.93320  Biso   1.000  C
  C558     1.0000 0.84510  0.54470  0.92010  Biso   1.000  C
  H601     1.0000 0.87270  0.52710  0.93200  Biso   1.000  H
  C559     1.0000 0.81120  0.52060  0.89020  Biso   1.000  C
  C560     1.0000 0.76990  0.54690  0.87590  Biso   1.000  C
  H602     1.0000 0.74510  0.53070  0.85750  Biso   1.000  H
  C561     1.0000 0.81890  0.46710  0.87520  Biso   1.000  C
  C562     1.0000 0.78260  0.45090  0.83890  Biso   1.000  C
  H603     1.0000 0.74950  0.45870  0.85060  Biso   1.000  H
  H604     1.0000 0.78850  0.46780  0.80770  Biso   1.000  H
  H605     1.0000 0.78560  0.41540  0.83400  Biso   1.000  H
  C563     1.0000 0.81300  0.43520  0.92350  Biso   1.000  C
  H606     1.0000 0.77940  0.43830  0.93590  Biso   1.000  H
  H607     1.0000 0.81990  0.40070  0.91590  Biso   1.000  H
  H608     1.0000 0.83610  0.44690  0.94840  Biso   1.000  H
  C564     1.0000 0.87140  0.45940  0.85730  Biso   1.000  C
  H609     1.0000 0.89440  0.46950  0.88300  Biso   1.000  H
  H610     1.0000 0.87650  0.42460  0.84970  Biso   1.000  H
  H611     1.0000 0.87700  0.47900  0.82780  Biso   1.000  H
  O142     1.0000 0.33642  0.27646  0.36220  Biso   1.000  O
  O143     1.0000 0.29650  0.26913  0.43231  Biso   1.000  O
  O144     1.0000 0.29531  0.17011  0.42529  Biso   1.000  O
  S48      1.0000 0.21376  0.12773  0.36097  Biso   1.000  S
  C565     1.0000 0.31710  0.25240  0.39530  Biso   1.000  C
  C566     1.0000 0.31810  0.19870  0.38700  Biso   1.000  C
  H612     1.0000 0.35260  0.18820  0.38360  Biso   1.000  H
  H613     1.0000 0.30130  0.19150  0.35560  Biso   1.000  H
  C567     1.0000 0.29920  0.12035  0.41525  Biso   1.000  C
  C568     1.0000 0.26360  0.09684  0.38773  Biso   1.000  C
  C569     1.0000 0.33970  0.09380  0.43320  Biso   1.000  C
  C570     1.0000 0.34510  0.04470  0.42010  Biso   1.000  C
  H614     1.0000 0.37270  0.02710  0.43200  Biso   1.000  H
  C571     1.0000 0.31120  0.02060  0.39020  Biso   1.000  C
  C572     1.0000 0.26990  0.04690  0.37590  Biso   1.000  C
  H615     1.0000 0.24510  0.03070  0.35750  Biso   1.000  H
  C573     1.0000 0.31890  0.96710  0.37520  Biso   1.000  C
  C574     1.0000 0.28260  0.95090  0.33890  Biso   1.000  C
  H616     1.0000 0.24950  0.95870  0.35060  Biso   1.000  H
  H617     1.0000 0.28850  0.96780  0.30770  Biso   1.000  H
  H618     1.0000 0.28560  0.91540  0.33400  Biso   1.000  H
  C575     1.0000 0.31300  0.93520  0.42350  Biso   1.000  C
  H619     1.0000 0.27940  0.93830  0.43590  Biso   1.000  H
  H620     1.0000 0.31990  0.90070  0.41590  Biso   1.000  H
  H621     1.0000 0.33610  0.94690  0.44840  Biso   1.000  H
  C576     1.0000 0.37140  0.95940  0.35730  Biso   1.000  C
  H622     1.0000 0.39440  0.96950  0.38300  Biso   1.000  H
  H623     1.0000 0.37650  0.92460  0.34970  Biso   1.000  H
  H624     1.0000 0.37700  0.97900  0.32780  Biso   1.000  H
  Co1      1.0000 0.09742  0.90258  0.40258  Biso   1.000  Co
  Co2      1.0000 0.59742  0.40258  0.90258  Biso   1.000  Co
  Co3      1.0000 0.40258  0.09742  0.90258  Biso   1.000  Co
  Co4      1.0000 0.90258  0.59742  0.40258  Biso   1.000  Co
  Co5      1.0000 0.90258  0.40258  0.09742  Biso   1.000  Co
  Co6      1.0000 0.40258  0.90258  0.59742  Biso   1.000  Co
  Co7      1.0000 0.59742  0.59742  0.59742  Biso   1.000  Co
  Co8      1.0000 0.09742  0.09742  0.09742  Biso   1.000  Co
  Co9      1.0000 0.15258  0.34742  0.65258  Biso   1.000  Co
  Co10     1.0000 0.65258  0.84742  0.15258  Biso   1.000  Co
  Co11     1.0000 0.34742  0.65258  0.15258  Biso   1.000  Co
  Co12     1.0000 0.84742  0.15258  0.65258  Biso   1.000  Co
  Co13     1.0000 0.65258  0.15258  0.34742  Biso   1.000  Co
  Co14     1.0000 0.15258  0.65258  0.84742  Biso   1.000  Co
  Co15     1.0000 0.84742  0.84742  0.84742  Biso   1.000  Co
  Co16     1.0000 0.34742  0.34742  0.34742  Biso   1.000  Co
  K1       1.0000 0.25000  0.03007  0.50000  Biso   1.000  K
  K2       1.0000 0.25000  0.96993  0.00000  Biso   1.000  K
  K3       1.0000 0.75000  0.53007  0.00000  Biso   1.000  K
  K4       1.0000 0.75000  0.46993  0.50000  Biso   1.000  K
  K5       1.0000 0.50000  0.25000  0.03007  Biso   1.000  K
  K6       1.0000 0.00000  0.25000  0.96993  Biso   1.000  K
  K7       1.0000 0.00000  0.75000  0.53007  Biso   1.000  K
  K8       1.0000 0.50000  0.75000  0.46993  Biso   1.000  K
  K9       1.0000 0.03007  0.50000  0.25000  Biso   1.000  K
  K10      1.0000 0.96993  0.00000  0.25000  Biso   1.000  K
  K11      1.0000 0.53007  0.00000  0.75000  Biso   1.000  K
  K12      1.0000 0.46993  0.50000  0.75000  Biso   1.000  K
  K13      1.0000 0.28007  0.50000  0.75000  Biso   1.000  K
  K14      1.0000 0.21993  0.50000  0.25000  Biso   1.000  K
  K15      1.0000 0.78007  0.00000  0.25000  Biso   1.000  K
  K16      1.0000 0.71993  0.00000  0.75000  Biso   1.000  K
  K17      1.0000 0.50000  0.75000  0.28007  Biso   1.000  K
  K18      1.0000 0.50000  0.25000  0.21993  Biso   1.000  K
  K19      1.0000 0.00000  0.25000  0.78007  Biso   1.000  K
  K20      1.0000 0.00000  0.75000  0.71993  Biso   1.000  K
  K21      1.0000 0.75000  0.28007  0.50000  Biso   1.000  K
  K22      1.0000 0.25000  0.21993  0.50000  Biso   1.000  K
  K23      1.0000 0.25000  0.78007  0.00000  Biso   1.000  K
  K24      1.0000 0.75000  0.71993  0.00000  Biso   1.000  K
