data_image0
_cell_length_a       47.493
_cell_length_b       51.7515
_cell_length_c       32.9674
_cell_angle_alpha    90
_cell_angle_beta     92.69
_cell_angle_gamma    90

_symmetry_space_group_name_H-M    "P 1"
_symmetry_int_tables_number       1

loop_
  _symmetry_equiv_pos_as_xyz
  'x, y, z'

loop_
  _atom_site_label
  _atom_site_occupancy
  _atom_site_fract_x
  _atom_site_fract_y
  _atom_site_fract_z
  _atom_site_thermal_displace_type
  _atom_site_B_iso_or_equiv
  _atom_site_type_symbol
  Cu1      1.0000 0.14008  0.85379  0.27209  Biso   1.000  Cu
  Cu2      1.0000 0.18212  0.88685  0.27657  Biso   1.000  Cu
  Cu3      1.0000 0.38836  0.87637  0.79145  Biso   1.000  Cu
  Cu4      1.0000 0.43214  0.84531  0.79568  Biso   1.000  Cu
  Cu5      1.0000 0.78388  0.00307  0.58515  Biso   1.000  Cu
  Cu6      1.0000 0.77829  0.00119  0.50545  Biso   1.000  Cu
  O1       1.0000 0.16667  0.83294  0.30682  Biso   1.000  O
  O2       1.0000 0.19932  0.86364  0.31654  Biso   1.000  O
  O3       1.0000 0.12253  0.11922  0.73723  Biso   1.000  O
  O4       1.0000 0.16082  0.09334  0.73774  Biso   1.000  O
  O5       1.0000 0.15802  0.83902  0.22613  Biso   1.000  O
  O6       1.0000 0.19596  0.86364  0.23463  Biso   1.000  O
  O7       1.0000 0.12741  0.87147  0.31849  Biso   1.000  O
  O8       1.0000 0.16043  0.90302  0.31894  Biso   1.000  O
  O9       1.0000 0.37712  0.85568  0.74381  Biso   1.000  O
  O10      1.0000 0.41366  0.82736  0.74980  Biso   1.000  O
  O11      1.0000 0.40601  0.10800  0.34016  Biso   1.000  O
  O12      1.0000 0.44483  0.13204  0.34024  Biso   1.000  O
  O13      1.0000 0.41184  0.89728  0.75851  Biso   1.000  O
  O14      1.0000 0.44829  0.87019  0.75814  Biso   1.000  O
  O15      1.0000 0.37161  0.85096  0.82529  Biso   1.000  O
  O16      1.0000 0.40854  0.82524  0.83317  Biso   1.000  O
  O17      1.0000 0.74418  0.00661  0.58384  Biso   1.000  O
  O18      1.0000 0.73870  0.00802  0.51578  Biso   1.000  O
  O19      1.0000 0.82380  0.99848  0.57772  Biso   1.000  O
  O20      1.0000 0.81914  0.99341  0.51112  Biso   1.000  O
  O21      1.0000 0.28872  0.54075  0.57471  Biso   1.000  O
  O22      1.0000 0.28615  0.53787  0.50864  Biso   1.000  O
  O23      1.0000 0.27961  0.53477  0.07987  Biso   1.000  O
  O24      1.0000 0.27147  0.53537  0.01305  Biso   1.000  O
  C1       1.0000 0.18929  0.84001  0.32290  Biso   1.000  C
  C2       1.0000 0.20761  0.82342  0.34658  Biso   1.000  C
  C3       1.0000 0.20041  0.79749  0.34966  Biso   1.000  C
  H1       1.0000 0.18440  0.79110  0.33500  Biso   1.000  H
  C4       1.0000 0.21681  0.78106  0.37434  Biso   1.000  C
  H2       1.0000 0.21190  0.76350  0.37640  Biso   1.000  H
  C5       1.0000 0.24042  0.79058  0.39596  Biso   1.000  C
  C6       1.0000 0.24762  0.81651  0.39289  Biso   1.000  C
  H3       1.0000 0.26360  0.82290  0.40750  Biso   1.000  H
  C7       1.0000 0.23122  0.83294  0.36820  Biso   1.000  C
  H4       1.0000 0.23610  0.85050  0.36610  Biso   1.000  H
  C8       1.0000 0.25710  0.77383  0.42520  Biso   1.000  C
  C9       1.0000 0.26973  0.76178  0.45040  Biso   1.000  C
  C10      1.0000 0.28588  0.74893  0.48051  Biso   1.000  C
  C11      1.0000 0.30125  0.76359  0.50909  Biso   1.000  C
  H5       1.0000 0.30080  0.78170  0.50760  Biso   1.000  H
  C12      1.0000 0.31731  0.75144  0.53984  Biso   1.000  C
  C13      1.0000 0.31799  0.72462  0.54201  Biso   1.000  C
  H6       1.0000 0.32890  0.71640  0.56280  Biso   1.000  H
  C14      1.0000 0.30262  0.70996  0.51343  Biso   1.000  C
  C15      1.0000 0.28656  0.72211  0.48268  Biso   1.000  C
  H7       1.0000 0.27620  0.71220  0.46340  Biso   1.000  H
  C16      1.0000 0.33060  0.76601  0.57190  Biso   1.000  C
  C17      1.0000 0.34230  0.77870  0.60180  Biso   1.000  C
  C18      1.0000 0.35556  0.79320  0.63296  Biso   1.000  C
  C19      1.0000 0.34344  0.81655  0.64350  Biso   1.000  C
  H8       1.0000 0.32760  0.82280  0.62850  Biso   1.000  H
  C20      1.0000 0.35481  0.83063  0.67630  Biso   1.000  C
  H9       1.0000 0.34660  0.84640  0.68340  Biso   1.000  H
  C21      1.0000 0.37830  0.82136  0.69843  Biso   1.000  C
  C22      1.0000 0.39042  0.79801  0.68790  Biso   1.000  C
  H10      1.0000 0.40630  0.79170  0.70280  Biso   1.000  H
  C23      1.0000 0.37906  0.78393  0.65510  Biso   1.000  C
  H11      1.0000 0.38730  0.76810  0.64800  Biso   1.000  H
  C24      1.0000 0.38960  0.83558  0.73350  Biso   1.000  C
  C25      1.0000 0.30135  0.68231  0.51770  Biso   1.000  C
  C26      1.0000 0.29999  0.65880  0.52410  Biso   1.000  C
  C27      1.0000 0.29864  0.63230  0.52830  Biso   1.000  C
  C28      1.0000 0.29231  0.61717  0.49427  Biso   1.000  C
  H12      1.0000 0.29020  0.62490  0.46850  Biso   1.000  H
  C29      1.0000 0.28916  0.59060  0.49832  Biso   1.000  C
  H13      1.0000 0.28490  0.58040  0.47530  Biso   1.000  H
  C30      1.0000 0.29234  0.57917  0.53642  Biso   1.000  C
  C31      1.0000 0.29867  0.59431  0.57046  Biso   1.000  C
  H14      1.0000 0.30080  0.58660  0.59620  Biso   1.000  H
  C32      1.0000 0.30182  0.62088  0.56641  Biso   1.000  C
  H15      1.0000 0.30610  0.63110  0.58940  Biso   1.000  H
  C33      1.0000 0.28883  0.55161  0.54100  Biso   1.000  C
  C34      1.0000 0.43300  0.89156  0.74306  Biso   1.000  C
  C35      1.0000 0.45045  0.90814  0.71858  Biso   1.000  C
  C36      1.0000 0.43589  0.92989  0.70447  Biso   1.000  C
  H16      1.0000 0.41740  0.93290  0.71230  Biso   1.000  H
  C37      1.0000 0.44867  0.94717  0.67881  Biso   1.000  C
  H17      1.0000 0.43880  0.96190  0.66930  Biso   1.000  H
  C38      1.0000 0.47602  0.94269  0.66726  Biso   1.000  C
  C39      1.0000 0.49058  0.92093  0.68137  Biso   1.000  C
  H18      1.0000 0.50910  0.91790  0.67360  Biso   1.000  H
  C40      1.0000 0.47779  0.90365  0.70703  Biso   1.000  C
  H19      1.0000 0.48760  0.88890  0.71660  Biso   1.000  H
  C41      1.0000 0.48868  0.95980  0.64220  Biso   1.000  C
  C42      1.0000 0.49917  0.97505  0.61750  Biso   1.000  C
  C43      1.0000 0.51122  0.99361  0.58978  Biso   1.000  C
  C44      1.0000 0.54046  0.99437  0.58932  Biso   1.000  C
  H20      1.0000 0.55140  0.98380  0.60710  Biso   1.000  H
  C45      1.0000 0.55352  0.01071  0.56253  Biso   1.000  C
  C46      1.0000 0.53735  0.02631  0.53620  Biso   1.000  C
  H21      1.0000 0.54620  0.03740  0.51810  Biso   1.000  H
  C47      1.0000 0.50811  0.02555  0.53666  Biso   1.000  C
  C48      1.0000 0.49504  0.00921  0.56345  Biso   1.000  C
  H22      1.0000 0.47530  0.00870  0.56380  Biso   1.000  H
  C49      1.0000 0.58410  0.01165  0.56090  Biso   1.000  C
  C50      1.0000 0.60970  0.01176  0.55990  Biso   1.000  C
  C51      1.0000 0.63956  0.01242  0.55850  Biso   1.000  C
  C52      1.0000 0.65722  0.01062  0.59326  Biso   1.000  C
  H23      1.0000 0.64950  0.01010  0.61900  Biso   1.000  H
  C53      1.0000 0.68626  0.00961  0.58990  Biso   1.000  C
  H24      1.0000 0.69820  0.00840  0.61340  Biso   1.000  H
  C54      1.0000 0.69766  0.01041  0.55190  Biso   1.000  C
  C55      1.0000 0.68000  0.01221  0.51715  Biso   1.000  C
  H25      1.0000 0.68770  0.01280  0.49140  Biso   1.000  H
  C56      1.0000 0.65095  0.01322  0.52050  Biso   1.000  C
  H26      1.0000 0.63900  0.01440  0.49700  Biso   1.000  H
  C57      1.0000 0.72859  0.00845  0.55190  Biso   1.000  C
  C58      1.0000 0.49153  0.04013  0.50920  Biso   1.000  C
  C59      1.0000 0.48009  0.05407  0.48610  Biso   1.000  C
  C60      1.0000 0.46568  0.07006  0.45337  Biso   1.000  C
  C61      1.0000 0.43801  0.06589  0.43930  Biso   1.000  C
  H27      1.0000 0.42710  0.05320  0.45140  Biso   1.000  H
  C62      1.0000 0.42652  0.08056  0.40730  Biso   1.000  C
  H28      1.0000 0.40780  0.07770  0.39780  Biso   1.000  H
  C63      1.0000 0.44270  0.09940  0.38940  Biso   1.000  C
  C64      1.0000 0.47037  0.10357  0.40347  Biso   1.000  C
  H29      1.0000 0.48130  0.11630  0.39140  Biso   1.000  H
  C65      1.0000 0.48186  0.08890  0.43550  Biso   1.000  C
  H30      1.0000 0.50060  0.09170  0.44500  Biso   1.000  H
  C66      1.0000 0.43013  0.11365  0.35530  Biso   1.000  C
  C67      1.0000 0.38240  0.83196  0.83980  Biso   1.000  C
  C68      1.0000 0.36833  0.81321  0.86660  Biso   1.000  C
  C69      1.0000 0.38136  0.79140  0.88340  Biso   1.000  C
  H31      1.0000 0.39980  0.78710  0.87670  Biso   1.000  H
  C70      1.0000 0.36711  0.77592  0.91010  Biso   1.000  C
  H32      1.0000 0.37590  0.76120  0.92150  Biso   1.000  H
  C71      1.0000 0.33983  0.78226  0.92006  Biso   1.000  C
  C72      1.0000 0.32681  0.80408  0.90320  Biso   1.000  C
  H33      1.0000 0.30840  0.80840  0.91000  Biso   1.000  H
  C73      1.0000 0.34106  0.81955  0.87650  Biso   1.000  C
  H34      1.0000 0.33230  0.83430  0.86510  Biso   1.000  H
  C74      1.0000 0.32321  0.76751  0.94660  Biso   1.000  C
  C75      1.0000 0.31105  0.75658  0.97150  Biso   1.000  C
  C76      1.0000 0.29434  0.74448  0.00241  Biso   1.000  C
  C77      1.0000 0.29294  0.71775  0.00602  Biso   1.000  C
  H35      1.0000 0.30250  0.70720  0.98810  Biso   1.000  H
  C78      1.0000 0.27738  0.70670  0.03619  Biso   1.000  C
  C79      1.0000 0.26321  0.72237  0.06275  Biso   1.000  C
  H36      1.0000 0.25270  0.71490  0.08320  Biso   1.000  H
  C80      1.0000 0.26461  0.74910  0.05914  Biso   1.000  C
  C81      1.0000 0.28018  0.76015  0.02897  Biso   1.000  C
  H37      1.0000 0.28110  0.77820  0.02650  Biso   1.000  H
  C82      1.0000 0.27496  0.68075  0.03940  Biso   1.000  C
  C83      1.0000 0.27319  0.65564  0.04210  Biso   1.000  C
  C84      1.0000 0.27193  0.62867  0.04320  Biso   1.000  C
  C85      1.0000 0.26840  0.61454  0.00745  Biso   1.000  C
  H38      1.0000 0.26580  0.62310  0.98240  Biso   1.000  H
  C86      1.0000 0.26871  0.58769  0.00870  Biso   1.000  C
  H39      1.0000 0.26630  0.57810  0.98450  Biso   1.000  H
  C87      1.0000 0.27256  0.57498  0.04570  Biso   1.000  C
  C88      1.0000 0.27609  0.58911  0.08142  Biso   1.000  C
  H40      1.0000 0.27870  0.58050  0.10640  Biso   1.000  H
  C89      1.0000 0.27578  0.61596  0.08016  Biso   1.000  C
  H41      1.0000 0.27820  0.62550  0.10430  Biso   1.000  H
  C90      1.0000 0.27632  0.54774  0.04670  Biso   1.000  C
  C91      1.0000 0.24988  0.76592  0.08440  Biso   1.000  C
  C92      1.0000 0.23849  0.78017  0.10730  Biso   1.000  C
  C93      1.0000 0.22394  0.79729  0.13389  Biso   1.000  C
  C94      1.0000 0.19653  0.79183  0.14420  Biso   1.000  C
  H42      1.0000 0.18710  0.77730  0.13300  Biso   1.000  H
  C95      1.0000 0.18304  0.80780  0.17110  Biso   1.000  C
  H43      1.0000 0.16450  0.80410  0.17800  Biso   1.000  H
  C96      1.0000 0.19696  0.82924  0.18764  Biso   1.000  C
  C97      1.0000 0.22438  0.83470  0.17730  Biso   1.000  C
  H44      1.0000 0.23380  0.84920  0.18850  Biso   1.000  H
  C98      1.0000 0.23787  0.81873  0.15050  Biso   1.000  C
  H45      1.0000 0.25640  0.82240  0.14350  Biso   1.000  H
  C99      1.0000 0.18280  0.84552  0.21660  Biso   1.000  C
  C100     1.0000 0.83462  0.99373  0.54540  Biso   1.000  C
  C101     1.0000 0.86407  0.98816  0.54320  Biso   1.000  C
  C102     1.0000 0.87559  0.97947  0.50766  Biso   1.000  C
  H46      1.0000 0.86390  0.97690  0.48420  Biso   1.000  H
  C103     1.0000 0.90433  0.97457  0.50689  Biso   1.000  C
  H47      1.0000 0.91210  0.96870  0.48290  Biso   1.000  H
  C104     1.0000 0.92156  0.97835  0.54160  Biso   1.000  C
  C105     1.0000 0.91004  0.98704  0.57715  Biso   1.000  C
  H48      1.0000 0.92170  0.98960  0.60060  Biso   1.000  H
  C106     1.0000 0.88130  0.99194  0.57792  Biso   1.000  C
  H49      1.0000 0.87350  0.99780  0.60190  Biso   1.000  H
  C107     1.0000 0.95202  0.97649  0.53870  Biso   1.000  C
  C108     1.0000 0.97606  0.97560  0.53870  Biso   1.000  C
  C109     1.0000 0.00734  0.97671  0.54000  Biso   1.000  C
  C110     1.0000 0.02331  0.96275  0.51334  Biso   1.000  C
  H50      1.0000 0.01440  0.95190  0.49390  Biso   1.000  H
  C111     1.0000 0.05252  0.96488  0.51547  Biso   1.000  C
  C112     1.0000 0.06575  0.98096  0.54425  Biso   1.000  C
  H51      1.0000 0.08550  0.98240  0.54570  Biso   1.000  H
  C113     1.0000 0.04978  0.99492  0.57091  Biso   1.000  C
  C114     1.0000 0.02057  0.99280  0.56878  Biso   1.000  C
  H52      1.0000 0.00980  0.00220  0.58680  Biso   1.000  H
  C115     1.0000 0.06754  0.95172  0.48610  Biso   1.000  C
  C116     1.0000 0.08094  0.94164  0.46140  Biso   1.000  C
  C117     1.0000 0.09687  0.92837  0.42952  Biso   1.000  C
  C118     1.0000 0.08530  0.90683  0.40983  Biso   1.000  C
  H53      1.0000 0.06790  0.90020  0.41750  Biso   1.000  H
  C119     1.0000 0.09946  0.89509  0.37880  Biso   1.000  C
  H54      1.0000 0.09160  0.88050  0.36550  Biso   1.000  H
  C120     1.0000 0.12519  0.90489  0.36747  Biso   1.000  C
  C121     1.0000 0.13675  0.92643  0.38717  Biso   1.000  C
  H55      1.0000 0.15410  0.93310  0.37950  Biso   1.000  H
  C122     1.0000 0.12259  0.93817  0.41819  Biso   1.000  C
  H56      1.0000 0.13040  0.95270  0.43150  Biso   1.000  H
  C123     1.0000 0.14020  0.89332  0.33346  Biso   1.000  C
  C124     1.0000 0.06429  0.01275  0.59840  Biso   1.000  C
  C125     1.0000 0.07575  0.02855  0.62030  Biso   1.000  C
  C126     1.0000 0.09125  0.04614  0.64598  Biso   1.000  C
  C127     1.0000 0.11936  0.04207  0.65787  Biso   1.000  C
  H57      1.0000 0.12900  0.02760  0.64820  Biso   1.000  H
  C128     1.0000 0.13330  0.05940  0.68402  Biso   1.000  C
  H58      1.0000 0.15230  0.05660  0.69210  Biso   1.000  H
  C129     1.0000 0.11911  0.08081  0.69828  Biso   1.000  C
  C130     1.0000 0.09099  0.08488  0.68639  Biso   1.000  C
  H59      1.0000 0.08140  0.09940  0.69600  Biso   1.000  H
  C131     1.0000 0.07706  0.06755  0.66024  Biso   1.000  C
  H60      1.0000 0.05800  0.07030  0.65220  Biso   1.000  H
  C132     1.0000 0.13650  0.09782  0.72340  Biso   1.000  C
  Cu7      1.0000 0.64008  0.35379  0.27209  Biso   1.000  Cu
  Cu8      1.0000 0.68212  0.38685  0.27657  Biso   1.000  Cu
  Cu9      1.0000 0.88836  0.37637  0.79145  Biso   1.000  Cu
  Cu10     1.0000 0.93214  0.34531  0.79568  Biso   1.000  Cu
  Cu11     1.0000 0.28388  0.50307  0.58515  Biso   1.000  Cu
  Cu12     1.0000 0.27829  0.50119  0.50545  Biso   1.000  Cu
  O25      1.0000 0.66667  0.33294  0.30682  Biso   1.000  O
  O26      1.0000 0.69932  0.36364  0.31654  Biso   1.000  O
  O27      1.0000 0.62253  0.61922  0.73723  Biso   1.000  O
  O28      1.0000 0.66082  0.59334  0.73774  Biso   1.000  O
  O29      1.0000 0.65802  0.33902  0.22613  Biso   1.000  O
  O30      1.0000 0.69596  0.36364  0.23463  Biso   1.000  O
  O31      1.0000 0.62741  0.37147  0.31849  Biso   1.000  O
  O32      1.0000 0.66043  0.40302  0.31894  Biso   1.000  O
  O33      1.0000 0.87712  0.35568  0.74381  Biso   1.000  O
  O34      1.0000 0.91366  0.32736  0.74980  Biso   1.000  O
  O35      1.0000 0.90601  0.60800  0.34016  Biso   1.000  O
  O36      1.0000 0.94483  0.63204  0.34024  Biso   1.000  O
  O37      1.0000 0.91184  0.39728  0.75851  Biso   1.000  O
  O38      1.0000 0.94829  0.37019  0.75814  Biso   1.000  O
  O39      1.0000 0.87161  0.35096  0.82529  Biso   1.000  O
  O40      1.0000 0.90854  0.32524  0.83317  Biso   1.000  O
  O41      1.0000 0.24418  0.50661  0.58384  Biso   1.000  O
  O42      1.0000 0.23870  0.50802  0.51578  Biso   1.000  O
  O43      1.0000 0.32380  0.49848  0.57772  Biso   1.000  O
  O44      1.0000 0.31914  0.49341  0.51112  Biso   1.000  O
  O45      1.0000 0.78872  0.04075  0.57471  Biso   1.000  O
  O46      1.0000 0.78615  0.03787  0.50864  Biso   1.000  O
  O47      1.0000 0.77961  0.03477  0.07987  Biso   1.000  O
  O48      1.0000 0.77147  0.03537  0.01305  Biso   1.000  O
  C133     1.0000 0.68929  0.34001  0.32290  Biso   1.000  C
  C134     1.0000 0.70761  0.32342  0.34658  Biso   1.000  C
  C135     1.0000 0.70041  0.29749  0.34966  Biso   1.000  C
  H61      1.0000 0.68440  0.29110  0.33500  Biso   1.000  H
  C136     1.0000 0.71681  0.28106  0.37434  Biso   1.000  C
  H62      1.0000 0.71190  0.26350  0.37640  Biso   1.000  H
  C137     1.0000 0.74042  0.29058  0.39596  Biso   1.000  C
  C138     1.0000 0.74762  0.31651  0.39289  Biso   1.000  C
  H63      1.0000 0.76360  0.32290  0.40750  Biso   1.000  H
  C139     1.0000 0.73122  0.33294  0.36820  Biso   1.000  C
  H64      1.0000 0.73610  0.35050  0.36610  Biso   1.000  H
  C140     1.0000 0.75710  0.27383  0.42520  Biso   1.000  C
  C141     1.0000 0.76973  0.26178  0.45040  Biso   1.000  C
  C142     1.0000 0.78588  0.24893  0.48051  Biso   1.000  C
  C143     1.0000 0.80125  0.26359  0.50909  Biso   1.000  C
  H65      1.0000 0.80080  0.28170  0.50760  Biso   1.000  H
  C144     1.0000 0.81731  0.25144  0.53984  Biso   1.000  C
  C145     1.0000 0.81799  0.22462  0.54201  Biso   1.000  C
  H66      1.0000 0.82890  0.21640  0.56280  Biso   1.000  H
  C146     1.0000 0.80262  0.20996  0.51343  Biso   1.000  C
  C147     1.0000 0.78656  0.22211  0.48268  Biso   1.000  C
  H67      1.0000 0.77620  0.21220  0.46340  Biso   1.000  H
  C148     1.0000 0.83060  0.26601  0.57190  Biso   1.000  C
  C149     1.0000 0.84230  0.27870  0.60180  Biso   1.000  C
  C150     1.0000 0.85556  0.29320  0.63296  Biso   1.000  C
  C151     1.0000 0.84344  0.31655  0.64350  Biso   1.000  C
  H68      1.0000 0.82760  0.32280  0.62850  Biso   1.000  H
  C152     1.0000 0.85481  0.33063  0.67630  Biso   1.000  C
  H69      1.0000 0.84660  0.34640  0.68340  Biso   1.000  H
  C153     1.0000 0.87830  0.32136  0.69843  Biso   1.000  C
  C154     1.0000 0.89042  0.29801  0.68790  Biso   1.000  C
  H70      1.0000 0.90630  0.29170  0.70280  Biso   1.000  H
  C155     1.0000 0.87906  0.28393  0.65510  Biso   1.000  C
  H71      1.0000 0.88730  0.26810  0.64800  Biso   1.000  H
  C156     1.0000 0.88960  0.33558  0.73350  Biso   1.000  C
  C157     1.0000 0.80135  0.18231  0.51770  Biso   1.000  C
  C158     1.0000 0.79999  0.15880  0.52410  Biso   1.000  C
  C159     1.0000 0.79864  0.13230  0.52830  Biso   1.000  C
  C160     1.0000 0.79231  0.11717  0.49427  Biso   1.000  C
  H72      1.0000 0.79020  0.12490  0.46850  Biso   1.000  H
  C161     1.0000 0.78916  0.09060  0.49832  Biso   1.000  C
  H73      1.0000 0.78490  0.08040  0.47530  Biso   1.000  H
  C162     1.0000 0.79234  0.07917  0.53642  Biso   1.000  C
  C163     1.0000 0.79867  0.09431  0.57046  Biso   1.000  C
  H74      1.0000 0.80080  0.08660  0.59620  Biso   1.000  H
  C164     1.0000 0.80182  0.12088  0.56641  Biso   1.000  C
  H75      1.0000 0.80610  0.13110  0.58940  Biso   1.000  H
  C165     1.0000 0.78883  0.05161  0.54100  Biso   1.000  C
  C166     1.0000 0.93300  0.39156  0.74306  Biso   1.000  C
  C167     1.0000 0.95045  0.40814  0.71858  Biso   1.000  C
  C168     1.0000 0.93589  0.42989  0.70447  Biso   1.000  C
  H76      1.0000 0.91740  0.43290  0.71230  Biso   1.000  H
  C169     1.0000 0.94867  0.44717  0.67881  Biso   1.000  C
  H77      1.0000 0.93880  0.46190  0.66930  Biso   1.000  H
  C170     1.0000 0.97602  0.44269  0.66726  Biso   1.000  C
  C171     1.0000 0.99058  0.42093  0.68137  Biso   1.000  C
  H78      1.0000 0.00910  0.41790  0.67360  Biso   1.000  H
  C172     1.0000 0.97779  0.40365  0.70703  Biso   1.000  C
  H79      1.0000 0.98760  0.38890  0.71660  Biso   1.000  H
  C173     1.0000 0.98868  0.45980  0.64220  Biso   1.000  C
  C174     1.0000 0.99917  0.47505  0.61750  Biso   1.000  C
  C175     1.0000 0.01122  0.49361  0.58978  Biso   1.000  C
  C176     1.0000 0.04046  0.49437  0.58932  Biso   1.000  C
  H80      1.0000 0.05140  0.48380  0.60710  Biso   1.000  H
  C177     1.0000 0.05352  0.51071  0.56253  Biso   1.000  C
  C178     1.0000 0.03735  0.52631  0.53620  Biso   1.000  C
  H81      1.0000 0.04620  0.53740  0.51810  Biso   1.000  H
  C179     1.0000 0.00811  0.52555  0.53666  Biso   1.000  C
  C180     1.0000 0.99504  0.50921  0.56345  Biso   1.000  C
  H82      1.0000 0.97530  0.50870  0.56380  Biso   1.000  H
  C181     1.0000 0.08410  0.51165  0.56090  Biso   1.000  C
  C182     1.0000 0.10970  0.51176  0.55990  Biso   1.000  C
  C183     1.0000 0.13956  0.51242  0.55850  Biso   1.000  C
  C184     1.0000 0.15722  0.51062  0.59326  Biso   1.000  C
  H83      1.0000 0.14950  0.51010  0.61900  Biso   1.000  H
  C185     1.0000 0.18626  0.50961  0.58990  Biso   1.000  C
  H84      1.0000 0.19820  0.50840  0.61340  Biso   1.000  H
  C186     1.0000 0.19766  0.51041  0.55190  Biso   1.000  C
  C187     1.0000 0.18000  0.51221  0.51715  Biso   1.000  C
  H85      1.0000 0.18770  0.51280  0.49140  Biso   1.000  H
  C188     1.0000 0.15095  0.51322  0.52050  Biso   1.000  C
  H86      1.0000 0.13900  0.51440  0.49700  Biso   1.000  H
  C189     1.0000 0.22859  0.50845  0.55190  Biso   1.000  C
  C190     1.0000 0.99153  0.54013  0.50920  Biso   1.000  C
  C191     1.0000 0.98009  0.55407  0.48610  Biso   1.000  C
  C192     1.0000 0.96568  0.57006  0.45337  Biso   1.000  C
  C193     1.0000 0.93801  0.56589  0.43930  Biso   1.000  C
  H87      1.0000 0.92710  0.55320  0.45140  Biso   1.000  H
  C194     1.0000 0.92652  0.58056  0.40730  Biso   1.000  C
  H88      1.0000 0.90780  0.57770  0.39780  Biso   1.000  H
  C195     1.0000 0.94270  0.59940  0.38940  Biso   1.000  C
  C196     1.0000 0.97037  0.60357  0.40347  Biso   1.000  C
  H89      1.0000 0.98130  0.61630  0.39140  Biso   1.000  H
  C197     1.0000 0.98186  0.58890  0.43550  Biso   1.000  C
  H90      1.0000 0.00060  0.59170  0.44500  Biso   1.000  H
  C198     1.0000 0.93013  0.61365  0.35530  Biso   1.000  C
  C199     1.0000 0.88240  0.33196  0.83980  Biso   1.000  C
  C200     1.0000 0.86833  0.31321  0.86660  Biso   1.000  C
  C201     1.0000 0.88136  0.29140  0.88340  Biso   1.000  C
  H91      1.0000 0.89980  0.28710  0.87670  Biso   1.000  H
  C202     1.0000 0.86711  0.27592  0.91010  Biso   1.000  C
  H92      1.0000 0.87590  0.26120  0.92150  Biso   1.000  H
  C203     1.0000 0.83983  0.28226  0.92006  Biso   1.000  C
  C204     1.0000 0.82681  0.30408  0.90320  Biso   1.000  C
  H93      1.0000 0.80840  0.30840  0.91000  Biso   1.000  H
  C205     1.0000 0.84106  0.31955  0.87650  Biso   1.000  C
  H94      1.0000 0.83230  0.33430  0.86510  Biso   1.000  H
  C206     1.0000 0.82321  0.26751  0.94660  Biso   1.000  C
  C207     1.0000 0.81105  0.25658  0.97150  Biso   1.000  C
  C208     1.0000 0.79434  0.24448  0.00241  Biso   1.000  C
  C209     1.0000 0.79294  0.21775  0.00602  Biso   1.000  C
  H95      1.0000 0.80250  0.20720  0.98810  Biso   1.000  H
  C210     1.0000 0.77738  0.20670  0.03619  Biso   1.000  C
  C211     1.0000 0.76321  0.22237  0.06275  Biso   1.000  C
  H96      1.0000 0.75270  0.21490  0.08320  Biso   1.000  H
  C212     1.0000 0.76461  0.24910  0.05914  Biso   1.000  C
  C213     1.0000 0.78018  0.26015  0.02897  Biso   1.000  C
  H97      1.0000 0.78110  0.27820  0.02650  Biso   1.000  H
  C214     1.0000 0.77496  0.18075  0.03940  Biso   1.000  C
  C215     1.0000 0.77319  0.15564  0.04210  Biso   1.000  C
  C216     1.0000 0.77193  0.12867  0.04320  Biso   1.000  C
  C217     1.0000 0.76840  0.11454  0.00745  Biso   1.000  C
  H98      1.0000 0.76580  0.12310  0.98240  Biso   1.000  H
  C218     1.0000 0.76871  0.08769  0.00870  Biso   1.000  C
  H99      1.0000 0.76630  0.07810  0.98450  Biso   1.000  H
  C219     1.0000 0.77256  0.07498  0.04570  Biso   1.000  C
  C220     1.0000 0.77609  0.08911  0.08142  Biso   1.000  C
  H100     1.0000 0.77870  0.08050  0.10640  Biso   1.000  H
  C221     1.0000 0.77578  0.11596  0.08016  Biso   1.000  C
  H101     1.0000 0.77820  0.12550  0.10430  Biso   1.000  H
  C222     1.0000 0.77632  0.04774  0.04670  Biso   1.000  C
  C223     1.0000 0.74988  0.26592  0.08440  Biso   1.000  C
  C224     1.0000 0.73849  0.28017  0.10730  Biso   1.000  C
  C225     1.0000 0.72394  0.29729  0.13389  Biso   1.000  C
  C226     1.0000 0.69653  0.29183  0.14420  Biso   1.000  C
  H102     1.0000 0.68710  0.27730  0.13300  Biso   1.000  H
  C227     1.0000 0.68304  0.30780  0.17110  Biso   1.000  C
  H103     1.0000 0.66450  0.30410  0.17800  Biso   1.000  H
  C228     1.0000 0.69696  0.32924  0.18764  Biso   1.000  C
  C229     1.0000 0.72438  0.33470  0.17730  Biso   1.000  C
  H104     1.0000 0.73380  0.34920  0.18850  Biso   1.000  H
  C230     1.0000 0.73787  0.31873  0.15050  Biso   1.000  C
  H105     1.0000 0.75640  0.32240  0.14350  Biso   1.000  H
  C231     1.0000 0.68280  0.34552  0.21660  Biso   1.000  C
  C232     1.0000 0.33462  0.49373  0.54540  Biso   1.000  C
  C233     1.0000 0.36407  0.48816  0.54320  Biso   1.000  C
  C234     1.0000 0.37559  0.47947  0.50766  Biso   1.000  C
  H106     1.0000 0.36390  0.47690  0.48420  Biso   1.000  H
  C235     1.0000 0.40433  0.47457  0.50689  Biso   1.000  C
  H107     1.0000 0.41210  0.46870  0.48290  Biso   1.000  H
  C236     1.0000 0.42156  0.47835  0.54160  Biso   1.000  C
  C237     1.0000 0.41004  0.48704  0.57715  Biso   1.000  C
  H108     1.0000 0.42170  0.48960  0.60060  Biso   1.000  H
  C238     1.0000 0.38130  0.49194  0.57792  Biso   1.000  C
  H109     1.0000 0.37350  0.49780  0.60190  Biso   1.000  H
  C239     1.0000 0.45202  0.47649  0.53870  Biso   1.000  C
  C240     1.0000 0.47606  0.47560  0.53870  Biso   1.000  C
  C241     1.0000 0.50734  0.47671  0.54000  Biso   1.000  C
  C242     1.0000 0.52331  0.46275  0.51334  Biso   1.000  C
  H110     1.0000 0.51440  0.45190  0.49390  Biso   1.000  H
  C243     1.0000 0.55252  0.46488  0.51547  Biso   1.000  C
  C244     1.0000 0.56575  0.48096  0.54425  Biso   1.000  C
  H111     1.0000 0.58550  0.48240  0.54570  Biso   1.000  H
  C245     1.0000 0.54978  0.49492  0.57091  Biso   1.000  C
  C246     1.0000 0.52057  0.49280  0.56878  Biso   1.000  C
  H112     1.0000 0.50980  0.50220  0.58680  Biso   1.000  H
  C247     1.0000 0.56754  0.45172  0.48610  Biso   1.000  C
  C248     1.0000 0.58094  0.44164  0.46140  Biso   1.000  C
  C249     1.0000 0.59687  0.42837  0.42952  Biso   1.000  C
  C250     1.0000 0.58530  0.40683  0.40983  Biso   1.000  C
  H113     1.0000 0.56790  0.40020  0.41750  Biso   1.000  H
  C251     1.0000 0.59946  0.39509  0.37880  Biso   1.000  C
  H114     1.0000 0.59160  0.38050  0.36550  Biso   1.000  H
  C252     1.0000 0.62519  0.40489  0.36747  Biso   1.000  C
  C253     1.0000 0.63675  0.42643  0.38717  Biso   1.000  C
  H115     1.0000 0.65410  0.43310  0.37950  Biso   1.000  H
  C254     1.0000 0.62259  0.43817  0.41819  Biso   1.000  C
  H116     1.0000 0.63040  0.45270  0.43150  Biso   1.000  H
  C255     1.0000 0.64020  0.39332  0.33346  Biso   1.000  C
  C256     1.0000 0.56429  0.51275  0.59840  Biso   1.000  C
  C257     1.0000 0.57575  0.52855  0.62030  Biso   1.000  C
  C258     1.0000 0.59125  0.54614  0.64598  Biso   1.000  C
  C259     1.0000 0.61936  0.54207  0.65787  Biso   1.000  C
  H117     1.0000 0.62900  0.52760  0.64820  Biso   1.000  H
  C260     1.0000 0.63330  0.55940  0.68402  Biso   1.000  C
  H118     1.0000 0.65230  0.55660  0.69210  Biso   1.000  H
  C261     1.0000 0.61911  0.58081  0.69828  Biso   1.000  C
  C262     1.0000 0.59099  0.58488  0.68639  Biso   1.000  C
  H119     1.0000 0.58140  0.59940  0.69600  Biso   1.000  H
  C263     1.0000 0.57706  0.56755  0.66024  Biso   1.000  C
  H120     1.0000 0.55800  0.57030  0.65220  Biso   1.000  H
  C264     1.0000 0.63650  0.59782  0.72340  Biso   1.000  C
  Cu13     1.0000 0.14008  0.14621  0.77209  Biso   1.000  Cu
  Cu14     1.0000 0.18212  0.11315  0.77657  Biso   1.000  Cu
  Cu15     1.0000 0.38836  0.12363  0.29145  Biso   1.000  Cu
  Cu16     1.0000 0.43214  0.15469  0.29568  Biso   1.000  Cu
  Cu17     1.0000 0.78388  0.99693  0.08515  Biso   1.000  Cu
  Cu18     1.0000 0.77829  0.99881  0.00545  Biso   1.000  Cu
  O49      1.0000 0.16667  0.16706  0.80682  Biso   1.000  O
  O50      1.0000 0.19932  0.13636  0.81654  Biso   1.000  O
  O51      1.0000 0.12253  0.88078  0.23723  Biso   1.000  O
  O52      1.0000 0.16082  0.90666  0.23774  Biso   1.000  O
  O53      1.0000 0.15802  0.16098  0.72613  Biso   1.000  O
  O54      1.0000 0.19596  0.13636  0.73463  Biso   1.000  O
  O55      1.0000 0.12741  0.12853  0.81849  Biso   1.000  O
  O56      1.0000 0.16043  0.09698  0.81894  Biso   1.000  O
  O57      1.0000 0.37712  0.14432  0.24381  Biso   1.000  O
  O58      1.0000 0.41366  0.17264  0.24980  Biso   1.000  O
  O59      1.0000 0.40601  0.89200  0.84016  Biso   1.000  O
  O60      1.0000 0.44483  0.86796  0.84024  Biso   1.000  O
  O61      1.0000 0.41184  0.10272  0.25851  Biso   1.000  O
  O62      1.0000 0.44829  0.12981  0.25814  Biso   1.000  O
  O63      1.0000 0.37161  0.14904  0.32529  Biso   1.000  O
  O64      1.0000 0.40854  0.17476  0.33317  Biso   1.000  O
  O65      1.0000 0.74418  0.99339  0.08384  Biso   1.000  O
  O66      1.0000 0.73870  0.99198  0.01578  Biso   1.000  O
  O67      1.0000 0.82380  0.00152  0.07772  Biso   1.000  O
  O68      1.0000 0.81914  0.00659  0.01112  Biso   1.000  O
  O69      1.0000 0.28872  0.45925  0.07471  Biso   1.000  O
  O70      1.0000 0.28615  0.46213  0.00864  Biso   1.000  O
  O71      1.0000 0.27961  0.46523  0.57987  Biso   1.000  O
  O72      1.0000 0.27147  0.46463  0.51305  Biso   1.000  O
  C265     1.0000 0.18929  0.15999  0.82290  Biso   1.000  C
  C266     1.0000 0.20761  0.17658  0.84658  Biso   1.000  C
  C267     1.0000 0.20041  0.20251  0.84966  Biso   1.000  C
  H121     1.0000 0.18440  0.20890  0.83500  Biso   1.000  H
  C268     1.0000 0.21681  0.21894  0.87434  Biso   1.000  C
  H122     1.0000 0.21190  0.23650  0.87640  Biso   1.000  H
  C269     1.0000 0.24042  0.20942  0.89596  Biso   1.000  C
  C270     1.0000 0.24762  0.18349  0.89289  Biso   1.000  C
  H123     1.0000 0.26360  0.17710  0.90750  Biso   1.000  H
  C271     1.0000 0.23122  0.16706  0.86820  Biso   1.000  C
  H124     1.0000 0.23610  0.14950  0.86610  Biso   1.000  H
  C272     1.0000 0.25710  0.22617  0.92520  Biso   1.000  C
  C273     1.0000 0.26973  0.23822  0.95040  Biso   1.000  C
  C274     1.0000 0.28588  0.25107  0.98051  Biso   1.000  C
  C275     1.0000 0.30125  0.23641  0.00909  Biso   1.000  C
  H125     1.0000 0.30080  0.21830  0.00760  Biso   1.000  H
  C276     1.0000 0.31731  0.24856  0.03984  Biso   1.000  C
  C277     1.0000 0.31799  0.27538  0.04201  Biso   1.000  C
  H126     1.0000 0.32890  0.28360  0.06280  Biso   1.000  H
  C278     1.0000 0.30262  0.29004  0.01343  Biso   1.000  C
  C279     1.0000 0.28656  0.27789  0.98268  Biso   1.000  C
  H127     1.0000 0.27620  0.28780  0.96340  Biso   1.000  H
  C280     1.0000 0.33060  0.23399  0.07190  Biso   1.000  C
  C281     1.0000 0.34230  0.22130  0.10180  Biso   1.000  C
  C282     1.0000 0.35556  0.20680  0.13296  Biso   1.000  C
  C283     1.0000 0.34344  0.18345  0.14350  Biso   1.000  C
  H128     1.0000 0.32760  0.17720  0.12850  Biso   1.000  H
  C284     1.0000 0.35481  0.16937  0.17630  Biso   1.000  C
  H129     1.0000 0.34660  0.15360  0.18340  Biso   1.000  H
  C285     1.0000 0.37830  0.17864  0.19843  Biso   1.000  C
  C286     1.0000 0.39042  0.20199  0.18790  Biso   1.000  C
  H130     1.0000 0.40630  0.20830  0.20280  Biso   1.000  H
  C287     1.0000 0.37906  0.21607  0.15510  Biso   1.000  C
  H131     1.0000 0.38730  0.23190  0.14800  Biso   1.000  H
  C288     1.0000 0.38960  0.16442  0.23350  Biso   1.000  C
  C289     1.0000 0.30135  0.31769  0.01770  Biso   1.000  C
  C290     1.0000 0.29999  0.34120  0.02410  Biso   1.000  C
  C291     1.0000 0.29864  0.36770  0.02830  Biso   1.000  C
  C292     1.0000 0.29231  0.38283  0.99427  Biso   1.000  C
  H132     1.0000 0.29020  0.37510  0.96850  Biso   1.000  H
  C293     1.0000 0.28916  0.40940  0.99832  Biso   1.000  C
  H133     1.0000 0.28490  0.41960  0.97530  Biso   1.000  H
  C294     1.0000 0.29234  0.42083  0.03642  Biso   1.000  C
  C295     1.0000 0.29867  0.40569  0.07046  Biso   1.000  C
  H134     1.0000 0.30080  0.41340  0.09620  Biso   1.000  H
  C296     1.0000 0.30182  0.37912  0.06641  Biso   1.000  C
  H135     1.0000 0.30610  0.36890  0.08940  Biso   1.000  H
  C297     1.0000 0.28883  0.44839  0.04100  Biso   1.000  C
  C298     1.0000 0.43300  0.10844  0.24306  Biso   1.000  C
  C299     1.0000 0.45045  0.09186  0.21858  Biso   1.000  C
  C300     1.0000 0.43589  0.07011  0.20447  Biso   1.000  C
  H136     1.0000 0.41740  0.06710  0.21230  Biso   1.000  H
  C301     1.0000 0.44867  0.05283  0.17881  Biso   1.000  C
  H137     1.0000 0.43880  0.03810  0.16930  Biso   1.000  H
  C302     1.0000 0.47602  0.05731  0.16726  Biso   1.000  C
  C303     1.0000 0.49058  0.07907  0.18137  Biso   1.000  C
  H138     1.0000 0.50910  0.08210  0.17360  Biso   1.000  H
  C304     1.0000 0.47779  0.09635  0.20703  Biso   1.000  C
  H139     1.0000 0.48760  0.11110  0.21660  Biso   1.000  H
  C305     1.0000 0.48868  0.04020  0.14220  Biso   1.000  C
  C306     1.0000 0.49917  0.02495  0.11750  Biso   1.000  C
  C307     1.0000 0.51122  0.00639  0.08978  Biso   1.000  C
  C308     1.0000 0.54046  0.00563  0.08932  Biso   1.000  C
  H140     1.0000 0.55140  0.01620  0.10710  Biso   1.000  H
  C309     1.0000 0.55352  0.98929  0.06253  Biso   1.000  C
  C310     1.0000 0.53735  0.97369  0.03620  Biso   1.000  C
  H141     1.0000 0.54620  0.96260  0.01810  Biso   1.000  H
  C311     1.0000 0.50811  0.97445  0.03666  Biso   1.000  C
  C312     1.0000 0.49504  0.99079  0.06345  Biso   1.000  C
  H142     1.0000 0.47530  0.99130  0.06380  Biso   1.000  H
  C313     1.0000 0.58410  0.98835  0.06090  Biso   1.000  C
  C314     1.0000 0.60970  0.98824  0.05990  Biso   1.000  C
  C315     1.0000 0.63956  0.98758  0.05850  Biso   1.000  C
  C316     1.0000 0.65722  0.98938  0.09326  Biso   1.000  C
  H143     1.0000 0.64950  0.98990  0.11900  Biso   1.000  H
  C317     1.0000 0.68626  0.99039  0.08990  Biso   1.000  C
  H144     1.0000 0.69820  0.99160  0.11340  Biso   1.000  H
  C318     1.0000 0.69766  0.98959  0.05190  Biso   1.000  C
  C319     1.0000 0.68000  0.98779  0.01715  Biso   1.000  C
  H145     1.0000 0.68770  0.98720  0.99140  Biso   1.000  H
  C320     1.0000 0.65095  0.98678  0.02050  Biso   1.000  C
  H146     1.0000 0.63900  0.98560  0.99700  Biso   1.000  H
  C321     1.0000 0.72859  0.99155  0.05190  Biso   1.000  C
  C322     1.0000 0.49153  0.95987  0.00920  Biso   1.000  C
  C323     1.0000 0.48009  0.94593  0.98610  Biso   1.000  C
  C324     1.0000 0.46568  0.92994  0.95337  Biso   1.000  C
  C325     1.0000 0.43801  0.93411  0.93930  Biso   1.000  C
  H147     1.0000 0.42710  0.94680  0.95140  Biso   1.000  H
  C326     1.0000 0.42652  0.91944  0.90730  Biso   1.000  C
  H148     1.0000 0.40780  0.92230  0.89780  Biso   1.000  H
  C327     1.0000 0.44270  0.90060  0.88940  Biso   1.000  C
  C328     1.0000 0.47037  0.89643  0.90347  Biso   1.000  C
  H149     1.0000 0.48130  0.88370  0.89140  Biso   1.000  H
  C329     1.0000 0.48186  0.91110  0.93550  Biso   1.000  C
  H150     1.0000 0.50060  0.90830  0.94500  Biso   1.000  H
  C330     1.0000 0.43013  0.88635  0.85530  Biso   1.000  C
  C331     1.0000 0.38240  0.16804  0.33980  Biso   1.000  C
  C332     1.0000 0.36833  0.18679  0.36660  Biso   1.000  C
  C333     1.0000 0.38136  0.20860  0.38340  Biso   1.000  C
  H151     1.0000 0.39980  0.21290  0.37670  Biso   1.000  H
  C334     1.0000 0.36711  0.22408  0.41010  Biso   1.000  C
  H152     1.0000 0.37590  0.23880  0.42150  Biso   1.000  H
  C335     1.0000 0.33983  0.21774  0.42006  Biso   1.000  C
  C336     1.0000 0.32681  0.19592  0.40320  Biso   1.000  C
  H153     1.0000 0.30840  0.19160  0.41000  Biso   1.000  H
  C337     1.0000 0.34106  0.18045  0.37650  Biso   1.000  C
  H154     1.0000 0.33230  0.16570  0.36510  Biso   1.000  H
  C338     1.0000 0.32321  0.23249  0.44660  Biso   1.000  C
  C339     1.0000 0.31105  0.24342  0.47150  Biso   1.000  C
  C340     1.0000 0.29434  0.25552  0.50241  Biso   1.000  C
  C341     1.0000 0.29294  0.28225  0.50602  Biso   1.000  C
  H155     1.0000 0.30250  0.29280  0.48810  Biso   1.000  H
  C342     1.0000 0.27738  0.29330  0.53619  Biso   1.000  C
  C343     1.0000 0.26321  0.27763  0.56275  Biso   1.000  C
  H156     1.0000 0.25270  0.28510  0.58320  Biso   1.000  H
  C344     1.0000 0.26461  0.25090  0.55914  Biso   1.000  C
  C345     1.0000 0.28018  0.23985  0.52897  Biso   1.000  C
  H157     1.0000 0.28110  0.22180  0.52650  Biso   1.000  H
  C346     1.0000 0.27496  0.31925  0.53940  Biso   1.000  C
  C347     1.0000 0.27319  0.34436  0.54210  Biso   1.000  C
  C348     1.0000 0.27193  0.37133  0.54320  Biso   1.000  C
  C349     1.0000 0.26840  0.38546  0.50745  Biso   1.000  C
  H158     1.0000 0.26580  0.37690  0.48240  Biso   1.000  H
  C350     1.0000 0.26871  0.41231  0.50870  Biso   1.000  C
  H159     1.0000 0.26630  0.42190  0.48450  Biso   1.000  H
  C351     1.0000 0.27256  0.42502  0.54570  Biso   1.000  C
  C352     1.0000 0.27609  0.41089  0.58142  Biso   1.000  C
  H160     1.0000 0.27870  0.41950  0.60640  Biso   1.000  H
  C353     1.0000 0.27578  0.38404  0.58016  Biso   1.000  C
  H161     1.0000 0.27820  0.37450  0.60430  Biso   1.000  H
  C354     1.0000 0.27632  0.45226  0.54670  Biso   1.000  C
  C355     1.0000 0.24988  0.23408  0.58440  Biso   1.000  C
  C356     1.0000 0.23849  0.21983  0.60730  Biso   1.000  C
  C357     1.0000 0.22394  0.20271  0.63389  Biso   1.000  C
  C358     1.0000 0.19653  0.20817  0.64420  Biso   1.000  C
  H162     1.0000 0.18710  0.22270  0.63300  Biso   1.000  H
  C359     1.0000 0.18304  0.19220  0.67110  Biso   1.000  C
  H163     1.0000 0.16450  0.19590  0.67800  Biso   1.000  H
  C360     1.0000 0.19696  0.17076  0.68764  Biso   1.000  C
  C361     1.0000 0.22438  0.16530  0.67730  Biso   1.000  C
  H164     1.0000 0.23380  0.15080  0.68850  Biso   1.000  H
  C362     1.0000 0.23787  0.18127  0.65050  Biso   1.000  C
  H165     1.0000 0.25640  0.17760  0.64350  Biso   1.000  H
  C363     1.0000 0.18280  0.15448  0.71660  Biso   1.000  C
  C364     1.0000 0.83462  0.00627  0.04540  Biso   1.000  C
  C365     1.0000 0.86407  0.01184  0.04320  Biso   1.000  C
  C366     1.0000 0.87559  0.02053  0.00766  Biso   1.000  C
  H166     1.0000 0.86390  0.02310  0.98420  Biso   1.000  H
  C367     1.0000 0.90433  0.02543  0.00689  Biso   1.000  C
  H167     1.0000 0.91210  0.03130  0.98290  Biso   1.000  H
  C368     1.0000 0.92156  0.02165  0.04160  Biso   1.000  C
  C369     1.0000 0.91004  0.01296  0.07715  Biso   1.000  C
  H168     1.0000 0.92170  0.01040  0.10060  Biso   1.000  H
  C370     1.0000 0.88130  0.00806  0.07792  Biso   1.000  C
  H169     1.0000 0.87350  0.00220  0.10190  Biso   1.000  H
  C371     1.0000 0.95202  0.02351  0.03870  Biso   1.000  C
  C372     1.0000 0.97606  0.02440  0.03870  Biso   1.000  C
  C373     1.0000 0.00734  0.02329  0.04000  Biso   1.000  C
  C374     1.0000 0.02331  0.03725  0.01334  Biso   1.000  C
  H170     1.0000 0.01440  0.04810  0.99390  Biso   1.000  H
  C375     1.0000 0.05252  0.03512  0.01547  Biso   1.000  C
  C376     1.0000 0.06575  0.01904  0.04425  Biso   1.000  C
  H171     1.0000 0.08550  0.01760  0.04570  Biso   1.000  H
  C377     1.0000 0.04978  0.00508  0.07091  Biso   1.000  C
  C378     1.0000 0.02057  0.00720  0.06878  Biso   1.000  C
  H172     1.0000 0.00980  0.99780  0.08680  Biso   1.000  H
  C379     1.0000 0.06754  0.04828  0.98610  Biso   1.000  C
  C380     1.0000 0.08094  0.05836  0.96140  Biso   1.000  C
  C381     1.0000 0.09687  0.07163  0.92952  Biso   1.000  C
  C382     1.0000 0.08530  0.09317  0.90983  Biso   1.000  C
  H173     1.0000 0.06790  0.09980  0.91750  Biso   1.000  H
  C383     1.0000 0.09946  0.10491  0.87880  Biso   1.000  C
  H174     1.0000 0.09160  0.11950  0.86550  Biso   1.000  H
  C384     1.0000 0.12519  0.09511  0.86747  Biso   1.000  C
  C385     1.0000 0.13675  0.07357  0.88717  Biso   1.000  C
  H175     1.0000 0.15410  0.06690  0.87950  Biso   1.000  H
  C386     1.0000 0.12259  0.06183  0.91819  Biso   1.000  C
  H176     1.0000 0.13040  0.04730  0.93150  Biso   1.000  H
  C387     1.0000 0.14020  0.10668  0.83346  Biso   1.000  C
  C388     1.0000 0.06429  0.98725  0.09840  Biso   1.000  C
  C389     1.0000 0.07575  0.97145  0.12030  Biso   1.000  C
  C390     1.0000 0.09125  0.95386  0.14598  Biso   1.000  C
  C391     1.0000 0.11936  0.95793  0.15787  Biso   1.000  C
  H177     1.0000 0.12900  0.97240  0.14820  Biso   1.000  H
  C392     1.0000 0.13330  0.94060  0.18402  Biso   1.000  C
  H178     1.0000 0.15230  0.94340  0.19210  Biso   1.000  H
  C393     1.0000 0.11911  0.91919  0.19828  Biso   1.000  C
  C394     1.0000 0.09099  0.91512  0.18639  Biso   1.000  C
  H179     1.0000 0.08140  0.90060  0.19600  Biso   1.000  H
  C395     1.0000 0.07706  0.93245  0.16024  Biso   1.000  C
  H180     1.0000 0.05800  0.92970  0.15220  Biso   1.000  H
  C396     1.0000 0.13650  0.90218  0.22340  Biso   1.000  C
  Cu19     1.0000 0.64008  0.64621  0.77209  Biso   1.000  Cu
  Cu20     1.0000 0.68212  0.61315  0.77657  Biso   1.000  Cu
  Cu21     1.0000 0.88836  0.62363  0.29145  Biso   1.000  Cu
  Cu22     1.0000 0.93214  0.65469  0.29568  Biso   1.000  Cu
  Cu23     1.0000 0.28388  0.49693  0.08515  Biso   1.000  Cu
  Cu24     1.0000 0.27829  0.49881  0.00545  Biso   1.000  Cu
  O73      1.0000 0.66667  0.66706  0.80682  Biso   1.000  O
  O74      1.0000 0.69932  0.63636  0.81654  Biso   1.000  O
  O75      1.0000 0.62253  0.38078  0.23723  Biso   1.000  O
  O76      1.0000 0.66082  0.40666  0.23774  Biso   1.000  O
  O77      1.0000 0.65802  0.66098  0.72613  Biso   1.000  O
  O78      1.0000 0.69596  0.63636  0.73463  Biso   1.000  O
  O79      1.0000 0.62741  0.62853  0.81849  Biso   1.000  O
  O80      1.0000 0.66043  0.59698  0.81894  Biso   1.000  O
  O81      1.0000 0.87712  0.64432  0.24381  Biso   1.000  O
  O82      1.0000 0.91366  0.67264  0.24980  Biso   1.000  O
  O83      1.0000 0.90601  0.39200  0.84016  Biso   1.000  O
  O84      1.0000 0.94483  0.36796  0.84024  Biso   1.000  O
  O85      1.0000 0.91184  0.60272  0.25851  Biso   1.000  O
  O86      1.0000 0.94829  0.62981  0.25814  Biso   1.000  O
  O87      1.0000 0.87161  0.64904  0.32529  Biso   1.000  O
  O88      1.0000 0.90854  0.67476  0.33317  Biso   1.000  O
  O89      1.0000 0.24418  0.49339  0.08384  Biso   1.000  O
  O90      1.0000 0.23870  0.49198  0.01578  Biso   1.000  O
  O91      1.0000 0.32380  0.50152  0.07772  Biso   1.000  O
  O92      1.0000 0.31914  0.50659  0.01112  Biso   1.000  O
  O93      1.0000 0.78872  0.95925  0.07471  Biso   1.000  O
  O94      1.0000 0.78615  0.96213  0.00864  Biso   1.000  O
  O95      1.0000 0.77961  0.96523  0.57987  Biso   1.000  O
  O96      1.0000 0.77147  0.96463  0.51305  Biso   1.000  O
  C397     1.0000 0.68929  0.65999  0.82290  Biso   1.000  C
  C398     1.0000 0.70761  0.67658  0.84658  Biso   1.000  C
  C399     1.0000 0.70041  0.70251  0.84966  Biso   1.000  C
  H181     1.0000 0.68440  0.70890  0.83500  Biso   1.000  H
  C400     1.0000 0.71681  0.71894  0.87434  Biso   1.000  C
  H182     1.0000 0.71190  0.73650  0.87640  Biso   1.000  H
  C401     1.0000 0.74042  0.70942  0.89596  Biso   1.000  C
  C402     1.0000 0.74762  0.68349  0.89289  Biso   1.000  C
  H183     1.0000 0.76360  0.67710  0.90750  Biso   1.000  H
  C403     1.0000 0.73122  0.66706  0.86820  Biso   1.000  C
  H184     1.0000 0.73610  0.64950  0.86610  Biso   1.000  H
  C404     1.0000 0.75710  0.72617  0.92520  Biso   1.000  C
  C405     1.0000 0.76973  0.73822  0.95040  Biso   1.000  C
  C406     1.0000 0.78588  0.75107  0.98051  Biso   1.000  C
  C407     1.0000 0.80125  0.73641  0.00909  Biso   1.000  C
  H185     1.0000 0.80080  0.71830  0.00760  Biso   1.000  H
  C408     1.0000 0.81731  0.74856  0.03984  Biso   1.000  C
  C409     1.0000 0.81799  0.77538  0.04201  Biso   1.000  C
  H186     1.0000 0.82890  0.78360  0.06280  Biso   1.000  H
  C410     1.0000 0.80262  0.79004  0.01343  Biso   1.000  C
  C411     1.0000 0.78656  0.77789  0.98268  Biso   1.000  C
  H187     1.0000 0.77620  0.78780  0.96340  Biso   1.000  H
  C412     1.0000 0.83060  0.73399  0.07190  Biso   1.000  C
  C413     1.0000 0.84230  0.72130  0.10180  Biso   1.000  C
  C414     1.0000 0.85556  0.70680  0.13296  Biso   1.000  C
  C415     1.0000 0.84344  0.68345  0.14350  Biso   1.000  C
  H188     1.0000 0.82760  0.67720  0.12850  Biso   1.000  H
  C416     1.0000 0.85481  0.66937  0.17630  Biso   1.000  C
  H189     1.0000 0.84660  0.65360  0.18340  Biso   1.000  H
  C417     1.0000 0.87830  0.67864  0.19843  Biso   1.000  C
  C418     1.0000 0.89042  0.70199  0.18790  Biso   1.000  C
  H190     1.0000 0.90630  0.70830  0.20280  Biso   1.000  H
  C419     1.0000 0.87906  0.71607  0.15510  Biso   1.000  C
  H191     1.0000 0.88730  0.73190  0.14800  Biso   1.000  H
  C420     1.0000 0.88960  0.66442  0.23350  Biso   1.000  C
  C421     1.0000 0.80135  0.81769  0.01770  Biso   1.000  C
  C422     1.0000 0.79999  0.84120  0.02410  Biso   1.000  C
  C423     1.0000 0.79864  0.86770  0.02830  Biso   1.000  C
  C424     1.0000 0.79231  0.88283  0.99427  Biso   1.000  C
  H192     1.0000 0.79020  0.87510  0.96850  Biso   1.000  H
  C425     1.0000 0.78916  0.90940  0.99832  Biso   1.000  C
  H193     1.0000 0.78490  0.91960  0.97530  Biso   1.000  H
  C426     1.0000 0.79234  0.92083  0.03642  Biso   1.000  C
  C427     1.0000 0.79867  0.90569  0.07046  Biso   1.000  C
  H194     1.0000 0.80080  0.91340  0.09620  Biso   1.000  H
  C428     1.0000 0.80182  0.87912  0.06641  Biso   1.000  C
  H195     1.0000 0.80610  0.86890  0.08940  Biso   1.000  H
  C429     1.0000 0.78883  0.94839  0.04100  Biso   1.000  C
  C430     1.0000 0.93300  0.60844  0.24306  Biso   1.000  C
  C431     1.0000 0.95045  0.59186  0.21858  Biso   1.000  C
  C432     1.0000 0.93589  0.57011  0.20447  Biso   1.000  C
  H196     1.0000 0.91740  0.56710  0.21230  Biso   1.000  H
  C433     1.0000 0.94867  0.55283  0.17881  Biso   1.000  C
  H197     1.0000 0.93880  0.53810  0.16930  Biso   1.000  H
  C434     1.0000 0.97602  0.55731  0.16726  Biso   1.000  C
  C435     1.0000 0.99058  0.57907  0.18137  Biso   1.000  C
  H198     1.0000 0.00910  0.58210  0.17360  Biso   1.000  H
  C436     1.0000 0.97779  0.59635  0.20703  Biso   1.000  C
  H199     1.0000 0.98760  0.61110  0.21660  Biso   1.000  H
  C437     1.0000 0.98868  0.54020  0.14220  Biso   1.000  C
  C438     1.0000 0.99917  0.52495  0.11750  Biso   1.000  C
  C439     1.0000 0.01122  0.50639  0.08978  Biso   1.000  C
  C440     1.0000 0.04046  0.50563  0.08932  Biso   1.000  C
  H200     1.0000 0.05140  0.51620  0.10710  Biso   1.000  H
  C441     1.0000 0.05352  0.48929  0.06253  Biso   1.000  C
  C442     1.0000 0.03735  0.47369  0.03620  Biso   1.000  C
  H201     1.0000 0.04620  0.46260  0.01810  Biso   1.000  H
  C443     1.0000 0.00811  0.47445  0.03666  Biso   1.000  C
  C444     1.0000 0.99504  0.49079  0.06345  Biso   1.000  C
  H202     1.0000 0.97530  0.49130  0.06380  Biso   1.000  H
  C445     1.0000 0.08410  0.48835  0.06090  Biso   1.000  C
  C446     1.0000 0.10970  0.48824  0.05990  Biso   1.000  C
  C447     1.0000 0.13956  0.48758  0.05850  Biso   1.000  C
  C448     1.0000 0.15722  0.48938  0.09326  Biso   1.000  C
  H203     1.0000 0.14950  0.48990  0.11900  Biso   1.000  H
  C449     1.0000 0.18626  0.49039  0.08990  Biso   1.000  C
  H204     1.0000 0.19820  0.49160  0.11340  Biso   1.000  H
  C450     1.0000 0.19766  0.48959  0.05190  Biso   1.000  C
  C451     1.0000 0.18000  0.48779  0.01715  Biso   1.000  C
  H205     1.0000 0.18770  0.48720  0.99140  Biso   1.000  H
  C452     1.0000 0.15095  0.48678  0.02050  Biso   1.000  C
  H206     1.0000 0.13900  0.48560  0.99700  Biso   1.000  H
  C453     1.0000 0.22859  0.49155  0.05190  Biso   1.000  C
  C454     1.0000 0.99153  0.45987  0.00920  Biso   1.000  C
  C455     1.0000 0.98009  0.44593  0.98610  Biso   1.000  C
  C456     1.0000 0.96568  0.42994  0.95337  Biso   1.000  C
  C457     1.0000 0.93801  0.43411  0.93930  Biso   1.000  C
  H207     1.0000 0.92710  0.44680  0.95140  Biso   1.000  H
  C458     1.0000 0.92652  0.41944  0.90730  Biso   1.000  C
  H208     1.0000 0.90780  0.42230  0.89780  Biso   1.000  H
  C459     1.0000 0.94270  0.40060  0.88940  Biso   1.000  C
  C460     1.0000 0.97037  0.39643  0.90347  Biso   1.000  C
  H209     1.0000 0.98130  0.38370  0.89140  Biso   1.000  H
  C461     1.0000 0.98186  0.41110  0.93550  Biso   1.000  C
  H210     1.0000 0.00060  0.40830  0.94500  Biso   1.000  H
  C462     1.0000 0.93013  0.38635  0.85530  Biso   1.000  C
  C463     1.0000 0.88240  0.66804  0.33980  Biso   1.000  C
  C464     1.0000 0.86833  0.68679  0.36660  Biso   1.000  C
  C465     1.0000 0.88136  0.70860  0.38340  Biso   1.000  C
  H211     1.0000 0.89980  0.71290  0.37670  Biso   1.000  H
  C466     1.0000 0.86711  0.72408  0.41010  Biso   1.000  C
  H212     1.0000 0.87590  0.73880  0.42150  Biso   1.000  H
  C467     1.0000 0.83983  0.71774  0.42006  Biso   1.000  C
  C468     1.0000 0.82681  0.69592  0.40320  Biso   1.000  C
  H213     1.0000 0.80840  0.69160  0.41000  Biso   1.000  H
  C469     1.0000 0.84106  0.68045  0.37650  Biso   1.000  C
  H214     1.0000 0.83230  0.66570  0.36510  Biso   1.000  H
  C470     1.0000 0.82321  0.73249  0.44660  Biso   1.000  C
  C471     1.0000 0.81105  0.74342  0.47150  Biso   1.000  C
  C472     1.0000 0.79434  0.75552  0.50241  Biso   1.000  C
  C473     1.0000 0.79294  0.78225  0.50602  Biso   1.000  C
  H215     1.0000 0.80250  0.79280  0.48810  Biso   1.000  H
  C474     1.0000 0.77738  0.79330  0.53619  Biso   1.000  C
  C475     1.0000 0.76321  0.77763  0.56275  Biso   1.000  C
  H216     1.0000 0.75270  0.78510  0.58320  Biso   1.000  H
  C476     1.0000 0.76461  0.75090  0.55914  Biso   1.000  C
  C477     1.0000 0.78018  0.73985  0.52897  Biso   1.000  C
  H217     1.0000 0.78110  0.72180  0.52650  Biso   1.000  H
  C478     1.0000 0.77496  0.81925  0.53940  Biso   1.000  C
  C479     1.0000 0.77319  0.84436  0.54210  Biso   1.000  C
  C480     1.0000 0.77193  0.87133  0.54320  Biso   1.000  C
  C481     1.0000 0.76840  0.88546  0.50745  Biso   1.000  C
  H218     1.0000 0.76580  0.87690  0.48240  Biso   1.000  H
  C482     1.0000 0.76871  0.91231  0.50870  Biso   1.000  C
  H219     1.0000 0.76630  0.92190  0.48450  Biso   1.000  H
  C483     1.0000 0.77256  0.92502  0.54570  Biso   1.000  C
  C484     1.0000 0.77609  0.91089  0.58142  Biso   1.000  C
  H220     1.0000 0.77870  0.91950  0.60640  Biso   1.000  H
  C485     1.0000 0.77578  0.88404  0.58016  Biso   1.000  C
  H221     1.0000 0.77820  0.87450  0.60430  Biso   1.000  H
  C486     1.0000 0.77632  0.95226  0.54670  Biso   1.000  C
  C487     1.0000 0.74988  0.73408  0.58440  Biso   1.000  C
  C488     1.0000 0.73849  0.71983  0.60730  Biso   1.000  C
  C489     1.0000 0.72394  0.70271  0.63389  Biso   1.000  C
  C490     1.0000 0.69653  0.70817  0.64420  Biso   1.000  C
  H222     1.0000 0.68710  0.72270  0.63300  Biso   1.000  H
  C491     1.0000 0.68304  0.69220  0.67110  Biso   1.000  C
  H223     1.0000 0.66450  0.69590  0.67800  Biso   1.000  H
  C492     1.0000 0.69696  0.67076  0.68764  Biso   1.000  C
  C493     1.0000 0.72438  0.66530  0.67730  Biso   1.000  C
  H224     1.0000 0.73380  0.65080  0.68850  Biso   1.000  H
  C494     1.0000 0.73787  0.68127  0.65050  Biso   1.000  C
  H225     1.0000 0.75640  0.67760  0.64350  Biso   1.000  H
  C495     1.0000 0.68280  0.65448  0.71660  Biso   1.000  C
  C496     1.0000 0.33462  0.50627  0.04540  Biso   1.000  C
  C497     1.0000 0.36407  0.51184  0.04320  Biso   1.000  C
  C498     1.0000 0.37559  0.52053  0.00766  Biso   1.000  C
  H226     1.0000 0.36390  0.52310  0.98420  Biso   1.000  H
  C499     1.0000 0.40433  0.52543  0.00689  Biso   1.000  C
  H227     1.0000 0.41210  0.53130  0.98290  Biso   1.000  H
  C500     1.0000 0.42156  0.52165  0.04160  Biso   1.000  C
  C501     1.0000 0.41004  0.51296  0.07715  Biso   1.000  C
  H228     1.0000 0.42170  0.51040  0.10060  Biso   1.000  H
  C502     1.0000 0.38130  0.50806  0.07792  Biso   1.000  C
  H229     1.0000 0.37350  0.50220  0.10190  Biso   1.000  H
  C503     1.0000 0.45202  0.52351  0.03870  Biso   1.000  C
  C504     1.0000 0.47606  0.52440  0.03870  Biso   1.000  C
  C505     1.0000 0.50734  0.52329  0.04000  Biso   1.000  C
  C506     1.0000 0.52331  0.53725  0.01334  Biso   1.000  C
  H230     1.0000 0.51440  0.54810  0.99390  Biso   1.000  H
  C507     1.0000 0.55252  0.53512  0.01547  Biso   1.000  C
  C508     1.0000 0.56575  0.51904  0.04425  Biso   1.000  C
  H231     1.0000 0.58550  0.51760  0.04570  Biso   1.000  H
  C509     1.0000 0.54978  0.50508  0.07091  Biso   1.000  C
  C510     1.0000 0.52057  0.50720  0.06878  Biso   1.000  C
  H232     1.0000 0.50980  0.49780  0.08680  Biso   1.000  H
  C511     1.0000 0.56754  0.54828  0.98610  Biso   1.000  C
  C512     1.0000 0.58094  0.55836  0.96140  Biso   1.000  C
  C513     1.0000 0.59687  0.57163  0.92952  Biso   1.000  C
  C514     1.0000 0.58530  0.59317  0.90983  Biso   1.000  C
  H233     1.0000 0.56790  0.59980  0.91750  Biso   1.000  H
  C515     1.0000 0.59946  0.60491  0.87880  Biso   1.000  C
  H234     1.0000 0.59160  0.61950  0.86550  Biso   1.000  H
  C516     1.0000 0.62519  0.59511  0.86747  Biso   1.000  C
  C517     1.0000 0.63675  0.57357  0.88717  Biso   1.000  C
  H235     1.0000 0.65410  0.56690  0.87950  Biso   1.000  H
  C518     1.0000 0.62259  0.56183  0.91819  Biso   1.000  C
  H236     1.0000 0.63040  0.54730  0.93150  Biso   1.000  H
  C519     1.0000 0.64020  0.60668  0.83346  Biso   1.000  C
  C520     1.0000 0.56429  0.48725  0.09840  Biso   1.000  C
  C521     1.0000 0.57575  0.47145  0.12030  Biso   1.000  C
  C522     1.0000 0.59125  0.45386  0.14598  Biso   1.000  C
  C523     1.0000 0.61936  0.45793  0.15787  Biso   1.000  C
  H237     1.0000 0.62900  0.47240  0.14820  Biso   1.000  H
  C524     1.0000 0.63330  0.44060  0.18402  Biso   1.000  C
  H238     1.0000 0.65230  0.44340  0.19210  Biso   1.000  H
  C525     1.0000 0.61911  0.41919  0.19828  Biso   1.000  C
  C526     1.0000 0.59099  0.41512  0.18639  Biso   1.000  C
  H239     1.0000 0.58140  0.40060  0.19600  Biso   1.000  H
  C527     1.0000 0.57706  0.43245  0.16024  Biso   1.000  C
  H240     1.0000 0.55800  0.42970  0.15220  Biso   1.000  H
  C528     1.0000 0.63650  0.40218  0.22340  Biso   1.000  C
  Cu25     1.0000 0.85992  0.85379  0.22791  Biso   1.000  Cu
  Cu26     1.0000 0.81788  0.88685  0.22343  Biso   1.000  Cu
  Cu27     1.0000 0.61164  0.87637  0.70855  Biso   1.000  Cu
  Cu28     1.0000 0.56786  0.84531  0.70432  Biso   1.000  Cu
  Cu29     1.0000 0.21612  0.00307  0.91485  Biso   1.000  Cu
  Cu30     1.0000 0.22171  0.00119  0.99455  Biso   1.000  Cu
  O97      1.0000 0.83333  0.83294  0.19318  Biso   1.000  O
  O98      1.0000 0.80068  0.86364  0.18346  Biso   1.000  O
  O99      1.0000 0.87747  0.11922  0.76277  Biso   1.000  O
  O100     1.0000 0.83918  0.09334  0.76226  Biso   1.000  O
  O101     1.0000 0.84198  0.83902  0.27387  Biso   1.000  O
  O102     1.0000 0.80404  0.86364  0.26537  Biso   1.000  O
  O103     1.0000 0.87259  0.87147  0.18151  Biso   1.000  O
  O104     1.0000 0.83957  0.90302  0.18106  Biso   1.000  O
  O105     1.0000 0.62288  0.85568  0.75619  Biso   1.000  O
  O106     1.0000 0.58634  0.82736  0.75020  Biso   1.000  O
  O107     1.0000 0.59399  0.10800  0.15984  Biso   1.000  O
  O108     1.0000 0.55517  0.13204  0.15976  Biso   1.000  O
  O109     1.0000 0.58816  0.89728  0.74149  Biso   1.000  O
  O110     1.0000 0.55171  0.87019  0.74186  Biso   1.000  O
  O111     1.0000 0.62839  0.85096  0.67471  Biso   1.000  O
  O112     1.0000 0.59146  0.82524  0.66683  Biso   1.000  O
  O113     1.0000 0.25582  0.00661  0.91616  Biso   1.000  O
  O114     1.0000 0.26130  0.00802  0.98422  Biso   1.000  O
  O115     1.0000 0.17620  0.99848  0.92228  Biso   1.000  O
  O116     1.0000 0.18086  0.99341  0.98888  Biso   1.000  O
  O117     1.0000 0.71128  0.54075  0.92529  Biso   1.000  O
  O118     1.0000 0.71385  0.53787  0.99136  Biso   1.000  O
  O119     1.0000 0.72039  0.53477  0.42013  Biso   1.000  O
  O120     1.0000 0.72853  0.53537  0.48695  Biso   1.000  O
  C529     1.0000 0.81071  0.84001  0.17710  Biso   1.000  C
  C530     1.0000 0.79239  0.82342  0.15342  Biso   1.000  C
  C531     1.0000 0.79959  0.79749  0.15034  Biso   1.000  C
  H241     1.0000 0.81560  0.79110  0.16500  Biso   1.000  H
  C532     1.0000 0.78319  0.78106  0.12566  Biso   1.000  C
  H242     1.0000 0.78810  0.76350  0.12360  Biso   1.000  H
  C533     1.0000 0.75958  0.79058  0.10404  Biso   1.000  C
  C534     1.0000 0.75238  0.81651  0.10711  Biso   1.000  C
  H243     1.0000 0.73640  0.82290  0.09250  Biso   1.000  H
  C535     1.0000 0.76878  0.83294  0.13180  Biso   1.000  C
  H244     1.0000 0.76390  0.85050  0.13390  Biso   1.000  H
  C536     1.0000 0.74290  0.77383  0.07480  Biso   1.000  C
  C537     1.0000 0.73027  0.76178  0.04960  Biso   1.000  C
  C538     1.0000 0.71412  0.74893  0.01949  Biso   1.000  C
  C539     1.0000 0.69875  0.76359  0.99091  Biso   1.000  C
  H245     1.0000 0.69920  0.78170  0.99240  Biso   1.000  H
  C540     1.0000 0.68269  0.75144  0.96016  Biso   1.000  C
  C541     1.0000 0.68201  0.72462  0.95799  Biso   1.000  C
  H246     1.0000 0.67110  0.71640  0.93720  Biso   1.000  H
  C542     1.0000 0.69738  0.70996  0.98657  Biso   1.000  C
  C543     1.0000 0.71344  0.72211  0.01732  Biso   1.000  C
  H247     1.0000 0.72380  0.71220  0.03660  Biso   1.000  H
  C544     1.0000 0.66940  0.76601  0.92810  Biso   1.000  C
  C545     1.0000 0.65770  0.77870  0.89820  Biso   1.000  C
  C546     1.0000 0.64444  0.79320  0.86704  Biso   1.000  C
  C547     1.0000 0.65656  0.81655  0.85650  Biso   1.000  C
  H248     1.0000 0.67240  0.82280  0.87150  Biso   1.000  H
  C548     1.0000 0.64519  0.83063  0.82370  Biso   1.000  C
  H249     1.0000 0.65340  0.84640  0.81660  Biso   1.000  H
  C549     1.0000 0.62170  0.82136  0.80157  Biso   1.000  C
  C550     1.0000 0.60958  0.79801  0.81210  Biso   1.000  C
  H250     1.0000 0.59370  0.79170  0.79720  Biso   1.000  H
  C551     1.0000 0.62094  0.78393  0.84490  Biso   1.000  C
  H251     1.0000 0.61270  0.76810  0.85200  Biso   1.000  H
  C552     1.0000 0.61040  0.83558  0.76650  Biso   1.000  C
  C553     1.0000 0.69865  0.68231  0.98230  Biso   1.000  C
  C554     1.0000 0.70001  0.65880  0.97590  Biso   1.000  C
  C555     1.0000 0.70136  0.63230  0.97170  Biso   1.000  C
  C556     1.0000 0.70769  0.61717  0.00573  Biso   1.000  C
  H252     1.0000 0.70980  0.62490  0.03150  Biso   1.000  H
  C557     1.0000 0.71084  0.59060  0.00168  Biso   1.000  C
  H253     1.0000 0.71510  0.58040  0.02470  Biso   1.000  H
  C558     1.0000 0.70766  0.57917  0.96358  Biso   1.000  C
  C559     1.0000 0.70133  0.59431  0.92954  Biso   1.000  C
  H254     1.0000 0.69920  0.58660  0.90380  Biso   1.000  H
  C560     1.0000 0.69818  0.62088  0.93359  Biso   1.000  C
  H255     1.0000 0.69390  0.63110  0.91060  Biso   1.000  H
  C561     1.0000 0.71117  0.55161  0.95900  Biso   1.000  C
  C562     1.0000 0.56700  0.89156  0.75694  Biso   1.000  C
  C563     1.0000 0.54955  0.90814  0.78142  Biso   1.000  C
  C564     1.0000 0.56411  0.92989  0.79553  Biso   1.000  C
  H256     1.0000 0.58260  0.93290  0.78770  Biso   1.000  H
  C565     1.0000 0.55133  0.94717  0.82119  Biso   1.000  C
  H257     1.0000 0.56120  0.96190  0.83070  Biso   1.000  H
  C566     1.0000 0.52398  0.94269  0.83274  Biso   1.000  C
  C567     1.0000 0.50942  0.92093  0.81863  Biso   1.000  C
  H258     1.0000 0.49090  0.91790  0.82640  Biso   1.000  H
  C568     1.0000 0.52221  0.90365  0.79297  Biso   1.000  C
  H259     1.0000 0.51240  0.88890  0.78340  Biso   1.000  H
  C569     1.0000 0.51132  0.95980  0.85780  Biso   1.000  C
  C570     1.0000 0.50083  0.97505  0.88250  Biso   1.000  C
  C571     1.0000 0.48878  0.99361  0.91022  Biso   1.000  C
  C572     1.0000 0.45954  0.99437  0.91068  Biso   1.000  C
  H260     1.0000 0.44860  0.98380  0.89290  Biso   1.000  H
  C573     1.0000 0.44648  0.01071  0.93747  Biso   1.000  C
  C574     1.0000 0.46265  0.02631  0.96380  Biso   1.000  C
  H261     1.0000 0.45380  0.03740  0.98190  Biso   1.000  H
  C575     1.0000 0.49189  0.02555  0.96334  Biso   1.000  C
  C576     1.0000 0.50496  0.00921  0.93655  Biso   1.000  C
  H262     1.0000 0.52470  0.00870  0.93620  Biso   1.000  H
  C577     1.0000 0.41590  0.01165  0.93910  Biso   1.000  C
  C578     1.0000 0.39030  0.01176  0.94010  Biso   1.000  C
  C579     1.0000 0.36044  0.01242  0.94150  Biso   1.000  C
  C580     1.0000 0.34278  0.01062  0.90674  Biso   1.000  C
  H263     1.0000 0.35050  0.01010  0.88100  Biso   1.000  H
  C581     1.0000 0.31374  0.00961  0.91010  Biso   1.000  C
  H264     1.0000 0.30180  0.00840  0.88660  Biso   1.000  H
  C582     1.0000 0.30234  0.01041  0.94810  Biso   1.000  C
  C583     1.0000 0.32000  0.01221  0.98285  Biso   1.000  C
  H265     1.0000 0.31230  0.01280  0.00860  Biso   1.000  H
  C584     1.0000 0.34905  0.01322  0.97950  Biso   1.000  C
  H266     1.0000 0.36100  0.01440  0.00300  Biso   1.000  H
  C585     1.0000 0.27141  0.00845  0.94810  Biso   1.000  C
  C586     1.0000 0.50847  0.04013  0.99080  Biso   1.000  C
  C587     1.0000 0.51991  0.05407  0.01390  Biso   1.000  C
  C588     1.0000 0.53432  0.07006  0.04663  Biso   1.000  C
  C589     1.0000 0.56199  0.06589  0.06070  Biso   1.000  C
  H267     1.0000 0.57290  0.05320  0.04860  Biso   1.000  H
  C590     1.0000 0.57348  0.08056  0.09270  Biso   1.000  C
  H268     1.0000 0.59220  0.07770  0.10220  Biso   1.000  H
  C591     1.0000 0.55730  0.09940  0.11060  Biso   1.000  C
  C592     1.0000 0.52963  0.10357  0.09653  Biso   1.000  C
  H269     1.0000 0.51870  0.11630  0.10860  Biso   1.000  H
  C593     1.0000 0.51814  0.08890  0.06450  Biso   1.000  C
  H270     1.0000 0.49940  0.09170  0.05500  Biso   1.000  H
  C594     1.0000 0.56987  0.11365  0.14470  Biso   1.000  C
  C595     1.0000 0.61760  0.83196  0.66020  Biso   1.000  C
  C596     1.0000 0.63167  0.81321  0.63340  Biso   1.000  C
  C597     1.0000 0.61864  0.79140  0.61660  Biso   1.000  C
  H271     1.0000 0.60020  0.78710  0.62330  Biso   1.000  H
  C598     1.0000 0.63289  0.77592  0.58990  Biso   1.000  C
  H272     1.0000 0.62410  0.76120  0.57850  Biso   1.000  H
  C599     1.0000 0.66017  0.78226  0.57994  Biso   1.000  C
  C600     1.0000 0.67319  0.80408  0.59680  Biso   1.000  C
  H273     1.0000 0.69160  0.80840  0.59000  Biso   1.000  H
  C601     1.0000 0.65894  0.81955  0.62350  Biso   1.000  C
  H274     1.0000 0.66770  0.83430  0.63490  Biso   1.000  H
  C602     1.0000 0.67679  0.76751  0.55340  Biso   1.000  C
  C603     1.0000 0.68895  0.75658  0.52850  Biso   1.000  C
  C604     1.0000 0.70566  0.74448  0.49759  Biso   1.000  C
  C605     1.0000 0.70706  0.71775  0.49398  Biso   1.000  C
  H275     1.0000 0.69750  0.70720  0.51190  Biso   1.000  H
  C606     1.0000 0.72262  0.70670  0.46381  Biso   1.000  C
  C607     1.0000 0.73679  0.72237  0.43725  Biso   1.000  C
  H276     1.0000 0.74730  0.71490  0.41680  Biso   1.000  H
  C608     1.0000 0.73539  0.74910  0.44086  Biso   1.000  C
  C609     1.0000 0.71982  0.76015  0.47103  Biso   1.000  C
  H277     1.0000 0.71890  0.77820  0.47350  Biso   1.000  H
  C610     1.0000 0.72504  0.68075  0.46060  Biso   1.000  C
  C611     1.0000 0.72681  0.65564  0.45790  Biso   1.000  C
  C612     1.0000 0.72807  0.62867  0.45680  Biso   1.000  C
  C613     1.0000 0.73160  0.61454  0.49255  Biso   1.000  C
  H278     1.0000 0.73420  0.62310  0.51760  Biso   1.000  H
  C614     1.0000 0.73129  0.58769  0.49130  Biso   1.000  C
  H279     1.0000 0.73370  0.57810  0.51550  Biso   1.000  H
  C615     1.0000 0.72744  0.57498  0.45430  Biso   1.000  C
  C616     1.0000 0.72391  0.58911  0.41858  Biso   1.000  C
  H280     1.0000 0.72130  0.58050  0.39360  Biso   1.000  H
  C617     1.0000 0.72422  0.61596  0.41984  Biso   1.000  C
  H281     1.0000 0.72180  0.62550  0.39570  Biso   1.000  H
  C618     1.0000 0.72368  0.54774  0.45330  Biso   1.000  C
  C619     1.0000 0.75012  0.76592  0.41560  Biso   1.000  C
  C620     1.0000 0.76151  0.78017  0.39270  Biso   1.000  C
  C621     1.0000 0.77606  0.79729  0.36611  Biso   1.000  C
  C622     1.0000 0.80347  0.79183  0.35580  Biso   1.000  C
  H282     1.0000 0.81290  0.77730  0.36700  Biso   1.000  H
  C623     1.0000 0.81696  0.80780  0.32890  Biso   1.000  C
  H283     1.0000 0.83550  0.80410  0.32200  Biso   1.000  H
  C624     1.0000 0.80304  0.82924  0.31236  Biso   1.000  C
  C625     1.0000 0.77562  0.83470  0.32270  Biso   1.000  C
  H284     1.0000 0.76620  0.84920  0.31150  Biso   1.000  H
  C626     1.0000 0.76213  0.81873  0.34950  Biso   1.000  C
  H285     1.0000 0.74360  0.82240  0.35650  Biso   1.000  H
  C627     1.0000 0.81720  0.84552  0.28340  Biso   1.000  C
  C628     1.0000 0.16538  0.99373  0.95460  Biso   1.000  C
  C629     1.0000 0.13593  0.98816  0.95680  Biso   1.000  C
  C630     1.0000 0.12441  0.97947  0.99234  Biso   1.000  C
  H286     1.0000 0.13610  0.97690  0.01580  Biso   1.000  H
  C631     1.0000 0.09567  0.97457  0.99311  Biso   1.000  C
  H287     1.0000 0.08790  0.96870  0.01710  Biso   1.000  H
  C632     1.0000 0.07844  0.97835  0.95840  Biso   1.000  C
  C633     1.0000 0.08996  0.98704  0.92285  Biso   1.000  C
  H288     1.0000 0.07830  0.98960  0.89940  Biso   1.000  H
  C634     1.0000 0.11870  0.99194  0.92208  Biso   1.000  C
  H289     1.0000 0.12650  0.99780  0.89810  Biso   1.000  H
  C635     1.0000 0.04798  0.97649  0.96130  Biso   1.000  C
  C636     1.0000 0.02394  0.97560  0.96130  Biso   1.000  C
  C637     1.0000 0.99266  0.97671  0.96000  Biso   1.000  C
  C638     1.0000 0.97669  0.96275  0.98666  Biso   1.000  C
  H290     1.0000 0.98560  0.95190  0.00610  Biso   1.000  H
  C639     1.0000 0.94748  0.96488  0.98453  Biso   1.000  C
  C640     1.0000 0.93425  0.98096  0.95575  Biso   1.000  C
  H291     1.0000 0.91450  0.98240  0.95430  Biso   1.000  H
  C641     1.0000 0.95022  0.99492  0.92909  Biso   1.000  C
  C642     1.0000 0.97943  0.99280  0.93122  Biso   1.000  C
  H292     1.0000 0.99020  0.00220  0.91320  Biso   1.000  H
  C643     1.0000 0.93246  0.95172  0.01390  Biso   1.000  C
  C644     1.0000 0.91906  0.94164  0.03860  Biso   1.000  C
  C645     1.0000 0.90313  0.92837  0.07048  Biso   1.000  C
  C646     1.0000 0.91470  0.90683  0.09017  Biso   1.000  C
  H293     1.0000 0.93210  0.90020  0.08250  Biso   1.000  H
  C647     1.0000 0.90054  0.89509  0.12120  Biso   1.000  C
  H294     1.0000 0.90840  0.88050  0.13450  Biso   1.000  H
  C648     1.0000 0.87481  0.90489  0.13253  Biso   1.000  C
  C649     1.0000 0.86325  0.92643  0.11283  Biso   1.000  C
  H295     1.0000 0.84590  0.93310  0.12050  Biso   1.000  H
  C650     1.0000 0.87741  0.93817  0.08181  Biso   1.000  C
  H296     1.0000 0.86960  0.95270  0.06850  Biso   1.000  H
  C651     1.0000 0.85980  0.89332  0.16654  Biso   1.000  C
  C652     1.0000 0.93571  0.01275  0.90160  Biso   1.000  C
  C653     1.0000 0.92425  0.02855  0.87970  Biso   1.000  C
  C654     1.0000 0.90875  0.04614  0.85402  Biso   1.000  C
  C655     1.0000 0.88064  0.04207  0.84213  Biso   1.000  C
  H297     1.0000 0.87100  0.02760  0.85180  Biso   1.000  H
  C656     1.0000 0.86670  0.05940  0.81598  Biso   1.000  C
  H298     1.0000 0.84770  0.05660  0.80790  Biso   1.000  H
  C657     1.0000 0.88089  0.08081  0.80172  Biso   1.000  C
  C658     1.0000 0.90901  0.08488  0.81361  Biso   1.000  C
  H299     1.0000 0.91860  0.09940  0.80400  Biso   1.000  H
  C659     1.0000 0.92294  0.06755  0.83976  Biso   1.000  C
  H300     1.0000 0.94200  0.07030  0.84780  Biso   1.000  H
  C660     1.0000 0.86350  0.09782  0.77660  Biso   1.000  C
  Cu31     1.0000 0.35992  0.35379  0.22791  Biso   1.000  Cu
  Cu32     1.0000 0.31788  0.38685  0.22343  Biso   1.000  Cu
  Cu33     1.0000 0.11164  0.37637  0.70855  Biso   1.000  Cu
  Cu34     1.0000 0.06786  0.34531  0.70432  Biso   1.000  Cu
  Cu35     1.0000 0.71612  0.50307  0.91485  Biso   1.000  Cu
  Cu36     1.0000 0.72171  0.50119  0.99455  Biso   1.000  Cu
  O121     1.0000 0.33333  0.33294  0.19318  Biso   1.000  O
  O122     1.0000 0.30068  0.36364  0.18346  Biso   1.000  O
  O123     1.0000 0.37747  0.61922  0.76277  Biso   1.000  O
  O124     1.0000 0.33918  0.59334  0.76226  Biso   1.000  O
  O125     1.0000 0.34198  0.33902  0.27387  Biso   1.000  O
  O126     1.0000 0.30404  0.36364  0.26537  Biso   1.000  O
  O127     1.0000 0.37259  0.37147  0.18151  Biso   1.000  O
  O128     1.0000 0.33957  0.40302  0.18106  Biso   1.000  O
  O129     1.0000 0.12288  0.35568  0.75619  Biso   1.000  O
  O130     1.0000 0.08634  0.32736  0.75020  Biso   1.000  O
  O131     1.0000 0.09399  0.60800  0.15984  Biso   1.000  O
  O132     1.0000 0.05517  0.63204  0.15976  Biso   1.000  O
  O133     1.0000 0.08816  0.39728  0.74149  Biso   1.000  O
  O134     1.0000 0.05171  0.37019  0.74186  Biso   1.000  O
  O135     1.0000 0.12839  0.35096  0.67471  Biso   1.000  O
  O136     1.0000 0.09146  0.32524  0.66683  Biso   1.000  O
  O137     1.0000 0.75582  0.50661  0.91616  Biso   1.000  O
  O138     1.0000 0.76130  0.50802  0.98422  Biso   1.000  O
  O139     1.0000 0.67620  0.49848  0.92228  Biso   1.000  O
  O140     1.0000 0.68086  0.49341  0.98888  Biso   1.000  O
  O141     1.0000 0.21128  0.04075  0.92529  Biso   1.000  O
  O142     1.0000 0.21385  0.03787  0.99136  Biso   1.000  O
  O143     1.0000 0.22039  0.03477  0.42013  Biso   1.000  O
  O144     1.0000 0.22853  0.03537  0.48695  Biso   1.000  O
  C661     1.0000 0.31071  0.34001  0.17710  Biso   1.000  C
  C662     1.0000 0.29239  0.32342  0.15342  Biso   1.000  C
  C663     1.0000 0.29959  0.29749  0.15034  Biso   1.000  C
  H301     1.0000 0.31560  0.29110  0.16500  Biso   1.000  H
  C664     1.0000 0.28319  0.28106  0.12566  Biso   1.000  C
  H302     1.0000 0.28810  0.26350  0.12360  Biso   1.000  H
  C665     1.0000 0.25958  0.29058  0.10404  Biso   1.000  C
  C666     1.0000 0.25238  0.31651  0.10711  Biso   1.000  C
  H303     1.0000 0.23640  0.32290  0.09250  Biso   1.000  H
  C667     1.0000 0.26878  0.33294  0.13180  Biso   1.000  C
  H304     1.0000 0.26390  0.35050  0.13390  Biso   1.000  H
  C668     1.0000 0.24290  0.27383  0.07480  Biso   1.000  C
  C669     1.0000 0.23027  0.26178  0.04960  Biso   1.000  C
  C670     1.0000 0.21412  0.24893  0.01949  Biso   1.000  C
  C671     1.0000 0.19875  0.26359  0.99091  Biso   1.000  C
  H305     1.0000 0.19920  0.28170  0.99240  Biso   1.000  H
  C672     1.0000 0.18269  0.25144  0.96016  Biso   1.000  C
  C673     1.0000 0.18201  0.22462  0.95799  Biso   1.000  C
  H306     1.0000 0.17110  0.21640  0.93720  Biso   1.000  H
  C674     1.0000 0.19738  0.20996  0.98657  Biso   1.000  C
  C675     1.0000 0.21344  0.22211  0.01732  Biso   1.000  C
  H307     1.0000 0.22380  0.21220  0.03660  Biso   1.000  H
  C676     1.0000 0.16940  0.26601  0.92810  Biso   1.000  C
  C677     1.0000 0.15770  0.27870  0.89820  Biso   1.000  C
  C678     1.0000 0.14444  0.29320  0.86704  Biso   1.000  C
  C679     1.0000 0.15656  0.31655  0.85650  Biso   1.000  C
  H308     1.0000 0.17240  0.32280  0.87150  Biso   1.000  H
  C680     1.0000 0.14519  0.33063  0.82370  Biso   1.000  C
  H309     1.0000 0.15340  0.34640  0.81660  Biso   1.000  H
  C681     1.0000 0.12170  0.32136  0.80157  Biso   1.000  C
  C682     1.0000 0.10958  0.29801  0.81210  Biso   1.000  C
  H310     1.0000 0.09370  0.29170  0.79720  Biso   1.000  H
  C683     1.0000 0.12094  0.28393  0.84490  Biso   1.000  C
  H311     1.0000 0.11270  0.26810  0.85200  Biso   1.000  H
  C684     1.0000 0.11040  0.33558  0.76650  Biso   1.000  C
  C685     1.0000 0.19865  0.18231  0.98230  Biso   1.000  C
  C686     1.0000 0.20001  0.15880  0.97590  Biso   1.000  C
  C687     1.0000 0.20136  0.13230  0.97170  Biso   1.000  C
  C688     1.0000 0.20769  0.11717  0.00573  Biso   1.000  C
  H312     1.0000 0.20980  0.12490  0.03150  Biso   1.000  H
  C689     1.0000 0.21084  0.09060  0.00168  Biso   1.000  C
  H313     1.0000 0.21510  0.08040  0.02470  Biso   1.000  H
  C690     1.0000 0.20766  0.07917  0.96358  Biso   1.000  C
  C691     1.0000 0.20133  0.09431  0.92954  Biso   1.000  C
  H314     1.0000 0.19920  0.08660  0.90380  Biso   1.000  H
  C692     1.0000 0.19818  0.12088  0.93359  Biso   1.000  C
  H315     1.0000 0.19390  0.13110  0.91060  Biso   1.000  H
  C693     1.0000 0.21117  0.05161  0.95900  Biso   1.000  C
  C694     1.0000 0.06700  0.39156  0.75694  Biso   1.000  C
  C695     1.0000 0.04955  0.40814  0.78142  Biso   1.000  C
  C696     1.0000 0.06411  0.42989  0.79553  Biso   1.000  C
  H316     1.0000 0.08260  0.43290  0.78770  Biso   1.000  H
  C697     1.0000 0.05133  0.44717  0.82119  Biso   1.000  C
  H317     1.0000 0.06120  0.46190  0.83070  Biso   1.000  H
  C698     1.0000 0.02398  0.44269  0.83274  Biso   1.000  C
  C699     1.0000 0.00942  0.42093  0.81863  Biso   1.000  C
  H318     1.0000 0.99090  0.41790  0.82640  Biso   1.000  H
  C700     1.0000 0.02221  0.40365  0.79297  Biso   1.000  C
  H319     1.0000 0.01240  0.38890  0.78340  Biso   1.000  H
  C701     1.0000 0.01132  0.45980  0.85780  Biso   1.000  C
  C702     1.0000 0.00083  0.47505  0.88250  Biso   1.000  C
  C703     1.0000 0.98878  0.49361  0.91022  Biso   1.000  C
  C704     1.0000 0.95954  0.49437  0.91068  Biso   1.000  C
  H320     1.0000 0.94860  0.48380  0.89290  Biso   1.000  H
  C705     1.0000 0.94648  0.51071  0.93747  Biso   1.000  C
  C706     1.0000 0.96265  0.52631  0.96380  Biso   1.000  C
  H321     1.0000 0.95380  0.53740  0.98190  Biso   1.000  H
  C707     1.0000 0.99189  0.52555  0.96334  Biso   1.000  C
  C708     1.0000 0.00496  0.50921  0.93655  Biso   1.000  C
  H322     1.0000 0.02470  0.50870  0.93620  Biso   1.000  H
  C709     1.0000 0.91590  0.51165  0.93910  Biso   1.000  C
  C710     1.0000 0.89030  0.51176  0.94010  Biso   1.000  C
  C711     1.0000 0.86044  0.51242  0.94150  Biso   1.000  C
  C712     1.0000 0.84278  0.51062  0.90674  Biso   1.000  C
  H323     1.0000 0.85050  0.51010  0.88100  Biso   1.000  H
  C713     1.0000 0.81374  0.50961  0.91010  Biso   1.000  C
  H324     1.0000 0.80180  0.50840  0.88660  Biso   1.000  H
  C714     1.0000 0.80234  0.51041  0.94810  Biso   1.000  C
  C715     1.0000 0.82000  0.51221  0.98285  Biso   1.000  C
  H325     1.0000 0.81230  0.51280  0.00860  Biso   1.000  H
  C716     1.0000 0.84905  0.51322  0.97950  Biso   1.000  C
  H326     1.0000 0.86100  0.51440  0.00300  Biso   1.000  H
  C717     1.0000 0.77141  0.50845  0.94810  Biso   1.000  C
  C718     1.0000 0.00847  0.54013  0.99080  Biso   1.000  C
  C719     1.0000 0.01991  0.55407  0.01390  Biso   1.000  C
  C720     1.0000 0.03432  0.57006  0.04663  Biso   1.000  C
  C721     1.0000 0.06199  0.56589  0.06070  Biso   1.000  C
  H327     1.0000 0.07290  0.55320  0.04860  Biso   1.000  H
  C722     1.0000 0.07348  0.58056  0.09270  Biso   1.000  C
  H328     1.0000 0.09220  0.57770  0.10220  Biso   1.000  H
  C723     1.0000 0.05730  0.59940  0.11060  Biso   1.000  C
  C724     1.0000 0.02963  0.60357  0.09653  Biso   1.000  C
  H329     1.0000 0.01870  0.61630  0.10860  Biso   1.000  H
  C725     1.0000 0.01814  0.58890  0.06450  Biso   1.000  C
  H330     1.0000 0.99940  0.59170  0.05500  Biso   1.000  H
  C726     1.0000 0.06987  0.61365  0.14470  Biso   1.000  C
  C727     1.0000 0.11760  0.33196  0.66020  Biso   1.000  C
  C728     1.0000 0.13167  0.31321  0.63340  Biso   1.000  C
  C729     1.0000 0.11864  0.29140  0.61660  Biso   1.000  C
  H331     1.0000 0.10020  0.28710  0.62330  Biso   1.000  H
  C730     1.0000 0.13289  0.27592  0.58990  Biso   1.000  C
  H332     1.0000 0.12410  0.26120  0.57850  Biso   1.000  H
  C731     1.0000 0.16017  0.28226  0.57994  Biso   1.000  C
  C732     1.0000 0.17319  0.30408  0.59680  Biso   1.000  C
  H333     1.0000 0.19160  0.30840  0.59000  Biso   1.000  H
  C733     1.0000 0.15894  0.31955  0.62350  Biso   1.000  C
  H334     1.0000 0.16770  0.33430  0.63490  Biso   1.000  H
  C734     1.0000 0.17679  0.26751  0.55340  Biso   1.000  C
  C735     1.0000 0.18895  0.25658  0.52850  Biso   1.000  C
  C736     1.0000 0.20566  0.24448  0.49759  Biso   1.000  C
  C737     1.0000 0.20706  0.21775  0.49398  Biso   1.000  C
  H335     1.0000 0.19750  0.20720  0.51190  Biso   1.000  H
  C738     1.0000 0.22262  0.20670  0.46381  Biso   1.000  C
  C739     1.0000 0.23679  0.22237  0.43725  Biso   1.000  C
  H336     1.0000 0.24730  0.21490  0.41680  Biso   1.000  H
  C740     1.0000 0.23539  0.24910  0.44086  Biso   1.000  C
  C741     1.0000 0.21982  0.26015  0.47103  Biso   1.000  C
  H337     1.0000 0.21890  0.27820  0.47350  Biso   1.000  H
  C742     1.0000 0.22504  0.18075  0.46060  Biso   1.000  C
  C743     1.0000 0.22681  0.15564  0.45790  Biso   1.000  C
  C744     1.0000 0.22807  0.12867  0.45680  Biso   1.000  C
  C745     1.0000 0.23160  0.11454  0.49255  Biso   1.000  C
  H338     1.0000 0.23420  0.12310  0.51760  Biso   1.000  H
  C746     1.0000 0.23129  0.08769  0.49130  Biso   1.000  C
  H339     1.0000 0.23370  0.07810  0.51550  Biso   1.000  H
  C747     1.0000 0.22744  0.07498  0.45430  Biso   1.000  C
  C748     1.0000 0.22391  0.08911  0.41858  Biso   1.000  C
  H340     1.0000 0.22130  0.08050  0.39360  Biso   1.000  H
  C749     1.0000 0.22422  0.11596  0.41984  Biso   1.000  C
  H341     1.0000 0.22180  0.12550  0.39570  Biso   1.000  H
  C750     1.0000 0.22368  0.04774  0.45330  Biso   1.000  C
  C751     1.0000 0.25012  0.26592  0.41560  Biso   1.000  C
  C752     1.0000 0.26151  0.28017  0.39270  Biso   1.000  C
  C753     1.0000 0.27606  0.29729  0.36611  Biso   1.000  C
  C754     1.0000 0.30347  0.29183  0.35580  Biso   1.000  C
  H342     1.0000 0.31290  0.27730  0.36700  Biso   1.000  H
  C755     1.0000 0.31696  0.30780  0.32890  Biso   1.000  C
  H343     1.0000 0.33550  0.30410  0.32200  Biso   1.000  H
  C756     1.0000 0.30304  0.32924  0.31236  Biso   1.000  C
  C757     1.0000 0.27562  0.33470  0.32270  Biso   1.000  C
  H344     1.0000 0.26620  0.34920  0.31150  Biso   1.000  H
  C758     1.0000 0.26213  0.31873  0.34950  Biso   1.000  C
  H345     1.0000 0.24360  0.32240  0.35650  Biso   1.000  H
  C759     1.0000 0.31720  0.34552  0.28340  Biso   1.000  C
  C760     1.0000 0.66538  0.49373  0.95460  Biso   1.000  C
  C761     1.0000 0.63593  0.48816  0.95680  Biso   1.000  C
  C762     1.0000 0.62441  0.47947  0.99234  Biso   1.000  C
  H346     1.0000 0.63610  0.47690  0.01580  Biso   1.000  H
  C763     1.0000 0.59567  0.47457  0.99311  Biso   1.000  C
  H347     1.0000 0.58790  0.46870  0.01710  Biso   1.000  H
  C764     1.0000 0.57844  0.47835  0.95840  Biso   1.000  C
  C765     1.0000 0.58996  0.48704  0.92285  Biso   1.000  C
  H348     1.0000 0.57830  0.48960  0.89940  Biso   1.000  H
  C766     1.0000 0.61870  0.49194  0.92208  Biso   1.000  C
  H349     1.0000 0.62650  0.49780  0.89810  Biso   1.000  H
  C767     1.0000 0.54798  0.47649  0.96130  Biso   1.000  C
  C768     1.0000 0.52394  0.47560  0.96130  Biso   1.000  C
  C769     1.0000 0.49266  0.47671  0.96000  Biso   1.000  C
  C770     1.0000 0.47669  0.46275  0.98666  Biso   1.000  C
  H350     1.0000 0.48560  0.45190  0.00610  Biso   1.000  H
  C771     1.0000 0.44748  0.46488  0.98453  Biso   1.000  C
  C772     1.0000 0.43425  0.48096  0.95575  Biso   1.000  C
  H351     1.0000 0.41450  0.48240  0.95430  Biso   1.000  H
  C773     1.0000 0.45022  0.49492  0.92909  Biso   1.000  C
  C774     1.0000 0.47943  0.49280  0.93122  Biso   1.000  C
  H352     1.0000 0.49020  0.50220  0.91320  Biso   1.000  H
  C775     1.0000 0.43246  0.45172  0.01390  Biso   1.000  C
  C776     1.0000 0.41906  0.44164  0.03860  Biso   1.000  C
  C777     1.0000 0.40313  0.42837  0.07048  Biso   1.000  C
  C778     1.0000 0.41470  0.40683  0.09017  Biso   1.000  C
  H353     1.0000 0.43210  0.40020  0.08250  Biso   1.000  H
  C779     1.0000 0.40054  0.39509  0.12120  Biso   1.000  C
  H354     1.0000 0.40840  0.38050  0.13450  Biso   1.000  H
  C780     1.0000 0.37481  0.40489  0.13253  Biso   1.000  C
  C781     1.0000 0.36325  0.42643  0.11283  Biso   1.000  C
  H355     1.0000 0.34590  0.43310  0.12050  Biso   1.000  H
  C782     1.0000 0.37741  0.43817  0.08181  Biso   1.000  C
  H356     1.0000 0.36960  0.45270  0.06850  Biso   1.000  H
  C783     1.0000 0.35980  0.39332  0.16654  Biso   1.000  C
  C784     1.0000 0.43571  0.51275  0.90160  Biso   1.000  C
  C785     1.0000 0.42425  0.52855  0.87970  Biso   1.000  C
  C786     1.0000 0.40875  0.54614  0.85402  Biso   1.000  C
  C787     1.0000 0.38064  0.54207  0.84213  Biso   1.000  C
  H357     1.0000 0.37100  0.52760  0.85180  Biso   1.000  H
  C788     1.0000 0.36670  0.55940  0.81598  Biso   1.000  C
  H358     1.0000 0.34770  0.55660  0.80790  Biso   1.000  H
  C789     1.0000 0.38089  0.58081  0.80172  Biso   1.000  C
  C790     1.0000 0.40901  0.58488  0.81361  Biso   1.000  C
  H359     1.0000 0.41860  0.59940  0.80400  Biso   1.000  H
  C791     1.0000 0.42294  0.56755  0.83976  Biso   1.000  C
  H360     1.0000 0.44200  0.57030  0.84780  Biso   1.000  H
  C792     1.0000 0.36350  0.59782  0.77660  Biso   1.000  C
  Cu37     1.0000 0.85992  0.14621  0.72791  Biso   1.000  Cu
  Cu38     1.0000 0.81788  0.11315  0.72343  Biso   1.000  Cu
  Cu39     1.0000 0.61164  0.12363  0.20855  Biso   1.000  Cu
  Cu40     1.0000 0.56786  0.15469  0.20432  Biso   1.000  Cu
  Cu41     1.0000 0.21612  0.99693  0.41485  Biso   1.000  Cu
  Cu42     1.0000 0.22171  0.99881  0.49455  Biso   1.000  Cu
  O145     1.0000 0.83333  0.16706  0.69318  Biso   1.000  O
  O146     1.0000 0.80068  0.13636  0.68346  Biso   1.000  O
  O147     1.0000 0.87747  0.88078  0.26277  Biso   1.000  O
  O148     1.0000 0.83918  0.90666  0.26226  Biso   1.000  O
  O149     1.0000 0.84198  0.16098  0.77387  Biso   1.000  O
  O150     1.0000 0.80404  0.13636  0.76537  Biso   1.000  O
  O151     1.0000 0.87259  0.12853  0.68151  Biso   1.000  O
  O152     1.0000 0.83957  0.09698  0.68106  Biso   1.000  O
  O153     1.0000 0.62288  0.14432  0.25619  Biso   1.000  O
  O154     1.0000 0.58634  0.17264  0.25020  Biso   1.000  O
  O155     1.0000 0.59399  0.89200  0.65984  Biso   1.000  O
  O156     1.0000 0.55517  0.86796  0.65976  Biso   1.000  O
  O157     1.0000 0.58816  0.10272  0.24149  Biso   1.000  O
  O158     1.0000 0.55171  0.12981  0.24186  Biso   1.000  O
  O159     1.0000 0.62839  0.14904  0.17471  Biso   1.000  O
  O160     1.0000 0.59146  0.17476  0.16683  Biso   1.000  O
  O161     1.0000 0.25582  0.99339  0.41616  Biso   1.000  O
  O162     1.0000 0.26130  0.99198  0.48422  Biso   1.000  O
  O163     1.0000 0.17620  0.00152  0.42228  Biso   1.000  O
  O164     1.0000 0.18086  0.00659  0.48888  Biso   1.000  O
  O165     1.0000 0.71128  0.45925  0.42529  Biso   1.000  O
  O166     1.0000 0.71385  0.46213  0.49136  Biso   1.000  O
  O167     1.0000 0.72039  0.46523  0.92013  Biso   1.000  O
  O168     1.0000 0.72853  0.46463  0.98695  Biso   1.000  O
  C793     1.0000 0.81071  0.15999  0.67710  Biso   1.000  C
  C794     1.0000 0.79239  0.17658  0.65342  Biso   1.000  C
  C795     1.0000 0.79959  0.20251  0.65034  Biso   1.000  C
  H361     1.0000 0.81560  0.20890  0.66500  Biso   1.000  H
  C796     1.0000 0.78319  0.21894  0.62566  Biso   1.000  C
  H362     1.0000 0.78810  0.23650  0.62360  Biso   1.000  H
  C797     1.0000 0.75958  0.20942  0.60404  Biso   1.000  C
  C798     1.0000 0.75238  0.18349  0.60711  Biso   1.000  C
  H363     1.0000 0.73640  0.17710  0.59250  Biso   1.000  H
  C799     1.0000 0.76878  0.16706  0.63180  Biso   1.000  C
  H364     1.0000 0.76390  0.14950  0.63390  Biso   1.000  H
  C800     1.0000 0.74290  0.22617  0.57480  Biso   1.000  C
  C801     1.0000 0.73027  0.23822  0.54960  Biso   1.000  C
  C802     1.0000 0.71412  0.25107  0.51949  Biso   1.000  C
  C803     1.0000 0.69875  0.23641  0.49091  Biso   1.000  C
  H365     1.0000 0.69920  0.21830  0.49240  Biso   1.000  H
  C804     1.0000 0.68269  0.24856  0.46016  Biso   1.000  C
  C805     1.0000 0.68201  0.27538  0.45799  Biso   1.000  C
  H366     1.0000 0.67110  0.28360  0.43720  Biso   1.000  H
  C806     1.0000 0.69738  0.29004  0.48657  Biso   1.000  C
  C807     1.0000 0.71344  0.27789  0.51732  Biso   1.000  C
  H367     1.0000 0.72380  0.28780  0.53660  Biso   1.000  H
  C808     1.0000 0.66940  0.23399  0.42810  Biso   1.000  C
  C809     1.0000 0.65770  0.22130  0.39820  Biso   1.000  C
  C810     1.0000 0.64444  0.20680  0.36704  Biso   1.000  C
  C811     1.0000 0.65656  0.18345  0.35650  Biso   1.000  C
  H368     1.0000 0.67240  0.17720  0.37150  Biso   1.000  H
  C812     1.0000 0.64519  0.16937  0.32370  Biso   1.000  C
  H369     1.0000 0.65340  0.15360  0.31660  Biso   1.000  H
  C813     1.0000 0.62170  0.17864  0.30157  Biso   1.000  C
  C814     1.0000 0.60958  0.20199  0.31210  Biso   1.000  C
  H370     1.0000 0.59370  0.20830  0.29720  Biso   1.000  H
  C815     1.0000 0.62094  0.21607  0.34490  Biso   1.000  C
  H371     1.0000 0.61270  0.23190  0.35200  Biso   1.000  H
  C816     1.0000 0.61040  0.16442  0.26650  Biso   1.000  C
  C817     1.0000 0.69865  0.31769  0.48230  Biso   1.000  C
  C818     1.0000 0.70001  0.34120  0.47590  Biso   1.000  C
  C819     1.0000 0.70136  0.36770  0.47170  Biso   1.000  C
  C820     1.0000 0.70769  0.38283  0.50573  Biso   1.000  C
  H372     1.0000 0.70980  0.37510  0.53150  Biso   1.000  H
  C821     1.0000 0.71084  0.40940  0.50168  Biso   1.000  C
  H373     1.0000 0.71510  0.41960  0.52470  Biso   1.000  H
  C822     1.0000 0.70766  0.42083  0.46358  Biso   1.000  C
  C823     1.0000 0.70133  0.40569  0.42954  Biso   1.000  C
  H374     1.0000 0.69920  0.41340  0.40380  Biso   1.000  H
  C824     1.0000 0.69818  0.37912  0.43359  Biso   1.000  C
  H375     1.0000 0.69390  0.36890  0.41060  Biso   1.000  H
  C825     1.0000 0.71117  0.44839  0.45900  Biso   1.000  C
  C826     1.0000 0.56700  0.10844  0.25694  Biso   1.000  C
  C827     1.0000 0.54955  0.09186  0.28142  Biso   1.000  C
  C828     1.0000 0.56411  0.07011  0.29553  Biso   1.000  C
  H376     1.0000 0.58260  0.06710  0.28770  Biso   1.000  H
  C829     1.0000 0.55133  0.05283  0.32119  Biso   1.000  C
  H377     1.0000 0.56120  0.03810  0.33070  Biso   1.000  H
  C830     1.0000 0.52398  0.05731  0.33274  Biso   1.000  C
  C831     1.0000 0.50942  0.07907  0.31863  Biso   1.000  C
  H378     1.0000 0.49090  0.08210  0.32640  Biso   1.000  H
  C832     1.0000 0.52221  0.09635  0.29297  Biso   1.000  C
  H379     1.0000 0.51240  0.11110  0.28340  Biso   1.000  H
  C833     1.0000 0.51132  0.04020  0.35780  Biso   1.000  C
  C834     1.0000 0.50083  0.02495  0.38250  Biso   1.000  C
  C835     1.0000 0.48878  0.00639  0.41022  Biso   1.000  C
  C836     1.0000 0.45954  0.00563  0.41068  Biso   1.000  C
  H380     1.0000 0.44860  0.01620  0.39290  Biso   1.000  H
  C837     1.0000 0.44648  0.98929  0.43747  Biso   1.000  C
  C838     1.0000 0.46265  0.97369  0.46380  Biso   1.000  C
  H381     1.0000 0.45380  0.96260  0.48190  Biso   1.000  H
  C839     1.0000 0.49189  0.97445  0.46334  Biso   1.000  C
  C840     1.0000 0.50496  0.99079  0.43655  Biso   1.000  C
  H382     1.0000 0.52470  0.99130  0.43620  Biso   1.000  H
  C841     1.0000 0.41590  0.98835  0.43910  Biso   1.000  C
  C842     1.0000 0.39030  0.98824  0.44010  Biso   1.000  C
  C843     1.0000 0.36044  0.98758  0.44150  Biso   1.000  C
  C844     1.0000 0.34278  0.98938  0.40674  Biso   1.000  C
  H383     1.0000 0.35050  0.98990  0.38100  Biso   1.000  H
  C845     1.0000 0.31374  0.99039  0.41010  Biso   1.000  C
  H384     1.0000 0.30180  0.99160  0.38660  Biso   1.000  H
  C846     1.0000 0.30234  0.98959  0.44810  Biso   1.000  C
  C847     1.0000 0.32000  0.98779  0.48285  Biso   1.000  C
  H385     1.0000 0.31230  0.98720  0.50860  Biso   1.000  H
  C848     1.0000 0.34905  0.98678  0.47950  Biso   1.000  C
  H386     1.0000 0.36100  0.98560  0.50300  Biso   1.000  H
  C849     1.0000 0.27141  0.99155  0.44810  Biso   1.000  C
  C850     1.0000 0.50847  0.95987  0.49080  Biso   1.000  C
  C851     1.0000 0.51991  0.94593  0.51390  Biso   1.000  C
  C852     1.0000 0.53432  0.92994  0.54663  Biso   1.000  C
  C853     1.0000 0.56199  0.93411  0.56070  Biso   1.000  C
  H387     1.0000 0.57290  0.94680  0.54860  Biso   1.000  H
  C854     1.0000 0.57348  0.91944  0.59270  Biso   1.000  C
  H388     1.0000 0.59220  0.92230  0.60220  Biso   1.000  H
  C855     1.0000 0.55730  0.90060  0.61060  Biso   1.000  C
  C856     1.0000 0.52963  0.89643  0.59653  Biso   1.000  C
  H389     1.0000 0.51870  0.88370  0.60860  Biso   1.000  H
  C857     1.0000 0.51814  0.91110  0.56450  Biso   1.000  C
  H390     1.0000 0.49940  0.90830  0.55500  Biso   1.000  H
  C858     1.0000 0.56987  0.88635  0.64470  Biso   1.000  C
  C859     1.0000 0.61760  0.16804  0.16020  Biso   1.000  C
  C860     1.0000 0.63167  0.18679  0.13340  Biso   1.000  C
  C861     1.0000 0.61864  0.20860  0.11660  Biso   1.000  C
  H391     1.0000 0.60020  0.21290  0.12330  Biso   1.000  H
  C862     1.0000 0.63289  0.22408  0.08990  Biso   1.000  C
  H392     1.0000 0.62410  0.23880  0.07850  Biso   1.000  H
  C863     1.0000 0.66017  0.21774  0.07994  Biso   1.000  C
  C864     1.0000 0.67319  0.19592  0.09680  Biso   1.000  C
  H393     1.0000 0.69160  0.19160  0.09000  Biso   1.000  H
  C865     1.0000 0.65894  0.18045  0.12350  Biso   1.000  C
  H394     1.0000 0.66770  0.16570  0.13490  Biso   1.000  H
  C866     1.0000 0.67679  0.23249  0.05340  Biso   1.000  C
  C867     1.0000 0.68895  0.24342  0.02850  Biso   1.000  C
  C868     1.0000 0.70566  0.25552  0.99759  Biso   1.000  C
  C869     1.0000 0.70706  0.28225  0.99398  Biso   1.000  C
  H395     1.0000 0.69750  0.29280  0.01190  Biso   1.000  H
  C870     1.0000 0.72262  0.29330  0.96381  Biso   1.000  C
  C871     1.0000 0.73679  0.27763  0.93725  Biso   1.000  C
  H396     1.0000 0.74730  0.28510  0.91680  Biso   1.000  H
  C872     1.0000 0.73539  0.25090  0.94086  Biso   1.000  C
  C873     1.0000 0.71982  0.23985  0.97103  Biso   1.000  C
  H397     1.0000 0.71890  0.22180  0.97350  Biso   1.000  H
  C874     1.0000 0.72504  0.31925  0.96060  Biso   1.000  C
  C875     1.0000 0.72681  0.34436  0.95790  Biso   1.000  C
  C876     1.0000 0.72807  0.37133  0.95680  Biso   1.000  C
  C877     1.0000 0.73160  0.38546  0.99255  Biso   1.000  C
  H398     1.0000 0.73420  0.37690  0.01760  Biso   1.000  H
  C878     1.0000 0.73129  0.41231  0.99130  Biso   1.000  C
  H399     1.0000 0.73370  0.42190  0.01550  Biso   1.000  H
  C879     1.0000 0.72744  0.42502  0.95430  Biso   1.000  C
  C880     1.0000 0.72391  0.41089  0.91858  Biso   1.000  C
  H400     1.0000 0.72130  0.41950  0.89360  Biso   1.000  H
  C881     1.0000 0.72422  0.38404  0.91984  Biso   1.000  C
  H401     1.0000 0.72180  0.37450  0.89570  Biso   1.000  H
  C882     1.0000 0.72368  0.45226  0.95330  Biso   1.000  C
  C883     1.0000 0.75012  0.23408  0.91560  Biso   1.000  C
  C884     1.0000 0.76151  0.21983  0.89270  Biso   1.000  C
  C885     1.0000 0.77606  0.20271  0.86611  Biso   1.000  C
  C886     1.0000 0.80347  0.20817  0.85580  Biso   1.000  C
  H402     1.0000 0.81290  0.22270  0.86700  Biso   1.000  H
  C887     1.0000 0.81696  0.19220  0.82890  Biso   1.000  C
  H403     1.0000 0.83550  0.19590  0.82200  Biso   1.000  H
  C888     1.0000 0.80304  0.17076  0.81236  Biso   1.000  C
  C889     1.0000 0.77562  0.16530  0.82270  Biso   1.000  C
  H404     1.0000 0.76620  0.15080  0.81150  Biso   1.000  H
  C890     1.0000 0.76213  0.18127  0.84950  Biso   1.000  C
  H405     1.0000 0.74360  0.17760  0.85650  Biso   1.000  H
  C891     1.0000 0.81720  0.15448  0.78340  Biso   1.000  C
  C892     1.0000 0.16538  0.00627  0.45460  Biso   1.000  C
  C893     1.0000 0.13593  0.01184  0.45680  Biso   1.000  C
  C894     1.0000 0.12441  0.02053  0.49234  Biso   1.000  C
  H406     1.0000 0.13610  0.02310  0.51580  Biso   1.000  H
  C895     1.0000 0.09567  0.02543  0.49311  Biso   1.000  C
  H407     1.0000 0.08790  0.03130  0.51710  Biso   1.000  H
  C896     1.0000 0.07844  0.02165  0.45840  Biso   1.000  C
  C897     1.0000 0.08996  0.01296  0.42285  Biso   1.000  C
  H408     1.0000 0.07830  0.01040  0.39940  Biso   1.000  H
  C898     1.0000 0.11870  0.00806  0.42208  Biso   1.000  C
  H409     1.0000 0.12650  0.00220  0.39810  Biso   1.000  H
  C899     1.0000 0.04798  0.02351  0.46130  Biso   1.000  C
  C900     1.0000 0.02394  0.02440  0.46130  Biso   1.000  C
  C901     1.0000 0.99266  0.02329  0.46000  Biso   1.000  C
  C902     1.0000 0.97669  0.03725  0.48666  Biso   1.000  C
  H410     1.0000 0.98560  0.04810  0.50610  Biso   1.000  H
  C903     1.0000 0.94748  0.03512  0.48453  Biso   1.000  C
  C904     1.0000 0.93425  0.01904  0.45575  Biso   1.000  C
  H411     1.0000 0.91450  0.01760  0.45430  Biso   1.000  H
  C905     1.0000 0.95022  0.00508  0.42909  Biso   1.000  C
  C906     1.0000 0.97943  0.00720  0.43122  Biso   1.000  C
  H412     1.0000 0.99020  0.99780  0.41320  Biso   1.000  H
  C907     1.0000 0.93246  0.04828  0.51390  Biso   1.000  C
  C908     1.0000 0.91906  0.05836  0.53860  Biso   1.000  C
  C909     1.0000 0.90313  0.07163  0.57048  Biso   1.000  C
  C910     1.0000 0.91470  0.09317  0.59017  Biso   1.000  C
  H413     1.0000 0.93210  0.09980  0.58250  Biso   1.000  H
  C911     1.0000 0.90054  0.10491  0.62120  Biso   1.000  C
  H414     1.0000 0.90840  0.11950  0.63450  Biso   1.000  H
  C912     1.0000 0.87481  0.09511  0.63253  Biso   1.000  C
  C913     1.0000 0.86325  0.07357  0.61283  Biso   1.000  C
  H415     1.0000 0.84590  0.06690  0.62050  Biso   1.000  H
  C914     1.0000 0.87741  0.06183  0.58181  Biso   1.000  C
  H416     1.0000 0.86960  0.04730  0.56850  Biso   1.000  H
  C915     1.0000 0.85980  0.10668  0.66654  Biso   1.000  C
  C916     1.0000 0.93571  0.98725  0.40160  Biso   1.000  C
  C917     1.0000 0.92425  0.97145  0.37970  Biso   1.000  C
  C918     1.0000 0.90875  0.95386  0.35402  Biso   1.000  C
  C919     1.0000 0.88064  0.95793  0.34213  Biso   1.000  C
  H417     1.0000 0.87100  0.97240  0.35180  Biso   1.000  H
  C920     1.0000 0.86670  0.94060  0.31598  Biso   1.000  C
  H418     1.0000 0.84770  0.94340  0.30790  Biso   1.000  H
  C921     1.0000 0.88089  0.91919  0.30172  Biso   1.000  C
  C922     1.0000 0.90901  0.91512  0.31361  Biso   1.000  C
  H419     1.0000 0.91860  0.90060  0.30400  Biso   1.000  H
  C923     1.0000 0.92294  0.93245  0.33976  Biso   1.000  C
  H420     1.0000 0.94200  0.92970  0.34780  Biso   1.000  H
  C924     1.0000 0.86350  0.90218  0.27660  Biso   1.000  C
  Cu43     1.0000 0.35992  0.64621  0.72791  Biso   1.000  Cu
  Cu44     1.0000 0.31788  0.61315  0.72343  Biso   1.000  Cu
  Cu45     1.0000 0.11164  0.62363  0.20855  Biso   1.000  Cu
  Cu46     1.0000 0.06786  0.65469  0.20432  Biso   1.000  Cu
  Cu47     1.0000 0.71612  0.49693  0.41485  Biso   1.000  Cu
  Cu48     1.0000 0.72171  0.49881  0.49455  Biso   1.000  Cu
  O169     1.0000 0.33333  0.66706  0.69318  Biso   1.000  O
  O170     1.0000 0.30068  0.63636  0.68346  Biso   1.000  O
  O171     1.0000 0.37747  0.38078  0.26277  Biso   1.000  O
  O172     1.0000 0.33918  0.40666  0.26226  Biso   1.000  O
  O173     1.0000 0.34198  0.66098  0.77387  Biso   1.000  O
  O174     1.0000 0.30404  0.63636  0.76537  Biso   1.000  O
  O175     1.0000 0.37259  0.62853  0.68151  Biso   1.000  O
  O176     1.0000 0.33957  0.59698  0.68106  Biso   1.000  O
  O177     1.0000 0.12288  0.64432  0.25619  Biso   1.000  O
  O178     1.0000 0.08634  0.67264  0.25020  Biso   1.000  O
  O179     1.0000 0.09399  0.39200  0.65984  Biso   1.000  O
  O180     1.0000 0.05517  0.36796  0.65976  Biso   1.000  O
  O181     1.0000 0.08816  0.60272  0.24149  Biso   1.000  O
  O182     1.0000 0.05171  0.62981  0.24186  Biso   1.000  O
  O183     1.0000 0.12839  0.64904  0.17471  Biso   1.000  O
  O184     1.0000 0.09146  0.67476  0.16683  Biso   1.000  O
  O185     1.0000 0.75582  0.49339  0.41616  Biso   1.000  O
  O186     1.0000 0.76130  0.49198  0.48422  Biso   1.000  O
  O187     1.0000 0.67620  0.50152  0.42228  Biso   1.000  O
  O188     1.0000 0.68086  0.50659  0.48888  Biso   1.000  O
  O189     1.0000 0.21128  0.95925  0.42529  Biso   1.000  O
  O190     1.0000 0.21385  0.96213  0.49136  Biso   1.000  O
  O191     1.0000 0.22039  0.96523  0.92013  Biso   1.000  O
  O192     1.0000 0.22853  0.96463  0.98695  Biso   1.000  O
  C925     1.0000 0.31071  0.65999  0.67710  Biso   1.000  C
  C926     1.0000 0.29239  0.67658  0.65342  Biso   1.000  C
  C927     1.0000 0.29959  0.70251  0.65034  Biso   1.000  C
  H421     1.0000 0.31560  0.70890  0.66500  Biso   1.000  H
  C928     1.0000 0.28319  0.71894  0.62566  Biso   1.000  C
  H422     1.0000 0.28810  0.73650  0.62360  Biso   1.000  H
  C929     1.0000 0.25958  0.70942  0.60404  Biso   1.000  C
  C930     1.0000 0.25238  0.68349  0.60711  Biso   1.000  C
  H423     1.0000 0.23640  0.67710  0.59250  Biso   1.000  H
  C931     1.0000 0.26878  0.66706  0.63180  Biso   1.000  C
  H424     1.0000 0.26390  0.64950  0.63390  Biso   1.000  H
  C932     1.0000 0.24290  0.72617  0.57480  Biso   1.000  C
  C933     1.0000 0.23027  0.73822  0.54960  Biso   1.000  C
  C934     1.0000 0.21412  0.75107  0.51949  Biso   1.000  C
  C935     1.0000 0.19875  0.73641  0.49091  Biso   1.000  C
  H425     1.0000 0.19920  0.71830  0.49240  Biso   1.000  H
  C936     1.0000 0.18269  0.74856  0.46016  Biso   1.000  C
  C937     1.0000 0.18201  0.77538  0.45799  Biso   1.000  C
  H426     1.0000 0.17110  0.78360  0.43720  Biso   1.000  H
  C938     1.0000 0.19738  0.79004  0.48657  Biso   1.000  C
  C939     1.0000 0.21344  0.77789  0.51732  Biso   1.000  C
  H427     1.0000 0.22380  0.78780  0.53660  Biso   1.000  H
  C940     1.0000 0.16940  0.73399  0.42810  Biso   1.000  C
  C941     1.0000 0.15770  0.72130  0.39820  Biso   1.000  C
  C942     1.0000 0.14444  0.70680  0.36704  Biso   1.000  C
  C943     1.0000 0.15656  0.68345  0.35650  Biso   1.000  C
  H428     1.0000 0.17240  0.67720  0.37150  Biso   1.000  H
  C944     1.0000 0.14519  0.66937  0.32370  Biso   1.000  C
  H429     1.0000 0.15340  0.65360  0.31660  Biso   1.000  H
  C945     1.0000 0.12170  0.67864  0.30157  Biso   1.000  C
  C946     1.0000 0.10958  0.70199  0.31210  Biso   1.000  C
  H430     1.0000 0.09370  0.70830  0.29720  Biso   1.000  H
  C947     1.0000 0.12094  0.71607  0.34490  Biso   1.000  C
  H431     1.0000 0.11270  0.73190  0.35200  Biso   1.000  H
  C948     1.0000 0.11040  0.66442  0.26650  Biso   1.000  C
  C949     1.0000 0.19865  0.81769  0.48230  Biso   1.000  C
  C950     1.0000 0.20001  0.84120  0.47590  Biso   1.000  C
  C951     1.0000 0.20136  0.86770  0.47170  Biso   1.000  C
  C952     1.0000 0.20769  0.88283  0.50573  Biso   1.000  C
  H432     1.0000 0.20980  0.87510  0.53150  Biso   1.000  H
  C953     1.0000 0.21084  0.90940  0.50168  Biso   1.000  C
  H433     1.0000 0.21510  0.91960  0.52470  Biso   1.000  H
  C954     1.0000 0.20766  0.92083  0.46358  Biso   1.000  C
  C955     1.0000 0.20133  0.90569  0.42954  Biso   1.000  C
  H434     1.0000 0.19920  0.91340  0.40380  Biso   1.000  H
  C956     1.0000 0.19818  0.87912  0.43359  Biso   1.000  C
  H435     1.0000 0.19390  0.86890  0.41060  Biso   1.000  H
  C957     1.0000 0.21117  0.94839  0.45900  Biso   1.000  C
  C958     1.0000 0.06700  0.60844  0.25694  Biso   1.000  C
  C959     1.0000 0.04955  0.59186  0.28142  Biso   1.000  C
  C960     1.0000 0.06411  0.57011  0.29553  Biso   1.000  C
  H436     1.0000 0.08260  0.56710  0.28770  Biso   1.000  H
  C961     1.0000 0.05133  0.55283  0.32119  Biso   1.000  C
  H437     1.0000 0.06120  0.53810  0.33070  Biso   1.000  H
  C962     1.0000 0.02398  0.55731  0.33274  Biso   1.000  C
  C963     1.0000 0.00942  0.57907  0.31863  Biso   1.000  C
  H438     1.0000 0.99090  0.58210  0.32640  Biso   1.000  H
  C964     1.0000 0.02221  0.59635  0.29297  Biso   1.000  C
  H439     1.0000 0.01240  0.61110  0.28340  Biso   1.000  H
  C965     1.0000 0.01132  0.54020  0.35780  Biso   1.000  C
  C966     1.0000 0.00083  0.52495  0.38250  Biso   1.000  C
  C967     1.0000 0.98878  0.50639  0.41022  Biso   1.000  C
  C968     1.0000 0.95954  0.50563  0.41068  Biso   1.000  C
  H440     1.0000 0.94860  0.51620  0.39290  Biso   1.000  H
  C969     1.0000 0.94648  0.48929  0.43747  Biso   1.000  C
  C970     1.0000 0.96265  0.47369  0.46380  Biso   1.000  C
  H441     1.0000 0.95380  0.46260  0.48190  Biso   1.000  H
  C971     1.0000 0.99189  0.47445  0.46334  Biso   1.000  C
  C972     1.0000 0.00496  0.49079  0.43655  Biso   1.000  C
  H442     1.0000 0.02470  0.49130  0.43620  Biso   1.000  H
  C973     1.0000 0.91590  0.48835  0.43910  Biso   1.000  C
  C974     1.0000 0.89030  0.48824  0.44010  Biso   1.000  C
  C975     1.0000 0.86044  0.48758  0.44150  Biso   1.000  C
  C976     1.0000 0.84278  0.48938  0.40674  Biso   1.000  C
  H443     1.0000 0.85050  0.48990  0.38100  Biso   1.000  H
  C977     1.0000 0.81374  0.49039  0.41010  Biso   1.000  C
  H444     1.0000 0.80180  0.49160  0.38660  Biso   1.000  H
  C978     1.0000 0.80234  0.48959  0.44810  Biso   1.000  C
  C979     1.0000 0.82000  0.48779  0.48285  Biso   1.000  C
  H445     1.0000 0.81230  0.48720  0.50860  Biso   1.000  H
  C980     1.0000 0.84905  0.48678  0.47950  Biso   1.000  C
  H446     1.0000 0.86100  0.48560  0.50300  Biso   1.000  H
  C981     1.0000 0.77141  0.49155  0.44810  Biso   1.000  C
  C982     1.0000 0.00847  0.45987  0.49080  Biso   1.000  C
  C983     1.0000 0.01991  0.44593  0.51390  Biso   1.000  C
  C984     1.0000 0.03432  0.42994  0.54663  Biso   1.000  C
  C985     1.0000 0.06199  0.43411  0.56070  Biso   1.000  C
  H447     1.0000 0.07290  0.44680  0.54860  Biso   1.000  H
  C986     1.0000 0.07348  0.41944  0.59270  Biso   1.000  C
  H448     1.0000 0.09220  0.42230  0.60220  Biso   1.000  H
  C987     1.0000 0.05730  0.40060  0.61060  Biso   1.000  C
  C988     1.0000 0.02963  0.39643  0.59653  Biso   1.000  C
  H449     1.0000 0.01870  0.38370  0.60860  Biso   1.000  H
  C989     1.0000 0.01814  0.41110  0.56450  Biso   1.000  C
  H450     1.0000 0.99940  0.40830  0.55500  Biso   1.000  H
  C990     1.0000 0.06987  0.38635  0.64470  Biso   1.000  C
  C991     1.0000 0.11760  0.66804  0.16020  Biso   1.000  C
  C992     1.0000 0.13167  0.68679  0.13340  Biso   1.000  C
  C993     1.0000 0.11864  0.70860  0.11660  Biso   1.000  C
  H451     1.0000 0.10020  0.71290  0.12330  Biso   1.000  H
  C994     1.0000 0.13289  0.72408  0.08990  Biso   1.000  C
  H452     1.0000 0.12410  0.73880  0.07850  Biso   1.000  H
  C995     1.0000 0.16017  0.71774  0.07994  Biso   1.000  C
  C996     1.0000 0.17319  0.69592  0.09680  Biso   1.000  C
  H453     1.0000 0.19160  0.69160  0.09000  Biso   1.000  H
  C997     1.0000 0.15894  0.68045  0.12350  Biso   1.000  C
  H454     1.0000 0.16770  0.66570  0.13490  Biso   1.000  H
  C998     1.0000 0.17679  0.73249  0.05340  Biso   1.000  C
  C999     1.0000 0.18895  0.74342  0.02850  Biso   1.000  C
  C1000    1.0000 0.20566  0.75552  0.99759  Biso   1.000  C
  C1001    1.0000 0.20706  0.78225  0.99398  Biso   1.000  C
  H455     1.0000 0.19750  0.79280  0.01190  Biso   1.000  H
  C1002    1.0000 0.22262  0.79330  0.96381  Biso   1.000  C
  C1003    1.0000 0.23679  0.77763  0.93725  Biso   1.000  C
  H456     1.0000 0.24730  0.78510  0.91680  Biso   1.000  H
  C1004    1.0000 0.23539  0.75090  0.94086  Biso   1.000  C
  C1005    1.0000 0.21982  0.73985  0.97103  Biso   1.000  C
  H457     1.0000 0.21890  0.72180  0.97350  Biso   1.000  H
  C1006    1.0000 0.22504  0.81925  0.96060  Biso   1.000  C
  C1007    1.0000 0.22681  0.84436  0.95790  Biso   1.000  C
  C1008    1.0000 0.22807  0.87133  0.95680  Biso   1.000  C
  C1009    1.0000 0.23160  0.88546  0.99255  Biso   1.000  C
  H458     1.0000 0.23420  0.87690  0.01760  Biso   1.000  H
  C1010    1.0000 0.23129  0.91231  0.99130  Biso   1.000  C
  H459     1.0000 0.23370  0.92190  0.01550  Biso   1.000  H
  C1011    1.0000 0.22744  0.92502  0.95430  Biso   1.000  C
  C1012    1.0000 0.22391  0.91089  0.91858  Biso   1.000  C
  H460     1.0000 0.22130  0.91950  0.89360  Biso   1.000  H
  C1013    1.0000 0.22422  0.88404  0.91984  Biso   1.000  C
  H461     1.0000 0.22180  0.87450  0.89570  Biso   1.000  H
  C1014    1.0000 0.22368  0.95226  0.95330  Biso   1.000  C
  C1015    1.0000 0.25012  0.73408  0.91560  Biso   1.000  C
  C1016    1.0000 0.26151  0.71983  0.89270  Biso   1.000  C
  C1017    1.0000 0.27606  0.70271  0.86611  Biso   1.000  C
  C1018    1.0000 0.30347  0.70817  0.85580  Biso   1.000  C
  H462     1.0000 0.31290  0.72270  0.86700  Biso   1.000  H
  C1019    1.0000 0.31696  0.69220  0.82890  Biso   1.000  C
  H463     1.0000 0.33550  0.69590  0.82200  Biso   1.000  H
  C1020    1.0000 0.30304  0.67076  0.81236  Biso   1.000  C
  C1021    1.0000 0.27562  0.66530  0.82270  Biso   1.000  C
  H464     1.0000 0.26620  0.65080  0.81150  Biso   1.000  H
  C1022    1.0000 0.26213  0.68127  0.84950  Biso   1.000  C
  H465     1.0000 0.24360  0.67760  0.85650  Biso   1.000  H
  C1023    1.0000 0.31720  0.65448  0.78340  Biso   1.000  C
  C1024    1.0000 0.66538  0.50627  0.45460  Biso   1.000  C
  C1025    1.0000 0.63593  0.51184  0.45680  Biso   1.000  C
  C1026    1.0000 0.62441  0.52053  0.49234  Biso   1.000  C
  H466     1.0000 0.63610  0.52310  0.51580  Biso   1.000  H
  C1027    1.0000 0.59567  0.52543  0.49311  Biso   1.000  C
  H467     1.0000 0.58790  0.53130  0.51710  Biso   1.000  H
  C1028    1.0000 0.57844  0.52165  0.45840  Biso   1.000  C
  C1029    1.0000 0.58996  0.51296  0.42285  Biso   1.000  C
  H468     1.0000 0.57830  0.51040  0.39940  Biso   1.000  H
  C1030    1.0000 0.61870  0.50806  0.42208  Biso   1.000  C
  H469     1.0000 0.62650  0.50220  0.39810  Biso   1.000  H
  C1031    1.0000 0.54798  0.52351  0.46130  Biso   1.000  C
  C1032    1.0000 0.52394  0.52440  0.46130  Biso   1.000  C
  C1033    1.0000 0.49266  0.52329  0.46000  Biso   1.000  C
  C1034    1.0000 0.47669  0.53725  0.48666  Biso   1.000  C
  H470     1.0000 0.48560  0.54810  0.50610  Biso   1.000  H
  C1035    1.0000 0.44748  0.53512  0.48453  Biso   1.000  C
  C1036    1.0000 0.43425  0.51904  0.45575  Biso   1.000  C
  H471     1.0000 0.41450  0.51760  0.45430  Biso   1.000  H
  C1037    1.0000 0.45022  0.50508  0.42909  Biso   1.000  C
  C1038    1.0000 0.47943  0.50720  0.43122  Biso   1.000  C
  H472     1.0000 0.49020  0.49780  0.41320  Biso   1.000  H
  C1039    1.0000 0.43246  0.54828  0.51390  Biso   1.000  C
  C1040    1.0000 0.41906  0.55836  0.53860  Biso   1.000  C
  C1041    1.0000 0.40313  0.57163  0.57048  Biso   1.000  C
  C1042    1.0000 0.41470  0.59317  0.59017  Biso   1.000  C
  H473     1.0000 0.43210  0.59980  0.58250  Biso   1.000  H
  C1043    1.0000 0.40054  0.60491  0.62120  Biso   1.000  C
  H474     1.0000 0.40840  0.61950  0.63450  Biso   1.000  H
  C1044    1.0000 0.37481  0.59511  0.63253  Biso   1.000  C
  C1045    1.0000 0.36325  0.57357  0.61283  Biso   1.000  C
  H475     1.0000 0.34590  0.56690  0.62050  Biso   1.000  H
  C1046    1.0000 0.37741  0.56183  0.58181  Biso   1.000  C
  H476     1.0000 0.36960  0.54730  0.56850  Biso   1.000  H
  C1047    1.0000 0.35980  0.60668  0.66654  Biso   1.000  C
  C1048    1.0000 0.43571  0.48725  0.40160  Biso   1.000  C
  C1049    1.0000 0.42425  0.47145  0.37970  Biso   1.000  C
  C1050    1.0000 0.40875  0.45386  0.35402  Biso   1.000  C
  C1051    1.0000 0.38064  0.45793  0.34213  Biso   1.000  C
  H477     1.0000 0.37100  0.47240  0.35180  Biso   1.000  H
  C1052    1.0000 0.36670  0.44060  0.31598  Biso   1.000  C
  H478     1.0000 0.34770  0.44340  0.30790  Biso   1.000  H
  C1053    1.0000 0.38089  0.41919  0.30172  Biso   1.000  C
  C1054    1.0000 0.40901  0.41512  0.31361  Biso   1.000  C
  H479     1.0000 0.41860  0.40060  0.30400  Biso   1.000  H
  C1055    1.0000 0.42294  0.43245  0.33976  Biso   1.000  C
  H480     1.0000 0.44200  0.42970  0.34780  Biso   1.000  H
  C1056    1.0000 0.36350  0.40218  0.27660  Biso   1.000  C
