data_image0
_cell_length_a       17.6356
_cell_length_b       48.0644
_cell_length_c       24.5539
_cell_angle_alpha    90
_cell_angle_beta     90
_cell_angle_gamma    90

_symmetry_space_group_name_H-M    "P 1"
_symmetry_int_tables_number       1

loop_
  _symmetry_equiv_pos_as_xyz
  'x, y, z'

loop_
  _atom_site_label
  _atom_site_occupancy
  _atom_site_fract_x
  _atom_site_fract_y
  _atom_site_fract_z
  _atom_site_thermal_displace_type
  _atom_site_B_iso_or_equiv
  _atom_site_type_symbol
  Zn1      1.0000 0.43144  0.31068  0.19066  Biso   1.000  Zn
  Zn2      1.0000 0.37310  0.41909  0.09006  Biso   1.000  Zn
  Zn3      1.0000 0.43122  0.52716  0.19597  Biso   1.000  Zn
  Zn4      1.0000 0.74393  0.52447  0.10564  Biso   1.000  Zn
  Zn5      1.0000 0.68835  0.41684  0.99938  Biso   1.000  Zn
  Zn6      1.0000 0.74858  0.31082  0.10569  Biso   1.000  Zn
  N1       1.0000 0.37140  0.34120  0.15740  Biso   1.000  N
  N2       1.0000 0.34620  0.38270  0.12350  Biso   1.000  N
  N3       1.0000 0.34430  0.45340  0.12890  Biso   1.000  N
  N4       1.0000 0.36760  0.49520  0.16840  Biso   1.000  N
  N5       1.0000 0.53990  0.51490  0.18850  Biso   1.000  N
  N6       1.0000 0.65590  0.51280  0.15570  Biso   1.000  N
  N7       1.0000 0.77020  0.49390  0.05260  Biso   1.000  N
  N8       1.0000 0.74170  0.45280  0.01590  Biso   1.000  N
  N9       1.0000 0.73850  0.38070  0.01290  Biso   1.000  N
  N10      1.0000 0.76670  0.33880  0.04960  Biso   1.000  N
  N11      1.0000 0.65880  0.32200  0.15080  Biso   1.000  N
  N12      1.0000 0.53890  0.32140  0.18280  Biso   1.000  N
  N13      1.0000 0.48740  0.41910  0.08760  Biso   1.000  N
  N14      1.0000 0.60150  0.41680  0.05490  Biso   1.000  N
  N15      1.0000 0.41990  0.27340  0.15950  Biso   1.000  N
  N16      1.0000 0.59230  0.44100  0.85540  Biso   1.000  N
  N17      1.0000 0.64250  0.42010  0.92730  Biso   1.000  N
  N18      1.0000 0.40480  0.53630  0.27450  Biso   1.000  N
  N19      1.0000 0.33130  0.53420  0.34550  Biso   1.000  N
  N20      1.0000 0.28620  0.44410  0.93930  Biso   1.000  N
  N21      1.0000 0.33110  0.42230  0.01470  Biso   1.000  N
  N22      1.0000 0.33570  0.30750  0.34600  Biso   1.000  N
  N23      1.0000 0.72650  0.27350  0.07520  Biso   1.000  N
  N24      1.0000 0.40550  0.30760  0.26860  Biso   1.000  N
  C1       1.0000 0.40140  0.36450  0.13860  Biso   1.000  C
  C2       1.0000 0.29400  0.34360  0.15210  Biso   1.000  C
  C3       1.0000 0.23510  0.32460  0.15760  Biso   1.000  C
  C4       1.0000 0.16220  0.33180  0.14120  Biso   1.000  C
  C5       1.0000 0.14830  0.35800  0.11940  Biso   1.000  C
  C6       1.0000 0.20720  0.37700  0.11390  Biso   1.000  C
  C7       1.0000 0.28010  0.36980  0.13030  Biso   1.000  C
  C8       1.0000 0.06760  0.36260  0.08940  Biso   1.000  C
  C9       1.0000 0.39860  0.47060  0.14740  Biso   1.000  C
  C10      1.0000 0.27840  0.46680  0.13620  Biso   1.000  C
  C11      1.0000 0.20450  0.46080  0.12030  Biso   1.000  C
  C12      1.0000 0.14720  0.48020  0.12880  Biso   1.000  C
  C13      1.0000 0.16370  0.50550  0.15330  Biso   1.000  C
  C14      1.0000 0.23760  0.51150  0.16920  Biso   1.000  C
  C15      1.0000 0.29490  0.49220  0.16070  Biso   1.000  C
  C16      1.0000 0.06230  0.47630  0.10440  Biso   1.000  C
  C17      1.0000 0.58880  0.52880  0.15260  Biso   1.000  C
  C18      1.0000 0.58700  0.49420  0.21010  Biso   1.000  C
  C19      1.0000 0.55500  0.47480  0.24530  Biso   1.000  C
  C20      1.0000 0.59500  0.45100  0.25960  Biso   1.000  C
  C21      1.0000 0.66800  0.44660  0.23870  Biso   1.000  C
  C22      1.0000 0.69960  0.46600  0.20360  Biso   1.000  C
  C23      1.0000 0.65900  0.48980  0.18930  Biso   1.000  C
  C24      1.0000 0.71600  0.41890  0.25100  Biso   1.000  C
  C25      1.0000 0.72370  0.47220  0.05540  Biso   1.000  C
  C26      1.0000 0.81300  0.46100  0.97600  Biso   1.000  C
  C27      1.0000 0.82110  0.48610  0.00890  Biso   1.000  C
  C28      1.0000 0.72250  0.36050  0.05020  Biso   1.000  C
  C29      1.0000 0.79900  0.37060  0.98100  Biso   1.000  C
  C30      1.0000 0.81480  0.34680  0.00280  Biso   1.000  C
  C31      1.0000 0.58600  0.30820  0.14790  Biso   1.000  C
  C32      1.0000 0.57370  0.34390  0.20790  Biso   1.000  C
  C33      1.0000 0.54880  0.36510  0.24200  Biso   1.000  C
  C34      1.0000 0.59800  0.38640  0.25670  Biso   1.000  C
  C35      1.0000 0.67200  0.38650  0.23740  Biso   1.000  C
  C36      1.0000 0.69690  0.36530  0.20330  Biso   1.000  C
  C37      1.0000 0.64780  0.34400  0.18860  Biso   1.000  C
  C38      1.0000 0.57600  0.41380  0.29210  Biso   1.000  C
  C39      1.0000 0.52530  0.41800  0.04140  Biso   1.000  C
  C40      1.0000 0.53620  0.41810  0.12990  Biso   1.000  C
  C41      1.0000 0.52400  0.41830  0.18580  Biso   1.000  C
  C42      1.0000 0.58500  0.41680  0.22140  Biso   1.000  C
  C43      1.0000 0.65860  0.41530  0.20100  Biso   1.000  C
  C44      1.0000 0.67080  0.41510  0.14510  Biso   1.000  C
  C45      1.0000 0.60960  0.41650  0.10950  Biso   1.000  C
  C46      1.0000 0.41200  0.26540  0.11080  Biso   1.000  C
  C47      1.0000 0.39200  0.27860  0.05200  Biso   1.000  C
  C48      1.0000 0.63430  0.44400  0.89950  Biso   1.000  C
  C49      1.0000 0.60360  0.40120  0.89890  Biso   1.000  C
  C50      1.0000 0.58800  0.37390  0.91350  Biso   1.000  C
  C51      1.0000 0.53600  0.35840  0.88300  Biso   1.000  C
  C52      1.0000 0.50000  0.37030  0.83900  Biso   1.000  C
  C53      1.0000 0.51600  0.39760  0.82430  Biso   1.000  C
  C54      1.0000 0.56700  0.41310  0.85430  Biso   1.000  C
  C55      1.0000 0.43600  0.35900  0.79900  Biso   1.000  C
  C56      1.0000 0.34430  0.52490  0.29380  Biso   1.000  C
  C57      1.0000 0.45200  0.55350  0.31400  Biso   1.000  C
  C58      1.0000 0.39300  0.55280  0.35410  Biso   1.000  C
  C59      1.0000 0.30640  0.44680  0.99140  Biso   1.000  C
  C60      1.0000 0.32570  0.40370  0.97490  Biso   1.000  C
  C61      1.0000 0.35970  0.37760  0.97140  Biso   1.000  C
  C62      1.0000 0.36600  0.36440  0.92100  Biso   1.000  C
  C63      1.0000 0.33800  0.37710  0.87460  Biso   1.000  C
  C64      1.0000 0.30400  0.40320  0.87800  Biso   1.000  C
  C65      1.0000 0.29790  0.41640  0.92810  Biso   1.000  C
  C66      1.0000 0.40700  0.33510  0.91600  Biso   1.000  C
  C67      1.0000 0.35500  0.35800  0.82300  Biso   1.000  C
  C68      1.0000 0.33820  0.31070  0.29300  Biso   1.000  C
  C69      1.0000 0.40900  0.30060  0.36070  Biso   1.000  C
  C70      1.0000 0.44930  0.29880  0.31090  Biso   1.000  C
  C71      1.0000 0.67630  0.26430  0.03450  Biso   1.000  C
  C72      1.0000 0.62100  0.27920  0.00200  Biso   1.000  C
  C73      1.0000 0.56500  0.26230  0.97200  Biso   1.000  C
  C74      1.0000 0.46000  0.27800  0.07200  Biso   1.000  C
  Zn7      1.0000 0.06856  0.68932  0.69066  Biso   1.000  Zn
  Zn8      1.0000 0.12690  0.58091  0.59006  Biso   1.000  Zn
  Zn9      1.0000 0.06878  0.47284  0.69597  Biso   1.000  Zn
  Zn10     1.0000 0.75607  0.47553  0.60564  Biso   1.000  Zn
  Zn11     1.0000 0.81165  0.58316  0.49938  Biso   1.000  Zn
  Zn12     1.0000 0.75142  0.68918  0.60569  Biso   1.000  Zn
  N25      1.0000 0.12860  0.65880  0.65740  Biso   1.000  N
  N26      1.0000 0.15380  0.61730  0.62350  Biso   1.000  N
  N27      1.0000 0.15570  0.54660  0.62890  Biso   1.000  N
  N28      1.0000 0.13240  0.50480  0.66840  Biso   1.000  N
  N29      1.0000 0.96010  0.48510  0.68850  Biso   1.000  N
  N30      1.0000 0.84410  0.48720  0.65570  Biso   1.000  N
  N31      1.0000 0.72980  0.50610  0.55260  Biso   1.000  N
  N32      1.0000 0.75830  0.54720  0.51590  Biso   1.000  N
  N33      1.0000 0.76150  0.61930  0.51290  Biso   1.000  N
  N34      1.0000 0.73330  0.66120  0.54960  Biso   1.000  N
  N35      1.0000 0.84120  0.67800  0.65080  Biso   1.000  N
  N36      1.0000 0.96110  0.67860  0.68280  Biso   1.000  N
  N37      1.0000 0.01260  0.58090  0.58760  Biso   1.000  N
  N38      1.0000 0.89850  0.58320  0.55490  Biso   1.000  N
  N39      1.0000 0.08010  0.72660  0.65950  Biso   1.000  N
  N40      1.0000 0.90770  0.55900  0.35540  Biso   1.000  N
  N41      1.0000 0.85750  0.57990  0.42730  Biso   1.000  N
  N42      1.0000 0.09520  0.46370  0.77450  Biso   1.000  N
  N43      1.0000 0.16870  0.46580  0.84550  Biso   1.000  N
  N44      1.0000 0.21380  0.55590  0.43930  Biso   1.000  N
  N45      1.0000 0.16890  0.57770  0.51470  Biso   1.000  N
  N46      1.0000 0.16430  0.69250  0.84600  Biso   1.000  N
  N47      1.0000 0.77350  0.72650  0.57520  Biso   1.000  N
  N48      1.0000 0.09450  0.69240  0.76860  Biso   1.000  N
  C75      1.0000 0.09860  0.63550  0.63860  Biso   1.000  C
  C76      1.0000 0.20600  0.65640  0.65210  Biso   1.000  C
  C77      1.0000 0.26490  0.67540  0.65760  Biso   1.000  C
  C78      1.0000 0.33780  0.66820  0.64120  Biso   1.000  C
  C79      1.0000 0.35170  0.64200  0.61940  Biso   1.000  C
  C80      1.0000 0.29280  0.62300  0.61390  Biso   1.000  C
  C81      1.0000 0.21990  0.63020  0.63030  Biso   1.000  C
  C82      1.0000 0.43240  0.63740  0.58940  Biso   1.000  C
  C83      1.0000 0.10140  0.52940  0.64740  Biso   1.000  C
  C84      1.0000 0.22160  0.53320  0.63620  Biso   1.000  C
  C85      1.0000 0.29550  0.53920  0.62030  Biso   1.000  C
  C86      1.0000 0.35280  0.51980  0.62880  Biso   1.000  C
  C87      1.0000 0.33630  0.49450  0.65330  Biso   1.000  C
  C88      1.0000 0.26240  0.48850  0.66920  Biso   1.000  C
  C89      1.0000 0.20510  0.50780  0.66070  Biso   1.000  C
  C90      1.0000 0.43770  0.52370  0.60440  Biso   1.000  C
  C91      1.0000 0.91120  0.47120  0.65260  Biso   1.000  C
  C92      1.0000 0.91300  0.50580  0.71010  Biso   1.000  C
  C93      1.0000 0.94500  0.52520  0.74530  Biso   1.000  C
  C94      1.0000 0.90500  0.54900  0.75960  Biso   1.000  C
  C95      1.0000 0.83200  0.55340  0.73870  Biso   1.000  C
  C96      1.0000 0.80040  0.53400  0.70360  Biso   1.000  C
  C97      1.0000 0.84100  0.51020  0.68930  Biso   1.000  C
  C98      1.0000 0.78400  0.58110  0.75100  Biso   1.000  C
  C99      1.0000 0.77630  0.52780  0.55540  Biso   1.000  C
  C100     1.0000 0.68700  0.53900  0.47600  Biso   1.000  C
  C101     1.0000 0.67890  0.51390  0.50890  Biso   1.000  C
  C102     1.0000 0.77750  0.63950  0.55020  Biso   1.000  C
  C103     1.0000 0.70100  0.62940  0.48100  Biso   1.000  C
  C104     1.0000 0.68520  0.65320  0.50280  Biso   1.000  C
  C105     1.0000 0.91400  0.69180  0.64790  Biso   1.000  C
  C106     1.0000 0.92630  0.65610  0.70790  Biso   1.000  C
  C107     1.0000 0.95120  0.63490  0.74200  Biso   1.000  C
  C108     1.0000 0.90200  0.61360  0.75670  Biso   1.000  C
  C109     1.0000 0.82800  0.61350  0.73740  Biso   1.000  C
  C110     1.0000 0.80310  0.63470  0.70330  Biso   1.000  C
  C111     1.0000 0.85220  0.65600  0.68860  Biso   1.000  C
  C112     1.0000 0.92400  0.58620  0.79210  Biso   1.000  C
  C113     1.0000 0.97470  0.58200  0.54140  Biso   1.000  C
  C114     1.0000 0.96380  0.58190  0.62990  Biso   1.000  C
  C115     1.0000 0.97600  0.58170  0.68580  Biso   1.000  C
  C116     1.0000 0.91500  0.58320  0.72140  Biso   1.000  C
  C117     1.0000 0.84140  0.58470  0.70100  Biso   1.000  C
  C118     1.0000 0.82920  0.58490  0.64510  Biso   1.000  C
  C119     1.0000 0.89040  0.58350  0.60950  Biso   1.000  C
  C120     1.0000 0.08800  0.73460  0.61080  Biso   1.000  C
  C121     1.0000 0.10800  0.72140  0.55200  Biso   1.000  C
  C122     1.0000 0.86570  0.55600  0.39950  Biso   1.000  C
  C123     1.0000 0.89640  0.59880  0.39890  Biso   1.000  C
  C124     1.0000 0.91200  0.62610  0.41350  Biso   1.000  C
  C125     1.0000 0.96400  0.64160  0.38300  Biso   1.000  C
  C126     1.0000 0.00000  0.62970  0.33900  Biso   1.000  C
  C127     1.0000 0.98400  0.60240  0.32430  Biso   1.000  C
  C128     1.0000 0.93300  0.58690  0.35430  Biso   1.000  C
  C129     1.0000 0.06400  0.64100  0.29900  Biso   1.000  C
  C130     1.0000 0.15570  0.47510  0.79380  Biso   1.000  C
  C131     1.0000 0.04800  0.44650  0.81400  Biso   1.000  C
  C132     1.0000 0.10700  0.44720  0.85410  Biso   1.000  C
  C133     1.0000 0.19360  0.55320  0.49140  Biso   1.000  C
  C134     1.0000 0.17430  0.59630  0.47490  Biso   1.000  C
  C135     1.0000 0.14030  0.62240  0.47140  Biso   1.000  C
  C136     1.0000 0.13400  0.63560  0.42100  Biso   1.000  C
  C137     1.0000 0.16200  0.62290  0.37460  Biso   1.000  C
  C138     1.0000 0.19600  0.59680  0.37800  Biso   1.000  C
  C139     1.0000 0.20210  0.58360  0.42810  Biso   1.000  C
  C140     1.0000 0.09300  0.66490  0.41600  Biso   1.000  C
  C141     1.0000 0.14500  0.64200  0.32300  Biso   1.000  C
  C142     1.0000 0.16180  0.68930  0.79300  Biso   1.000  C
  C143     1.0000 0.09100  0.69940  0.86070  Biso   1.000  C
  C144     1.0000 0.05070  0.70120  0.81090  Biso   1.000  C
  C145     1.0000 0.82370  0.73570  0.53450  Biso   1.000  C
  C146     1.0000 0.87900  0.72080  0.50200  Biso   1.000  C
  C147     1.0000 0.93500  0.73770  0.47200  Biso   1.000  C
  C148     1.0000 0.04000  0.72200  0.57200  Biso   1.000  C
  Zn13     1.0000 0.56856  0.81068  0.80934  Biso   1.000  Zn
  Zn14     1.0000 0.62690  0.91909  0.90994  Biso   1.000  Zn
  Zn15     1.0000 0.56878  0.02716  0.80403  Biso   1.000  Zn
  Zn16     1.0000 0.25607  0.02447  0.89436  Biso   1.000  Zn
  Zn17     1.0000 0.31165  0.91684  0.00062  Biso   1.000  Zn
  Zn18     1.0000 0.25142  0.81082  0.89431  Biso   1.000  Zn
  N49      1.0000 0.62860  0.84120  0.84260  Biso   1.000  N
  N50      1.0000 0.65380  0.88270  0.87650  Biso   1.000  N
  N51      1.0000 0.65570  0.95340  0.87110  Biso   1.000  N
  N52      1.0000 0.63240  0.99520  0.83160  Biso   1.000  N
  N53      1.0000 0.46010  0.01490  0.81150  Biso   1.000  N
  N54      1.0000 0.34410  0.01280  0.84430  Biso   1.000  N
  N55      1.0000 0.22980  0.99390  0.94740  Biso   1.000  N
  N56      1.0000 0.25830  0.95280  0.98410  Biso   1.000  N
  N57      1.0000 0.26150  0.88070  0.98710  Biso   1.000  N
  N58      1.0000 0.23330  0.83880  0.95040  Biso   1.000  N
  N59      1.0000 0.34120  0.82200  0.84920  Biso   1.000  N
  N60      1.0000 0.46110  0.82140  0.81720  Biso   1.000  N
  N61      1.0000 0.51260  0.91910  0.91240  Biso   1.000  N
  N62      1.0000 0.39850  0.91680  0.94510  Biso   1.000  N
  N63      1.0000 0.58010  0.77340  0.84050  Biso   1.000  N
  N64      1.0000 0.40770  0.94100  0.14460  Biso   1.000  N
  N65      1.0000 0.35750  0.92010  0.07270  Biso   1.000  N
  N66      1.0000 0.59520  0.03630  0.72550  Biso   1.000  N
  N67      1.0000 0.66870  0.03420  0.65450  Biso   1.000  N
  N68      1.0000 0.71380  0.94410  0.06070  Biso   1.000  N
  N69      1.0000 0.66890  0.92230  0.98530  Biso   1.000  N
  N70      1.0000 0.66430  0.80750  0.65400  Biso   1.000  N
  N71      1.0000 0.27350  0.77350  0.92480  Biso   1.000  N
  N72      1.0000 0.59450  0.80760  0.73140  Biso   1.000  N
  C149     1.0000 0.59860  0.86450  0.86140  Biso   1.000  C
  C150     1.0000 0.70600  0.84360  0.84790  Biso   1.000  C
  C151     1.0000 0.76490  0.82460  0.84240  Biso   1.000  C
  C152     1.0000 0.83780  0.83180  0.85880  Biso   1.000  C
  C153     1.0000 0.85170  0.85800  0.88060  Biso   1.000  C
  C154     1.0000 0.79280  0.87700  0.88610  Biso   1.000  C
  C155     1.0000 0.71990  0.86980  0.86970  Biso   1.000  C
  C156     1.0000 0.93240  0.86260  0.91060  Biso   1.000  C
  C157     1.0000 0.60140  0.97060  0.85260  Biso   1.000  C
  C158     1.0000 0.72160  0.96680  0.86380  Biso   1.000  C
  C159     1.0000 0.79550  0.96080  0.87970  Biso   1.000  C
  C160     1.0000 0.85280  0.98020  0.87120  Biso   1.000  C
  C161     1.0000 0.83630  0.00550  0.84670  Biso   1.000  C
  C162     1.0000 0.76240  0.01150  0.83080  Biso   1.000  C
  C163     1.0000 0.70510  0.99220  0.83930  Biso   1.000  C
  C164     1.0000 0.93770  0.97630  0.89560  Biso   1.000  C
  C165     1.0000 0.41120  0.02880  0.84740  Biso   1.000  C
  C166     1.0000 0.41300  0.99420  0.78990  Biso   1.000  C
  C167     1.0000 0.44500  0.97480  0.75470  Biso   1.000  C
  C168     1.0000 0.40500  0.95100  0.74040  Biso   1.000  C
  C169     1.0000 0.33200  0.94660  0.76130  Biso   1.000  C
  C170     1.0000 0.30040  0.96600  0.79640  Biso   1.000  C
  C171     1.0000 0.34100  0.98980  0.81070  Biso   1.000  C
  C172     1.0000 0.28400  0.91890  0.74900  Biso   1.000  C
  C173     1.0000 0.27630  0.97220  0.94460  Biso   1.000  C
  C174     1.0000 0.18700  0.96100  0.02400  Biso   1.000  C
  C175     1.0000 0.17890  0.98610  0.99110  Biso   1.000  C
  C176     1.0000 0.27750  0.86050  0.94980  Biso   1.000  C
  C177     1.0000 0.20100  0.87060  0.01900  Biso   1.000  C
  C178     1.0000 0.18520  0.84680  0.99720  Biso   1.000  C
  C179     1.0000 0.41400  0.80820  0.85210  Biso   1.000  C
  C180     1.0000 0.42630  0.84390  0.79210  Biso   1.000  C
  C181     1.0000 0.45120  0.86510  0.75800  Biso   1.000  C
  C182     1.0000 0.40200  0.88640  0.74330  Biso   1.000  C
  C183     1.0000 0.32800  0.88650  0.76260  Biso   1.000  C
  C184     1.0000 0.30310  0.86530  0.79670  Biso   1.000  C
  C185     1.0000 0.35220  0.84400  0.81140  Biso   1.000  C
  C186     1.0000 0.42400  0.91380  0.70790  Biso   1.000  C
  C187     1.0000 0.47470  0.91800  0.95860  Biso   1.000  C
  C188     1.0000 0.46380  0.91810  0.87010  Biso   1.000  C
  C189     1.0000 0.47600  0.91830  0.81420  Biso   1.000  C
  C190     1.0000 0.41500  0.91680  0.77860  Biso   1.000  C
  C191     1.0000 0.34140  0.91530  0.79900  Biso   1.000  C
  C192     1.0000 0.32920  0.91510  0.85490  Biso   1.000  C
  C193     1.0000 0.39040  0.91650  0.89050  Biso   1.000  C
  C194     1.0000 0.58800  0.76540  0.88920  Biso   1.000  C
  C195     1.0000 0.60800  0.77860  0.94800  Biso   1.000  C
  C196     1.0000 0.36570  0.94400  0.10050  Biso   1.000  C
  C197     1.0000 0.39640  0.90120  0.10110  Biso   1.000  C
  C198     1.0000 0.41200  0.87390  0.08650  Biso   1.000  C
  C199     1.0000 0.46400  0.85840  0.11700  Biso   1.000  C
  C200     1.0000 0.50000  0.87030  0.16100  Biso   1.000  C
  C201     1.0000 0.48400  0.89760  0.17570  Biso   1.000  C
  C202     1.0000 0.43300  0.91310  0.14570  Biso   1.000  C
  C203     1.0000 0.56400  0.85900  0.20100  Biso   1.000  C
  C204     1.0000 0.65570  0.02490  0.70620  Biso   1.000  C
  C205     1.0000 0.54800  0.05350  0.68600  Biso   1.000  C
  C206     1.0000 0.60700  0.05280  0.64590  Biso   1.000  C
  C207     1.0000 0.69360  0.94680  0.00860  Biso   1.000  C
  C208     1.0000 0.67430  0.90370  0.02510  Biso   1.000  C
  C209     1.0000 0.64030  0.87760  0.02860  Biso   1.000  C
  C210     1.0000 0.63400  0.86440  0.07900  Biso   1.000  C
  C211     1.0000 0.66200  0.87710  0.12540  Biso   1.000  C
  C212     1.0000 0.69600  0.90320  0.12200  Biso   1.000  C
  C213     1.0000 0.70210  0.91640  0.07190  Biso   1.000  C
  C214     1.0000 0.59300  0.83510  0.08400  Biso   1.000  C
  C215     1.0000 0.64500  0.85800  0.17700  Biso   1.000  C
  C216     1.0000 0.66180  0.81070  0.70700  Biso   1.000  C
  C217     1.0000 0.59100  0.80060  0.63930  Biso   1.000  C
  C218     1.0000 0.55070  0.79880  0.68910  Biso   1.000  C
  C219     1.0000 0.32370  0.76430  0.96550  Biso   1.000  C
  C220     1.0000 0.37900  0.77920  0.99800  Biso   1.000  C
  C221     1.0000 0.43500  0.76230  0.02800  Biso   1.000  C
  C222     1.0000 0.54000  0.77800  0.92800  Biso   1.000  C
  Zn19     1.0000 0.93144  0.18932  0.30934  Biso   1.000  Zn
  Zn20     1.0000 0.87310  0.08091  0.40994  Biso   1.000  Zn
  Zn21     1.0000 0.93122  0.97284  0.30403  Biso   1.000  Zn
  Zn22     1.0000 0.24393  0.97553  0.39436  Biso   1.000  Zn
  Zn23     1.0000 0.18835  0.08316  0.50062  Biso   1.000  Zn
  Zn24     1.0000 0.24858  0.18918  0.39431  Biso   1.000  Zn
  N73      1.0000 0.87140  0.15880  0.34260  Biso   1.000  N
  N74      1.0000 0.84620  0.11730  0.37650  Biso   1.000  N
  N75      1.0000 0.84430  0.04660  0.37110  Biso   1.000  N
  N76      1.0000 0.86760  0.00480  0.33160  Biso   1.000  N
  N77      1.0000 0.03990  0.98510  0.31150  Biso   1.000  N
  N78      1.0000 0.15590  0.98720  0.34430  Biso   1.000  N
  N79      1.0000 0.27020  0.00610  0.44740  Biso   1.000  N
  N80      1.0000 0.24170  0.04720  0.48410  Biso   1.000  N
  N81      1.0000 0.23850  0.11930  0.48710  Biso   1.000  N
  N82      1.0000 0.26670  0.16120  0.45040  Biso   1.000  N
  N83      1.0000 0.15880  0.17800  0.34920  Biso   1.000  N
  N84      1.0000 0.03890  0.17860  0.31720  Biso   1.000  N
  N85      1.0000 0.98740  0.08090  0.41240  Biso   1.000  N
  N86      1.0000 0.10150  0.08320  0.44510  Biso   1.000  N
  N87      1.0000 0.91990  0.22660  0.34050  Biso   1.000  N
  N88      1.0000 0.09230  0.05900  0.64460  Biso   1.000  N
  N89      1.0000 0.14250  0.07990  0.57270  Biso   1.000  N
  N90      1.0000 0.90480  0.96370  0.22550  Biso   1.000  N
  N91      1.0000 0.83130  0.96580  0.15450  Biso   1.000  N
  N92      1.0000 0.78620  0.05590  0.56070  Biso   1.000  N
  N93      1.0000 0.83110  0.07770  0.48530  Biso   1.000  N
  N94      1.0000 0.83570  0.19250  0.15400  Biso   1.000  N
  N95      1.0000 0.22650  0.22650  0.42480  Biso   1.000  N
  N96      1.0000 0.90550  0.19240  0.23140  Biso   1.000  N
  C223     1.0000 0.90140  0.13550  0.36140  Biso   1.000  C
  C224     1.0000 0.79400  0.15640  0.34790  Biso   1.000  C
  C225     1.0000 0.73510  0.17540  0.34240  Biso   1.000  C
  C226     1.0000 0.66220  0.16820  0.35880  Biso   1.000  C
  C227     1.0000 0.64830  0.14200  0.38060  Biso   1.000  C
  C228     1.0000 0.70720  0.12300  0.38610  Biso   1.000  C
  C229     1.0000 0.78010  0.13020  0.36970  Biso   1.000  C
  C230     1.0000 0.56760  0.13740  0.41060  Biso   1.000  C
  C231     1.0000 0.89860  0.02940  0.35260  Biso   1.000  C
  C232     1.0000 0.77840  0.03320  0.36380  Biso   1.000  C
  C233     1.0000 0.70450  0.03920  0.37970  Biso   1.000  C
  C234     1.0000 0.64720  0.01980  0.37120  Biso   1.000  C
  C235     1.0000 0.66370  0.99450  0.34670  Biso   1.000  C
  C236     1.0000 0.73760  0.98850  0.33080  Biso   1.000  C
  C237     1.0000 0.79490  0.00780  0.33930  Biso   1.000  C
  C238     1.0000 0.56230  0.02370  0.39560  Biso   1.000  C
  C239     1.0000 0.08880  0.97120  0.34740  Biso   1.000  C
  C240     1.0000 0.08700  0.00580  0.28990  Biso   1.000  C
  C241     1.0000 0.05500  0.02520  0.25470  Biso   1.000  C
  C242     1.0000 0.09500  0.04900  0.24040  Biso   1.000  C
  C243     1.0000 0.16800  0.05340  0.26130  Biso   1.000  C
  C244     1.0000 0.19960  0.03400  0.29640  Biso   1.000  C
  C245     1.0000 0.15900  0.01020  0.31070  Biso   1.000  C
  C246     1.0000 0.21600  0.08110  0.24900  Biso   1.000  C
  C247     1.0000 0.22370  0.02780  0.44460  Biso   1.000  C
  C248     1.0000 0.31300  0.03900  0.52400  Biso   1.000  C
  C249     1.0000 0.32110  0.01390  0.49110  Biso   1.000  C
  C250     1.0000 0.22250  0.13950  0.44980  Biso   1.000  C
  C251     1.0000 0.29900  0.12940  0.51900  Biso   1.000  C
  C252     1.0000 0.31480  0.15320  0.49720  Biso   1.000  C
  C253     1.0000 0.08600  0.19180  0.35210  Biso   1.000  C
  C254     1.0000 0.07370  0.15610  0.29210  Biso   1.000  C
  C255     1.0000 0.04880  0.13490  0.25800  Biso   1.000  C
  C256     1.0000 0.09800  0.11360  0.24330  Biso   1.000  C
  C257     1.0000 0.17200  0.11350  0.26260  Biso   1.000  C
  C258     1.0000 0.19690  0.13470  0.29670  Biso   1.000  C
  C259     1.0000 0.14780  0.15600  0.31140  Biso   1.000  C
  C260     1.0000 0.07600  0.08620  0.20790  Biso   1.000  C
  C261     1.0000 0.02530  0.08200  0.45860  Biso   1.000  C
  C262     1.0000 0.03620  0.08190  0.37010  Biso   1.000  C
  C263     1.0000 0.02400  0.08170  0.31420  Biso   1.000  C
  C264     1.0000 0.08500  0.08320  0.27860  Biso   1.000  C
  C265     1.0000 0.15860  0.08470  0.29900  Biso   1.000  C
  C266     1.0000 0.17080  0.08490  0.35490  Biso   1.000  C
  C267     1.0000 0.10960  0.08350  0.39050  Biso   1.000  C
  C268     1.0000 0.91200  0.23460  0.38920  Biso   1.000  C
  C269     1.0000 0.89200  0.22140  0.44800  Biso   1.000  C
  C270     1.0000 0.13430  0.05600  0.60050  Biso   1.000  C
  C271     1.0000 0.10360  0.09880  0.60110  Biso   1.000  C
  C272     1.0000 0.08800  0.12610  0.58650  Biso   1.000  C
  C273     1.0000 0.03600  0.14160  0.61700  Biso   1.000  C
  C274     1.0000 0.00000  0.12970  0.66100  Biso   1.000  C
  C275     1.0000 0.01600  0.10240  0.67570  Biso   1.000  C
  C276     1.0000 0.06700  0.08690  0.64570  Biso   1.000  C
  C277     1.0000 0.93600  0.14100  0.70100  Biso   1.000  C
  C278     1.0000 0.84430  0.97510  0.20620  Biso   1.000  C
  C279     1.0000 0.95200  0.94650  0.18600  Biso   1.000  C
  C280     1.0000 0.89300  0.94720  0.14590  Biso   1.000  C
  C281     1.0000 0.80640  0.05320  0.50860  Biso   1.000  C
  C282     1.0000 0.82570  0.09630  0.52510  Biso   1.000  C
  C283     1.0000 0.85970  0.12240  0.52860  Biso   1.000  C
  C284     1.0000 0.86600  0.13560  0.57900  Biso   1.000  C
  C285     1.0000 0.83800  0.12290  0.62540  Biso   1.000  C
  C286     1.0000 0.80400  0.09680  0.62200  Biso   1.000  C
  C287     1.0000 0.79790  0.08360  0.57190  Biso   1.000  C
  C288     1.0000 0.90700  0.16490  0.58400  Biso   1.000  C
  C289     1.0000 0.85500  0.14200  0.67700  Biso   1.000  C
  C290     1.0000 0.83820  0.18930  0.20700  Biso   1.000  C
  C291     1.0000 0.90900  0.19940  0.13930  Biso   1.000  C
  C292     1.0000 0.94930  0.20120  0.18910  Biso   1.000  C
  C293     1.0000 0.17630  0.23570  0.46550  Biso   1.000  C
  C294     1.0000 0.12100  0.22080  0.49800  Biso   1.000  C
  C295     1.0000 0.06500  0.23770  0.52800  Biso   1.000  C
  C296     1.0000 0.96000  0.22200  0.42800  Biso   1.000  C
  Zn25     1.0000 0.56856  0.68932  0.80934  Biso   1.000  Zn
  Zn26     1.0000 0.62690  0.58091  0.90994  Biso   1.000  Zn
  Zn27     1.0000 0.56878  0.47284  0.80403  Biso   1.000  Zn
  Zn28     1.0000 0.25607  0.47553  0.89436  Biso   1.000  Zn
  Zn29     1.0000 0.31165  0.58316  0.00062  Biso   1.000  Zn
  Zn30     1.0000 0.25142  0.68918  0.89431  Biso   1.000  Zn
  N97      1.0000 0.62860  0.65880  0.84260  Biso   1.000  N
  N98      1.0000 0.65380  0.61730  0.87650  Biso   1.000  N
  N99      1.0000 0.65570  0.54660  0.87110  Biso   1.000  N
  N100     1.0000 0.63240  0.50480  0.83160  Biso   1.000  N
  N101     1.0000 0.46010  0.48510  0.81150  Biso   1.000  N
  N102     1.0000 0.34410  0.48720  0.84430  Biso   1.000  N
  N103     1.0000 0.22980  0.50610  0.94740  Biso   1.000  N
  N104     1.0000 0.25830  0.54720  0.98410  Biso   1.000  N
  N105     1.0000 0.26150  0.61930  0.98710  Biso   1.000  N
  N106     1.0000 0.23330  0.66120  0.95040  Biso   1.000  N
  N107     1.0000 0.34120  0.67800  0.84920  Biso   1.000  N
  N108     1.0000 0.46110  0.67860  0.81720  Biso   1.000  N
  N109     1.0000 0.51260  0.58090  0.91240  Biso   1.000  N
  N110     1.0000 0.39850  0.58320  0.94510  Biso   1.000  N
  N111     1.0000 0.58010  0.72660  0.84050  Biso   1.000  N
  N112     1.0000 0.40770  0.55900  0.14460  Biso   1.000  N
  N113     1.0000 0.35750  0.57990  0.07270  Biso   1.000  N
  N114     1.0000 0.59520  0.46370  0.72550  Biso   1.000  N
  N115     1.0000 0.66870  0.46580  0.65450  Biso   1.000  N
  N116     1.0000 0.71380  0.55590  0.06070  Biso   1.000  N
  N117     1.0000 0.66890  0.57770  0.98530  Biso   1.000  N
  N118     1.0000 0.66430  0.69250  0.65400  Biso   1.000  N
  N119     1.0000 0.27350  0.72650  0.92480  Biso   1.000  N
  N120     1.0000 0.59450  0.69240  0.73140  Biso   1.000  N
  C297     1.0000 0.59860  0.63550  0.86140  Biso   1.000  C
  C298     1.0000 0.70600  0.65640  0.84790  Biso   1.000  C
  C299     1.0000 0.76490  0.67540  0.84240  Biso   1.000  C
  C300     1.0000 0.83780  0.66820  0.85880  Biso   1.000  C
  C301     1.0000 0.85170  0.64200  0.88060  Biso   1.000  C
  C302     1.0000 0.79280  0.62300  0.88610  Biso   1.000  C
  C303     1.0000 0.71990  0.63020  0.86970  Biso   1.000  C
  C304     1.0000 0.93240  0.63740  0.91060  Biso   1.000  C
  C305     1.0000 0.60140  0.52940  0.85260  Biso   1.000  C
  C306     1.0000 0.72160  0.53320  0.86380  Biso   1.000  C
  C307     1.0000 0.79550  0.53920  0.87970  Biso   1.000  C
  C308     1.0000 0.85280  0.51980  0.87120  Biso   1.000  C
  C309     1.0000 0.83630  0.49450  0.84670  Biso   1.000  C
  C310     1.0000 0.76240  0.48850  0.83080  Biso   1.000  C
  C311     1.0000 0.70510  0.50780  0.83930  Biso   1.000  C
  C312     1.0000 0.93770  0.52370  0.89560  Biso   1.000  C
  C313     1.0000 0.41120  0.47120  0.84740  Biso   1.000  C
  C314     1.0000 0.41300  0.50580  0.78990  Biso   1.000  C
  C315     1.0000 0.44500  0.52520  0.75470  Biso   1.000  C
  C316     1.0000 0.40500  0.54900  0.74040  Biso   1.000  C
  C317     1.0000 0.33200  0.55340  0.76130  Biso   1.000  C
  C318     1.0000 0.30040  0.53400  0.79640  Biso   1.000  C
  C319     1.0000 0.34100  0.51020  0.81070  Biso   1.000  C
  C320     1.0000 0.28400  0.58110  0.74900  Biso   1.000  C
  C321     1.0000 0.27630  0.52780  0.94460  Biso   1.000  C
  C322     1.0000 0.18700  0.53900  0.02400  Biso   1.000  C
  C323     1.0000 0.17890  0.51390  0.99110  Biso   1.000  C
  C324     1.0000 0.27750  0.63950  0.94980  Biso   1.000  C
  C325     1.0000 0.20100  0.62940  0.01900  Biso   1.000  C
  C326     1.0000 0.18520  0.65320  0.99720  Biso   1.000  C
  C327     1.0000 0.41400  0.69180  0.85210  Biso   1.000  C
  C328     1.0000 0.42630  0.65610  0.79210  Biso   1.000  C
  C329     1.0000 0.45120  0.63490  0.75800  Biso   1.000  C
  C330     1.0000 0.40200  0.61360  0.74330  Biso   1.000  C
  C331     1.0000 0.32800  0.61350  0.76260  Biso   1.000  C
  C332     1.0000 0.30310  0.63470  0.79670  Biso   1.000  C
  C333     1.0000 0.35220  0.65600  0.81140  Biso   1.000  C
  C334     1.0000 0.42400  0.58620  0.70790  Biso   1.000  C
  C335     1.0000 0.47470  0.58200  0.95860  Biso   1.000  C
  C336     1.0000 0.46380  0.58190  0.87010  Biso   1.000  C
  C337     1.0000 0.47600  0.58170  0.81420  Biso   1.000  C
  C338     1.0000 0.41500  0.58320  0.77860  Biso   1.000  C
  C339     1.0000 0.34140  0.58470  0.79900  Biso   1.000  C
  C340     1.0000 0.32920  0.58490  0.85490  Biso   1.000  C
  C341     1.0000 0.39040  0.58350  0.89050  Biso   1.000  C
  C342     1.0000 0.58800  0.73460  0.88920  Biso   1.000  C
  C343     1.0000 0.60800  0.72140  0.94800  Biso   1.000  C
  C344     1.0000 0.36570  0.55600  0.10050  Biso   1.000  C
  C345     1.0000 0.39640  0.59880  0.10110  Biso   1.000  C
  C346     1.0000 0.41200  0.62610  0.08650  Biso   1.000  C
  C347     1.0000 0.46400  0.64160  0.11700  Biso   1.000  C
  C348     1.0000 0.50000  0.62970  0.16100  Biso   1.000  C
  C349     1.0000 0.48400  0.60240  0.17570  Biso   1.000  C
  C350     1.0000 0.43300  0.58690  0.14570  Biso   1.000  C
  C351     1.0000 0.56400  0.64100  0.20100  Biso   1.000  C
  C352     1.0000 0.65570  0.47510  0.70620  Biso   1.000  C
  C353     1.0000 0.54800  0.44650  0.68600  Biso   1.000  C
  C354     1.0000 0.60700  0.44720  0.64590  Biso   1.000  C
  C355     1.0000 0.69360  0.55320  0.00860  Biso   1.000  C
  C356     1.0000 0.67430  0.59630  0.02510  Biso   1.000  C
  C357     1.0000 0.64030  0.62240  0.02860  Biso   1.000  C
  C358     1.0000 0.63400  0.63560  0.07900  Biso   1.000  C
  C359     1.0000 0.66200  0.62290  0.12540  Biso   1.000  C
  C360     1.0000 0.69600  0.59680  0.12200  Biso   1.000  C
  C361     1.0000 0.70210  0.58360  0.07190  Biso   1.000  C
  C362     1.0000 0.59300  0.66490  0.08400  Biso   1.000  C
  C363     1.0000 0.64500  0.64200  0.17700  Biso   1.000  C
  C364     1.0000 0.66180  0.68930  0.70700  Biso   1.000  C
  C365     1.0000 0.59100  0.69940  0.63930  Biso   1.000  C
  C366     1.0000 0.55070  0.70120  0.68910  Biso   1.000  C
  C367     1.0000 0.32370  0.73570  0.96550  Biso   1.000  C
  C368     1.0000 0.37900  0.72080  0.99800  Biso   1.000  C
  C369     1.0000 0.43500  0.73770  0.02800  Biso   1.000  C
  C370     1.0000 0.54000  0.72200  0.92800  Biso   1.000  C
  Zn31     1.0000 0.93144  0.31068  0.30934  Biso   1.000  Zn
  Zn32     1.0000 0.87310  0.41909  0.40994  Biso   1.000  Zn
  Zn33     1.0000 0.93122  0.52716  0.30403  Biso   1.000  Zn
  Zn34     1.0000 0.24393  0.52447  0.39436  Biso   1.000  Zn
  Zn35     1.0000 0.18835  0.41684  0.50062  Biso   1.000  Zn
  Zn36     1.0000 0.24858  0.31082  0.39431  Biso   1.000  Zn
  N121     1.0000 0.87140  0.34120  0.34260  Biso   1.000  N
  N122     1.0000 0.84620  0.38270  0.37650  Biso   1.000  N
  N123     1.0000 0.84430  0.45340  0.37110  Biso   1.000  N
  N124     1.0000 0.86760  0.49520  0.33160  Biso   1.000  N
  N125     1.0000 0.03990  0.51490  0.31150  Biso   1.000  N
  N126     1.0000 0.15590  0.51280  0.34430  Biso   1.000  N
  N127     1.0000 0.27020  0.49390  0.44740  Biso   1.000  N
  N128     1.0000 0.24170  0.45280  0.48410  Biso   1.000  N
  N129     1.0000 0.23850  0.38070  0.48710  Biso   1.000  N
  N130     1.0000 0.26670  0.33880  0.45040  Biso   1.000  N
  N131     1.0000 0.15880  0.32200  0.34920  Biso   1.000  N
  N132     1.0000 0.03890  0.32140  0.31720  Biso   1.000  N
  N133     1.0000 0.98740  0.41910  0.41240  Biso   1.000  N
  N134     1.0000 0.10150  0.41680  0.44510  Biso   1.000  N
  N135     1.0000 0.91990  0.27340  0.34050  Biso   1.000  N
  N136     1.0000 0.09230  0.44100  0.64460  Biso   1.000  N
  N137     1.0000 0.14250  0.42010  0.57270  Biso   1.000  N
  N138     1.0000 0.90480  0.53630  0.22550  Biso   1.000  N
  N139     1.0000 0.83130  0.53420  0.15450  Biso   1.000  N
  N140     1.0000 0.78620  0.44410  0.56070  Biso   1.000  N
  N141     1.0000 0.83110  0.42230  0.48530  Biso   1.000  N
  N142     1.0000 0.83570  0.30750  0.15400  Biso   1.000  N
  N143     1.0000 0.22650  0.27350  0.42480  Biso   1.000  N
  N144     1.0000 0.90550  0.30760  0.23140  Biso   1.000  N
  C371     1.0000 0.90140  0.36450  0.36140  Biso   1.000  C
  C372     1.0000 0.79400  0.34360  0.34790  Biso   1.000  C
  C373     1.0000 0.73510  0.32460  0.34240  Biso   1.000  C
  C374     1.0000 0.66220  0.33180  0.35880  Biso   1.000  C
  C375     1.0000 0.64830  0.35800  0.38060  Biso   1.000  C
  C376     1.0000 0.70720  0.37700  0.38610  Biso   1.000  C
  C377     1.0000 0.78010  0.36980  0.36970  Biso   1.000  C
  C378     1.0000 0.56760  0.36260  0.41060  Biso   1.000  C
  C379     1.0000 0.89860  0.47060  0.35260  Biso   1.000  C
  C380     1.0000 0.77840  0.46680  0.36380  Biso   1.000  C
  C381     1.0000 0.70450  0.46080  0.37970  Biso   1.000  C
  C382     1.0000 0.64720  0.48020  0.37120  Biso   1.000  C
  C383     1.0000 0.66370  0.50550  0.34670  Biso   1.000  C
  C384     1.0000 0.73760  0.51150  0.33080  Biso   1.000  C
  C385     1.0000 0.79490  0.49220  0.33930  Biso   1.000  C
  C386     1.0000 0.56230  0.47630  0.39560  Biso   1.000  C
  C387     1.0000 0.08880  0.52880  0.34740  Biso   1.000  C
  C388     1.0000 0.08700  0.49420  0.28990  Biso   1.000  C
  C389     1.0000 0.05500  0.47480  0.25470  Biso   1.000  C
  C390     1.0000 0.09500  0.45100  0.24040  Biso   1.000  C
  C391     1.0000 0.16800  0.44660  0.26130  Biso   1.000  C
  C392     1.0000 0.19960  0.46600  0.29640  Biso   1.000  C
  C393     1.0000 0.15900  0.48980  0.31070  Biso   1.000  C
  C394     1.0000 0.21600  0.41890  0.24900  Biso   1.000  C
  C395     1.0000 0.22370  0.47220  0.44460  Biso   1.000  C
  C396     1.0000 0.31300  0.46100  0.52400  Biso   1.000  C
  C397     1.0000 0.32110  0.48610  0.49110  Biso   1.000  C
  C398     1.0000 0.22250  0.36050  0.44980  Biso   1.000  C
  C399     1.0000 0.29900  0.37060  0.51900  Biso   1.000  C
  C400     1.0000 0.31480  0.34680  0.49720  Biso   1.000  C
  C401     1.0000 0.08600  0.30820  0.35210  Biso   1.000  C
  C402     1.0000 0.07370  0.34390  0.29210  Biso   1.000  C
  C403     1.0000 0.04880  0.36510  0.25800  Biso   1.000  C
  C404     1.0000 0.09800  0.38640  0.24330  Biso   1.000  C
  C405     1.0000 0.17200  0.38650  0.26260  Biso   1.000  C
  C406     1.0000 0.19690  0.36530  0.29670  Biso   1.000  C
  C407     1.0000 0.14780  0.34400  0.31140  Biso   1.000  C
  C408     1.0000 0.07600  0.41380  0.20790  Biso   1.000  C
  C409     1.0000 0.02530  0.41800  0.45860  Biso   1.000  C
  C410     1.0000 0.03620  0.41810  0.37010  Biso   1.000  C
  C411     1.0000 0.02400  0.41830  0.31420  Biso   1.000  C
  C412     1.0000 0.08500  0.41680  0.27860  Biso   1.000  C
  C413     1.0000 0.15860  0.41530  0.29900  Biso   1.000  C
  C414     1.0000 0.17080  0.41510  0.35490  Biso   1.000  C
  C415     1.0000 0.10960  0.41650  0.39050  Biso   1.000  C
  C416     1.0000 0.91200  0.26540  0.38920  Biso   1.000  C
  C417     1.0000 0.89200  0.27860  0.44800  Biso   1.000  C
  C418     1.0000 0.13430  0.44400  0.60050  Biso   1.000  C
  C419     1.0000 0.10360  0.40120  0.60110  Biso   1.000  C
  C420     1.0000 0.08800  0.37390  0.58650  Biso   1.000  C
  C421     1.0000 0.03600  0.35840  0.61700  Biso   1.000  C
  C422     1.0000 0.00000  0.37030  0.66100  Biso   1.000  C
  C423     1.0000 0.01600  0.39760  0.67570  Biso   1.000  C
  C424     1.0000 0.06700  0.41310  0.64570  Biso   1.000  C
  C425     1.0000 0.93600  0.35900  0.70100  Biso   1.000  C
  C426     1.0000 0.84430  0.52490  0.20620  Biso   1.000  C
  C427     1.0000 0.95200  0.55350  0.18600  Biso   1.000  C
  C428     1.0000 0.89300  0.55280  0.14590  Biso   1.000  C
  C429     1.0000 0.80640  0.44680  0.50860  Biso   1.000  C
  C430     1.0000 0.82570  0.40370  0.52510  Biso   1.000  C
  C431     1.0000 0.85970  0.37760  0.52860  Biso   1.000  C
  C432     1.0000 0.86600  0.36440  0.57900  Biso   1.000  C
  C433     1.0000 0.83800  0.37710  0.62540  Biso   1.000  C
  C434     1.0000 0.80400  0.40320  0.62200  Biso   1.000  C
  C435     1.0000 0.79790  0.41640  0.57190  Biso   1.000  C
  C436     1.0000 0.90700  0.33510  0.58400  Biso   1.000  C
  C437     1.0000 0.85500  0.35800  0.67700  Biso   1.000  C
  C438     1.0000 0.83820  0.31070  0.20700  Biso   1.000  C
  C439     1.0000 0.90900  0.30060  0.13930  Biso   1.000  C
  C440     1.0000 0.94930  0.29880  0.18910  Biso   1.000  C
  C441     1.0000 0.17630  0.26430  0.46550  Biso   1.000  C
  C442     1.0000 0.12100  0.27920  0.49800  Biso   1.000  C
  C443     1.0000 0.06500  0.26230  0.52800  Biso   1.000  C
  C444     1.0000 0.96000  0.27800  0.42800  Biso   1.000  C
  Zn37     1.0000 0.43144  0.18932  0.19066  Biso   1.000  Zn
  Zn38     1.0000 0.37310  0.08091  0.09006  Biso   1.000  Zn
  Zn39     1.0000 0.43122  0.97284  0.19597  Biso   1.000  Zn
  Zn40     1.0000 0.74393  0.97553  0.10564  Biso   1.000  Zn
  Zn41     1.0000 0.68835  0.08316  0.99938  Biso   1.000  Zn
  Zn42     1.0000 0.74858  0.18918  0.10569  Biso   1.000  Zn
  N145     1.0000 0.37140  0.15880  0.15740  Biso   1.000  N
  N146     1.0000 0.34620  0.11730  0.12350  Biso   1.000  N
  N147     1.0000 0.34430  0.04660  0.12890  Biso   1.000  N
  N148     1.0000 0.36760  0.00480  0.16840  Biso   1.000  N
  N149     1.0000 0.53990  0.98510  0.18850  Biso   1.000  N
  N150     1.0000 0.65590  0.98720  0.15570  Biso   1.000  N
  N151     1.0000 0.77020  0.00610  0.05260  Biso   1.000  N
  N152     1.0000 0.74170  0.04720  0.01590  Biso   1.000  N
  N153     1.0000 0.73850  0.11930  0.01290  Biso   1.000  N
  N154     1.0000 0.76670  0.16120  0.04960  Biso   1.000  N
  N155     1.0000 0.65880  0.17800  0.15080  Biso   1.000  N
  N156     1.0000 0.53890  0.17860  0.18280  Biso   1.000  N
  N157     1.0000 0.48740  0.08090  0.08760  Biso   1.000  N
  N158     1.0000 0.60150  0.08320  0.05490  Biso   1.000  N
  N159     1.0000 0.41990  0.22660  0.15950  Biso   1.000  N
  N160     1.0000 0.59230  0.05900  0.85540  Biso   1.000  N
  N161     1.0000 0.64250  0.07990  0.92730  Biso   1.000  N
  N162     1.0000 0.40480  0.96370  0.27450  Biso   1.000  N
  N163     1.0000 0.33130  0.96580  0.34550  Biso   1.000  N
  N164     1.0000 0.28620  0.05590  0.93930  Biso   1.000  N
  N165     1.0000 0.33110  0.07770  0.01470  Biso   1.000  N
  N166     1.0000 0.33570  0.19250  0.34600  Biso   1.000  N
  N167     1.0000 0.72650  0.22650  0.07520  Biso   1.000  N
  N168     1.0000 0.40550  0.19240  0.26860  Biso   1.000  N
  C445     1.0000 0.40140  0.13550  0.13860  Biso   1.000  C
  C446     1.0000 0.29400  0.15640  0.15210  Biso   1.000  C
  C447     1.0000 0.23510  0.17540  0.15760  Biso   1.000  C
  C448     1.0000 0.16220  0.16820  0.14120  Biso   1.000  C
  C449     1.0000 0.14830  0.14200  0.11940  Biso   1.000  C
  C450     1.0000 0.20720  0.12300  0.11390  Biso   1.000  C
  C451     1.0000 0.28010  0.13020  0.13030  Biso   1.000  C
  C452     1.0000 0.06760  0.13740  0.08940  Biso   1.000  C
  C453     1.0000 0.39860  0.02940  0.14740  Biso   1.000  C
  C454     1.0000 0.27840  0.03320  0.13620  Biso   1.000  C
  C455     1.0000 0.20450  0.03920  0.12030  Biso   1.000  C
  C456     1.0000 0.14720  0.01980  0.12880  Biso   1.000  C
  C457     1.0000 0.16370  0.99450  0.15330  Biso   1.000  C
  C458     1.0000 0.23760  0.98850  0.16920  Biso   1.000  C
  C459     1.0000 0.29490  0.00780  0.16070  Biso   1.000  C
  C460     1.0000 0.06230  0.02370  0.10440  Biso   1.000  C
  C461     1.0000 0.58880  0.97120  0.15260  Biso   1.000  C
  C462     1.0000 0.58700  0.00580  0.21010  Biso   1.000  C
  C463     1.0000 0.55500  0.02520  0.24530  Biso   1.000  C
  C464     1.0000 0.59500  0.04900  0.25960  Biso   1.000  C
  C465     1.0000 0.66800  0.05340  0.23870  Biso   1.000  C
  C466     1.0000 0.69960  0.03400  0.20360  Biso   1.000  C
  C467     1.0000 0.65900  0.01020  0.18930  Biso   1.000  C
  C468     1.0000 0.71600  0.08110  0.25100  Biso   1.000  C
  C469     1.0000 0.72370  0.02780  0.05540  Biso   1.000  C
  C470     1.0000 0.81300  0.03900  0.97600  Biso   1.000  C
  C471     1.0000 0.82110  0.01390  0.00890  Biso   1.000  C
  C472     1.0000 0.72250  0.13950  0.05020  Biso   1.000  C
  C473     1.0000 0.79900  0.12940  0.98100  Biso   1.000  C
  C474     1.0000 0.81480  0.15320  0.00280  Biso   1.000  C
  C475     1.0000 0.58600  0.19180  0.14790  Biso   1.000  C
  C476     1.0000 0.57370  0.15610  0.20790  Biso   1.000  C
  C477     1.0000 0.54880  0.13490  0.24200  Biso   1.000  C
  C478     1.0000 0.59800  0.11360  0.25670  Biso   1.000  C
  C479     1.0000 0.67200  0.11350  0.23740  Biso   1.000  C
  C480     1.0000 0.69690  0.13470  0.20330  Biso   1.000  C
  C481     1.0000 0.64780  0.15600  0.18860  Biso   1.000  C
  C482     1.0000 0.57600  0.08620  0.29210  Biso   1.000  C
  C483     1.0000 0.52530  0.08200  0.04140  Biso   1.000  C
  C484     1.0000 0.53620  0.08190  0.12990  Biso   1.000  C
  C485     1.0000 0.52400  0.08170  0.18580  Biso   1.000  C
  C486     1.0000 0.58500  0.08320  0.22140  Biso   1.000  C
  C487     1.0000 0.65860  0.08470  0.20100  Biso   1.000  C
  C488     1.0000 0.67080  0.08490  0.14510  Biso   1.000  C
  C489     1.0000 0.60960  0.08350  0.10950  Biso   1.000  C
  C490     1.0000 0.41200  0.23460  0.11080  Biso   1.000  C
  C491     1.0000 0.39200  0.22140  0.05200  Biso   1.000  C
  C492     1.0000 0.63430  0.05600  0.89950  Biso   1.000  C
  C493     1.0000 0.60360  0.09880  0.89890  Biso   1.000  C
  C494     1.0000 0.58800  0.12610  0.91350  Biso   1.000  C
  C495     1.0000 0.53600  0.14160  0.88300  Biso   1.000  C
  C496     1.0000 0.50000  0.12970  0.83900  Biso   1.000  C
  C497     1.0000 0.51600  0.10240  0.82430  Biso   1.000  C
  C498     1.0000 0.56700  0.08690  0.85430  Biso   1.000  C
  C499     1.0000 0.43600  0.14100  0.79900  Biso   1.000  C
  C500     1.0000 0.34430  0.97510  0.29380  Biso   1.000  C
  C501     1.0000 0.45200  0.94650  0.31400  Biso   1.000  C
  C502     1.0000 0.39300  0.94720  0.35410  Biso   1.000  C
  C503     1.0000 0.30640  0.05320  0.99140  Biso   1.000  C
  C504     1.0000 0.32570  0.09630  0.97490  Biso   1.000  C
  C505     1.0000 0.35970  0.12240  0.97140  Biso   1.000  C
  C506     1.0000 0.36600  0.13560  0.92100  Biso   1.000  C
  C507     1.0000 0.33800  0.12290  0.87460  Biso   1.000  C
  C508     1.0000 0.30400  0.09680  0.87800  Biso   1.000  C
  C509     1.0000 0.29790  0.08360  0.92810  Biso   1.000  C
  C510     1.0000 0.40700  0.16490  0.91600  Biso   1.000  C
  C511     1.0000 0.35500  0.14200  0.82300  Biso   1.000  C
  C512     1.0000 0.33820  0.18930  0.29300  Biso   1.000  C
  C513     1.0000 0.40900  0.19940  0.36070  Biso   1.000  C
  C514     1.0000 0.44930  0.20120  0.31090  Biso   1.000  C
  C515     1.0000 0.67630  0.23570  0.03450  Biso   1.000  C
  C516     1.0000 0.62100  0.22080  0.00200  Biso   1.000  C
  C517     1.0000 0.56500  0.23770  0.97200  Biso   1.000  C
  C518     1.0000 0.46000  0.22200  0.07200  Biso   1.000  C
  Zn43     1.0000 0.06856  0.81068  0.69066  Biso   1.000  Zn
  Zn44     1.0000 0.12690  0.91909  0.59006  Biso   1.000  Zn
  Zn45     1.0000 0.06878  0.02716  0.69597  Biso   1.000  Zn
  Zn46     1.0000 0.75607  0.02447  0.60564  Biso   1.000  Zn
  Zn47     1.0000 0.81165  0.91684  0.49938  Biso   1.000  Zn
  Zn48     1.0000 0.75142  0.81082  0.60569  Biso   1.000  Zn
  N169     1.0000 0.12860  0.84120  0.65740  Biso   1.000  N
  N170     1.0000 0.15380  0.88270  0.62350  Biso   1.000  N
  N171     1.0000 0.15570  0.95340  0.62890  Biso   1.000  N
  N172     1.0000 0.13240  0.99520  0.66840  Biso   1.000  N
  N173     1.0000 0.96010  0.01490  0.68850  Biso   1.000  N
  N174     1.0000 0.84410  0.01280  0.65570  Biso   1.000  N
  N175     1.0000 0.72980  0.99390  0.55260  Biso   1.000  N
  N176     1.0000 0.75830  0.95280  0.51590  Biso   1.000  N
  N177     1.0000 0.76150  0.88070  0.51290  Biso   1.000  N
  N178     1.0000 0.73330  0.83880  0.54960  Biso   1.000  N
  N179     1.0000 0.84120  0.82200  0.65080  Biso   1.000  N
  N180     1.0000 0.96110  0.82140  0.68280  Biso   1.000  N
  N181     1.0000 0.01260  0.91910  0.58760  Biso   1.000  N
  N182     1.0000 0.89850  0.91680  0.55490  Biso   1.000  N
  N183     1.0000 0.08010  0.77340  0.65950  Biso   1.000  N
  N184     1.0000 0.90770  0.94100  0.35540  Biso   1.000  N
  N185     1.0000 0.85750  0.92010  0.42730  Biso   1.000  N
  N186     1.0000 0.09520  0.03630  0.77450  Biso   1.000  N
  N187     1.0000 0.16870  0.03420  0.84550  Biso   1.000  N
  N188     1.0000 0.21380  0.94410  0.43930  Biso   1.000  N
  N189     1.0000 0.16890  0.92230  0.51470  Biso   1.000  N
  N190     1.0000 0.16430  0.80750  0.84600  Biso   1.000  N
  N191     1.0000 0.77350  0.77350  0.57520  Biso   1.000  N
  N192     1.0000 0.09450  0.80760  0.76860  Biso   1.000  N
  C519     1.0000 0.09860  0.86450  0.63860  Biso   1.000  C
  C520     1.0000 0.20600  0.84360  0.65210  Biso   1.000  C
  C521     1.0000 0.26490  0.82460  0.65760  Biso   1.000  C
  C522     1.0000 0.33780  0.83180  0.64120  Biso   1.000  C
  C523     1.0000 0.35170  0.85800  0.61940  Biso   1.000  C
  C524     1.0000 0.29280  0.87700  0.61390  Biso   1.000  C
  C525     1.0000 0.21990  0.86980  0.63030  Biso   1.000  C
  C526     1.0000 0.43240  0.86260  0.58940  Biso   1.000  C
  C527     1.0000 0.10140  0.97060  0.64740  Biso   1.000  C
  C528     1.0000 0.22160  0.96680  0.63620  Biso   1.000  C
  C529     1.0000 0.29550  0.96080  0.62030  Biso   1.000  C
  C530     1.0000 0.35280  0.98020  0.62880  Biso   1.000  C
  C531     1.0000 0.33630  0.00550  0.65330  Biso   1.000  C
  C532     1.0000 0.26240  0.01150  0.66920  Biso   1.000  C
  C533     1.0000 0.20510  0.99220  0.66070  Biso   1.000  C
  C534     1.0000 0.43770  0.97630  0.60440  Biso   1.000  C
  C535     1.0000 0.91120  0.02880  0.65260  Biso   1.000  C
  C536     1.0000 0.91300  0.99420  0.71010  Biso   1.000  C
  C537     1.0000 0.94500  0.97480  0.74530  Biso   1.000  C
  C538     1.0000 0.90500  0.95100  0.75960  Biso   1.000  C
  C539     1.0000 0.83200  0.94660  0.73870  Biso   1.000  C
  C540     1.0000 0.80040  0.96600  0.70360  Biso   1.000  C
  C541     1.0000 0.84100  0.98980  0.68930  Biso   1.000  C
  C542     1.0000 0.78400  0.91890  0.75100  Biso   1.000  C
  C543     1.0000 0.77630  0.97220  0.55540  Biso   1.000  C
  C544     1.0000 0.68700  0.96100  0.47600  Biso   1.000  C
  C545     1.0000 0.67890  0.98610  0.50890  Biso   1.000  C
  C546     1.0000 0.77750  0.86050  0.55020  Biso   1.000  C
  C547     1.0000 0.70100  0.87060  0.48100  Biso   1.000  C
  C548     1.0000 0.68520  0.84680  0.50280  Biso   1.000  C
  C549     1.0000 0.91400  0.80820  0.64790  Biso   1.000  C
  C550     1.0000 0.92630  0.84390  0.70790  Biso   1.000  C
  C551     1.0000 0.95120  0.86510  0.74200  Biso   1.000  C
  C552     1.0000 0.90200  0.88640  0.75670  Biso   1.000  C
  C553     1.0000 0.82800  0.88650  0.73740  Biso   1.000  C
  C554     1.0000 0.80310  0.86530  0.70330  Biso   1.000  C
  C555     1.0000 0.85220  0.84400  0.68860  Biso   1.000  C
  C556     1.0000 0.92400  0.91380  0.79210  Biso   1.000  C
  C557     1.0000 0.97470  0.91800  0.54140  Biso   1.000  C
  C558     1.0000 0.96380  0.91810  0.62990  Biso   1.000  C
  C559     1.0000 0.97600  0.91830  0.68580  Biso   1.000  C
  C560     1.0000 0.91500  0.91680  0.72140  Biso   1.000  C
  C561     1.0000 0.84140  0.91530  0.70100  Biso   1.000  C
  C562     1.0000 0.82920  0.91510  0.64510  Biso   1.000  C
  C563     1.0000 0.89040  0.91650  0.60950  Biso   1.000  C
  C564     1.0000 0.08800  0.76540  0.61080  Biso   1.000  C
  C565     1.0000 0.10800  0.77860  0.55200  Biso   1.000  C
  C566     1.0000 0.86570  0.94400  0.39950  Biso   1.000  C
  C567     1.0000 0.89640  0.90120  0.39890  Biso   1.000  C
  C568     1.0000 0.91200  0.87390  0.41350  Biso   1.000  C
  C569     1.0000 0.96400  0.85840  0.38300  Biso   1.000  C
  C570     1.0000 0.00000  0.87030  0.33900  Biso   1.000  C
  C571     1.0000 0.98400  0.89760  0.32430  Biso   1.000  C
  C572     1.0000 0.93300  0.91310  0.35430  Biso   1.000  C
  C573     1.0000 0.06400  0.85900  0.29900  Biso   1.000  C
  C574     1.0000 0.15570  0.02490  0.79380  Biso   1.000  C
  C575     1.0000 0.04800  0.05350  0.81400  Biso   1.000  C
  C576     1.0000 0.10700  0.05280  0.85410  Biso   1.000  C
  C577     1.0000 0.19360  0.94680  0.49140  Biso   1.000  C
  C578     1.0000 0.17430  0.90370  0.47490  Biso   1.000  C
  C579     1.0000 0.14030  0.87760  0.47140  Biso   1.000  C
  C580     1.0000 0.13400  0.86440  0.42100  Biso   1.000  C
  C581     1.0000 0.16200  0.87710  0.37460  Biso   1.000  C
  C582     1.0000 0.19600  0.90320  0.37800  Biso   1.000  C
  C583     1.0000 0.20210  0.91640  0.42810  Biso   1.000  C
  C584     1.0000 0.09300  0.83510  0.41600  Biso   1.000  C
  C585     1.0000 0.14500  0.85800  0.32300  Biso   1.000  C
  C586     1.0000 0.16180  0.81070  0.79300  Biso   1.000  C
  C587     1.0000 0.09100  0.80060  0.86070  Biso   1.000  C
  C588     1.0000 0.05070  0.79880  0.81090  Biso   1.000  C
  C589     1.0000 0.82370  0.76430  0.53450  Biso   1.000  C
  C590     1.0000 0.87900  0.77920  0.50200  Biso   1.000  C
  C591     1.0000 0.93500  0.76230  0.47200  Biso   1.000  C
  C592     1.0000 0.04000  0.77800  0.57200  Biso   1.000  C
  C593     1.0000 0.42100  0.25000  0.19250  Biso   1.000  C
  C594     1.0000 0.75350  0.25000  0.09730  Biso   1.000  C
  C595     1.0000 0.07900  0.75000  0.69250  Biso   1.000  C
  C596     1.0000 0.74650  0.75000  0.59730  Biso   1.000  C
  C597     1.0000 0.57900  0.75000  0.80750  Biso   1.000  C
  C598     1.0000 0.24650  0.75000  0.90270  Biso   1.000  C
  C599     1.0000 0.92100  0.25000  0.30750  Biso   1.000  C
  C600     1.0000 0.25350  0.25000  0.40270  Biso   1.000  C
