data_image0
_cell_length_a       19.5639
_cell_length_b       19.5639
_cell_length_c       26.8732
_cell_angle_alpha    90
_cell_angle_beta     90
_cell_angle_gamma    120

_symmetry_space_group_name_H-M    "P 1"
_symmetry_int_tables_number       1

loop_
  _symmetry_equiv_pos_as_xyz
  'x, y, z'

loop_
  _atom_site_label
  _atom_site_occupancy
  _atom_site_fract_x
  _atom_site_fract_y
  _atom_site_fract_z
  _atom_site_thermal_displace_type
  _atom_site_B_iso_or_equiv
  _atom_site_type_symbol
  Cd1      1.0000 0.28993  0.01014  0.36144  Biso   1.000  Cd
  C1       1.0000 0.99950  0.92530  0.37434  Biso   1.000  C
  H1       1.0000 0.99950  0.92230  0.33830  Biso   1.000  H
  H2       1.0000 0.99930  0.87910  0.38750  Biso   1.000  H
  C2       1.0000 0.07450  0.99960  0.39157  Biso   1.000  C
  H3       1.0000 0.07400  0.99960  0.42800  Biso   1.000  H
  C3       1.0000 0.14810  0.99810  0.37529  Biso   1.000  C
  C4       1.0000 0.38170  0.08850  0.56840  Biso   1.000  C
  C5       1.0000 0.45610  0.09790  0.56760  Biso   1.000  C
  H4       1.0000 0.48350  0.10660  0.53790  Biso   1.000  H
  C6       1.0000 0.48920  0.09410  0.61247  Biso   1.000  C
  C7       1.0000 0.44960  0.08190  0.65666  Biso   1.000  C
  H5       1.0000 0.47260  0.07960  0.68640  Biso   1.000  H
  C8       1.0000 0.37490  0.07320  0.65621  Biso   1.000  C
  C9       1.0000 0.33960  0.07690  0.61224  Biso   1.000  C
  H6       1.0000 0.28980  0.07190  0.61220  Biso   1.000  H
  C10      1.0000 0.28660  0.10750  0.51495  Biso   1.000  C
  H7       1.0000 0.26710  0.12890  0.53800  Biso   1.000  H
  C11      1.0000 0.26580  0.09060  0.46703  Biso   1.000  C
  H8       1.0000 0.22830  0.09900  0.45130  Biso   1.000  H
  C12      1.0000 0.35350  0.05760  0.47880  Biso   1.000  C
  H9       1.0000 0.38870  0.03940  0.47410  Biso   1.000  H
  C13      1.0000 0.62910  0.14840  0.58140  Biso   1.000  C
  H10      1.0000 0.63410  0.18850  0.56050  Biso   1.000  H
  C14      1.0000 0.68300  0.12460  0.58900  Biso   1.000  C
  H11      1.0000 0.73220  0.14680  0.57380  Biso   1.000  H
  C15      1.0000 0.58220  0.04830  0.63170  Biso   1.000  C
  H12      1.0000 0.54700  0.00560  0.65100  Biso   1.000  H
  C16      1.0000 0.24120  0.00320  0.70040  Biso   1.000  C
  H13      1.0000 0.20820  0.98460  0.67280  Biso   1.000  H
  C17      1.0000 0.22070  0.98870  0.74870  Biso   1.000  C
  H14      1.0000 0.16960  0.95820  0.76100  Biso   1.000  H
  C18      1.0000 0.34700  0.04590  0.74649  Biso   1.000  C
  H15      1.0000 0.39490  0.04940  0.75450  Biso   1.000  H
  C19      1.0000 0.61780  0.36610  0.32230  Biso   1.000  C
  H16      1.0000 0.58530  0.38810  0.32090  Biso   1.000  H
  C20      1.0000 0.58600  0.28550  0.32330  Biso   1.000  C
  C21      1.0000 0.44830  0.25320  0.30550  Biso   1.000  C
  H17      1.0000 0.45720  0.29860  0.28890  Biso   1.000  H
  C22      1.0000 0.37670  0.18800  0.31770  Biso   1.000  C
  H18      1.0000 0.32780  0.18420  0.31340  Biso   1.000  H
  C23      1.0000 0.46420  0.16100  0.33800  Biso   1.000  C
  H19      1.0000 0.48890  0.13330  0.34820  Biso   1.000  H
  N1       1.0000 0.30720  0.05930  0.44402  Biso   1.000  N
  N2       1.0000 0.34310  0.08600  0.52248  Biso   1.000  N
  N3       1.0000 0.65480  0.06460  0.62154  Biso   1.000  N
  N4       1.0000 0.56520  0.09980  0.61142  Biso   1.000  N
  N5       1.0000 0.29440  0.03030  0.77921  Biso   1.000  N
  N6       1.0000 0.33040  0.05670  0.70088  Biso   1.000  N
  N7       1.0000 0.38800  0.13020  0.33680  Biso   1.000  N
  N8       1.0000 0.50340  0.23570  0.32340  Biso   1.000  N
  O1       1.0000 0.20255  0.05852  0.35486  Biso   1.000  O
  O2       1.0000 0.15295  0.93704  0.38453  Biso   1.000  O
  C24      1.0000 0.28200  0.09120  0.71170  Biso   1.000  C
  H20      1.0000 0.26800  0.11910  0.68990  Biso   1.000  H
  C25      1.0000 0.26150  0.07450  0.75960  Biso   1.000  C
  H21      1.0000 0.23040  0.08970  0.77730  Biso   1.000  H
  Cd2      1.0000 0.98986  0.27979  0.36144  Biso   1.000  Cd
  C26      1.0000 0.07470  0.07420  0.37434  Biso   1.000  C
  H22      1.0000 0.07770  0.07720  0.33830  Biso   1.000  H
  H23      1.0000 0.12090  0.12020  0.38750  Biso   1.000  H
  C27      1.0000 0.00040  0.07490  0.39157  Biso   1.000  C
  H24      1.0000 0.00040  0.07440  0.42800  Biso   1.000  H
  C28      1.0000 0.00190  0.15000  0.37529  Biso   1.000  C
  C29      1.0000 0.91150  0.29320  0.56840  Biso   1.000  C
  C30      1.0000 0.90210  0.35820  0.56760  Biso   1.000  C
  H25      1.0000 0.89340  0.37690  0.53790  Biso   1.000  H
  C31      1.0000 0.90590  0.39510  0.61247  Biso   1.000  C
  C32      1.0000 0.91810  0.36770  0.65666  Biso   1.000  C
  H26      1.0000 0.92040  0.39300  0.68640  Biso   1.000  H
  C33      1.0000 0.92680  0.30170  0.65621  Biso   1.000  C
  C34      1.0000 0.92310  0.26270  0.61224  Biso   1.000  C
  H27      1.0000 0.92810  0.21790  0.61220  Biso   1.000  H
  C35      1.0000 0.89250  0.17910  0.51495  Biso   1.000  C
  H28      1.0000 0.87110  0.13820  0.53800  Biso   1.000  H
  C36      1.0000 0.90940  0.17520  0.46703  Biso   1.000  C
  H29      1.0000 0.90100  0.12930  0.45130  Biso   1.000  H
  C37      1.0000 0.94240  0.29590  0.47880  Biso   1.000  C
  H30      1.0000 0.96060  0.34930  0.47410  Biso   1.000  H
  C38      1.0000 0.85160  0.48070  0.58140  Biso   1.000  C
  H31      1.0000 0.81150  0.44560  0.56050  Biso   1.000  H
  C39      1.0000 0.87540  0.55840  0.58900  Biso   1.000  C
  H32      1.0000 0.85320  0.58540  0.57380  Biso   1.000  H
  C40      1.0000 0.95170  0.53390  0.63170  Biso   1.000  C
  H33      1.0000 0.99440  0.54140  0.65100  Biso   1.000  H
  C41      1.0000 0.99680  0.23800  0.70040  Biso   1.000  C
  H34      1.0000 0.01540  0.22360  0.67280  Biso   1.000  H
  C42      1.0000 0.01130  0.23200  0.74870  Biso   1.000  C
  H35      1.0000 0.04180  0.21140  0.76100  Biso   1.000  H
  C43      1.0000 0.95410  0.30110  0.74649  Biso   1.000  C
  H36      1.0000 0.95060  0.34550  0.75450  Biso   1.000  H
  C44      1.0000 0.63390  0.25170  0.32230  Biso   1.000  C
  H37      1.0000 0.61190  0.19720  0.32090  Biso   1.000  H
  C45      1.0000 0.71450  0.30050  0.32330  Biso   1.000  C
  C46      1.0000 0.74680  0.19510  0.30550  Biso   1.000  C
  H38      1.0000 0.70140  0.15860  0.28890  Biso   1.000  H
  C47      1.0000 0.81200  0.18870  0.31770  Biso   1.000  C
  H39      1.0000 0.81580  0.14360  0.31340  Biso   1.000  H
  C48      1.0000 0.83900  0.30320  0.33800  Biso   1.000  C
  H40      1.0000 0.86670  0.35560  0.34820  Biso   1.000  H
  N9       1.0000 0.94070  0.24790  0.44402  Biso   1.000  N
  N10      1.0000 0.91400  0.25710  0.52248  Biso   1.000  N
  N11      1.0000 0.93540  0.59020  0.62154  Biso   1.000  N
  N12      1.0000 0.90020  0.46540  0.61142  Biso   1.000  N
  N13      1.0000 0.96970  0.26410  0.77921  Biso   1.000  N
  N14      1.0000 0.94330  0.27370  0.70088  Biso   1.000  N
  N15      1.0000 0.86980  0.25780  0.33680  Biso   1.000  N
  N16      1.0000 0.76430  0.26770  0.32340  Biso   1.000  N
  O3       1.0000 0.94148  0.14403  0.35486  Biso   1.000  O
  O4       1.0000 0.06296  0.21591  0.38453  Biso   1.000  O
  C49      1.0000 0.90880  0.19080  0.71170  Biso   1.000  C
  H41      1.0000 0.88090  0.14890  0.68990  Biso   1.000  H
  C50      1.0000 0.92550  0.18700  0.75960  Biso   1.000  C
  H42      1.0000 0.91030  0.14070  0.77730  Biso   1.000  H
  Cd3      1.0000 0.72021  0.71007  0.36144  Biso   1.000  Cd
  C51      1.0000 0.92580  0.00050  0.37434  Biso   1.000  C
  H43      1.0000 0.92280  0.00050  0.33830  Biso   1.000  H
  H44      1.0000 0.87980  0.00070  0.38750  Biso   1.000  H
  C52      1.0000 0.92510  0.92550  0.39157  Biso   1.000  C
  H45      1.0000 0.92560  0.92600  0.42800  Biso   1.000  H
  C53      1.0000 0.85000  0.85190  0.37529  Biso   1.000  C
  C54      1.0000 0.70680  0.61830  0.56840  Biso   1.000  C
  C55      1.0000 0.64180  0.54390  0.56760  Biso   1.000  C
  H46      1.0000 0.62310  0.51650  0.53790  Biso   1.000  H
  C56      1.0000 0.60490  0.51080  0.61247  Biso   1.000  C
  C57      1.0000 0.63230  0.55040  0.65666  Biso   1.000  C
  H47      1.0000 0.60700  0.52740  0.68640  Biso   1.000  H
  C58      1.0000 0.69830  0.62510  0.65621  Biso   1.000  C
  C59      1.0000 0.73730  0.66040  0.61224  Biso   1.000  C
  H48      1.0000 0.78210  0.71020  0.61220  Biso   1.000  H
  C60      1.0000 0.82090  0.71340  0.51495  Biso   1.000  C
  H49      1.0000 0.86180  0.73290  0.53800  Biso   1.000  H
  C61      1.0000 0.82480  0.73420  0.46703  Biso   1.000  C
  H50      1.0000 0.87070  0.77170  0.45130  Biso   1.000  H
  C62      1.0000 0.70410  0.64650  0.47880  Biso   1.000  C
  H51      1.0000 0.65070  0.61130  0.47410  Biso   1.000  H
  C63      1.0000 0.51930  0.37090  0.58140  Biso   1.000  C
  H52      1.0000 0.55440  0.36590  0.56050  Biso   1.000  H
  C64      1.0000 0.44160  0.31700  0.58900  Biso   1.000  C
  H53      1.0000 0.41460  0.26780  0.57380  Biso   1.000  H
  C65      1.0000 0.46610  0.41780  0.63170  Biso   1.000  C
  H54      1.0000 0.45860  0.45300  0.65100  Biso   1.000  H
  C66      1.0000 0.76200  0.75880  0.70040  Biso   1.000  C
  H55      1.0000 0.77640  0.79180  0.67280  Biso   1.000  H
  C67      1.0000 0.76800  0.77930  0.74870  Biso   1.000  C
  H56      1.0000 0.78860  0.83040  0.76100  Biso   1.000  H
  C68      1.0000 0.69890  0.65300  0.74649  Biso   1.000  C
  H57      1.0000 0.65450  0.60510  0.75450  Biso   1.000  H
  C69      1.0000 0.74830  0.38220  0.32230  Biso   1.000  C
  H58      1.0000 0.80280  0.41470  0.32090  Biso   1.000  H
  C70      1.0000 0.69950  0.41400  0.32330  Biso   1.000  C
  C71      1.0000 0.80490  0.55170  0.30550  Biso   1.000  C
  H59      1.0000 0.84140  0.54280  0.28890  Biso   1.000  H
  C72      1.0000 0.81130  0.62330  0.31770  Biso   1.000  C
  H60      1.0000 0.85640  0.67220  0.31340  Biso   1.000  H
  C73      1.0000 0.69680  0.53580  0.33800  Biso   1.000  C
  H61      1.0000 0.64440  0.51110  0.34820  Biso   1.000  H
  N17      1.0000 0.75210  0.69280  0.44402  Biso   1.000  N
  N18      1.0000 0.74290  0.65690  0.52248  Biso   1.000  N
  N19      1.0000 0.40980  0.34520  0.62154  Biso   1.000  N
  N20      1.0000 0.53460  0.43480  0.61142  Biso   1.000  N
  N21      1.0000 0.73590  0.70560  0.77921  Biso   1.000  N
  N22      1.0000 0.72630  0.66960  0.70088  Biso   1.000  N
  N23      1.0000 0.74220  0.61200  0.33680  Biso   1.000  N
  N24      1.0000 0.73230  0.49660  0.32340  Biso   1.000  N
  O5       1.0000 0.85597  0.79745  0.35486  Biso   1.000  O
  O6       1.0000 0.78409  0.84705  0.38453  Biso   1.000  O
  C74      1.0000 0.80920  0.71800  0.71170  Biso   1.000  C
  H62      1.0000 0.85110  0.73200  0.68990  Biso   1.000  H
  C75      1.0000 0.81300  0.73850  0.75960  Biso   1.000  C
  H63      1.0000 0.85930  0.76960  0.77730  Biso   1.000  H
  Cd4      1.0000 0.98986  0.71007  0.13856  Biso   1.000  Cd
  C76      1.0000 0.07470  0.00050  0.12566  Biso   1.000  C
  H64      1.0000 0.07770  0.00050  0.16170  Biso   1.000  H
  H65      1.0000 0.12090  0.00070  0.11250  Biso   1.000  H
  C77      1.0000 0.00040  0.92550  0.10843  Biso   1.000  C
  H66      1.0000 0.00040  0.92600  0.07200  Biso   1.000  H
  C78      1.0000 0.00190  0.85190  0.12471  Biso   1.000  C
  C79      1.0000 0.91150  0.61830  0.93160  Biso   1.000  C
  C80      1.0000 0.90210  0.54390  0.93240  Biso   1.000  C
  H67      1.0000 0.89340  0.51650  0.96210  Biso   1.000  H
  C81      1.0000 0.90590  0.51080  0.88753  Biso   1.000  C
  C82      1.0000 0.91810  0.55040  0.84334  Biso   1.000  C
  H68      1.0000 0.92040  0.52740  0.81360  Biso   1.000  H
  C83      1.0000 0.92680  0.62510  0.84379  Biso   1.000  C
  C84      1.0000 0.92310  0.66040  0.88776  Biso   1.000  C
  H69      1.0000 0.92810  0.71020  0.88780  Biso   1.000  H
  C85      1.0000 0.89250  0.71340  0.98505  Biso   1.000  C
  H70      1.0000 0.87110  0.73290  0.96200  Biso   1.000  H
  C86      1.0000 0.90940  0.73420  0.03297  Biso   1.000  C
  H71      1.0000 0.90100  0.77170  0.04870  Biso   1.000  H
  C87      1.0000 0.94240  0.64650  0.02120  Biso   1.000  C
  H72      1.0000 0.96060  0.61130  0.02590  Biso   1.000  H
  C88      1.0000 0.85160  0.37090  0.91860  Biso   1.000  C
  H73      1.0000 0.81150  0.36590  0.93950  Biso   1.000  H
  C89      1.0000 0.87540  0.31700  0.91100  Biso   1.000  C
  H74      1.0000 0.85320  0.26780  0.92620  Biso   1.000  H
  C90      1.0000 0.95170  0.41780  0.86830  Biso   1.000  C
  H75      1.0000 0.99440  0.45300  0.84900  Biso   1.000  H
  C91      1.0000 0.99680  0.75880  0.79960  Biso   1.000  C
  H76      1.0000 0.01540  0.79180  0.82720  Biso   1.000  H
  C92      1.0000 0.01130  0.77930  0.75130  Biso   1.000  C
  H77      1.0000 0.04180  0.83040  0.73900  Biso   1.000  H
  C93      1.0000 0.95410  0.65300  0.75351  Biso   1.000  C
  H78      1.0000 0.95060  0.60510  0.74550  Biso   1.000  H
  C94      1.0000 0.63390  0.38220  0.17770  Biso   1.000  C
  H79      1.0000 0.61190  0.41470  0.17910  Biso   1.000  H
  C95      1.0000 0.71450  0.41400  0.17670  Biso   1.000  C
  C96      1.0000 0.74680  0.55170  0.19450  Biso   1.000  C
  H80      1.0000 0.70140  0.54280  0.21110  Biso   1.000  H
  C97      1.0000 0.81200  0.62330  0.18230  Biso   1.000  C
  H81      1.0000 0.81580  0.67220  0.18660  Biso   1.000  H
  C98      1.0000 0.83900  0.53580  0.16200  Biso   1.000  C
  H82      1.0000 0.86670  0.51110  0.15180  Biso   1.000  H
  N25      1.0000 0.94070  0.69280  0.05598  Biso   1.000  N
  N26      1.0000 0.91400  0.65690  0.97752  Biso   1.000  N
  N27      1.0000 0.93540  0.34520  0.87846  Biso   1.000  N
  N28      1.0000 0.90020  0.43480  0.88858  Biso   1.000  N
  N29      1.0000 0.96970  0.70560  0.72079  Biso   1.000  N
  N30      1.0000 0.94330  0.66960  0.79912  Biso   1.000  N
  N31      1.0000 0.86980  0.61200  0.16320  Biso   1.000  N
  N32      1.0000 0.76430  0.49660  0.17660  Biso   1.000  N
  O7       1.0000 0.94148  0.79745  0.14514  Biso   1.000  O
  O8       1.0000 0.06296  0.84705  0.11547  Biso   1.000  O
  C99      1.0000 0.90880  0.71800  0.78830  Biso   1.000  C
  H83      1.0000 0.88090  0.73200  0.81010  Biso   1.000  H
  C100     1.0000 0.92550  0.73850  0.74040  Biso   1.000  C
  H84      1.0000 0.91030  0.76960  0.72270  Biso   1.000  H
  Cd5      1.0000 0.72021  0.01014  0.13856  Biso   1.000  Cd
  C101     1.0000 0.92580  0.92530  0.12566  Biso   1.000  C
  H85      1.0000 0.92280  0.92230  0.16170  Biso   1.000  H
  H86      1.0000 0.87980  0.87910  0.11250  Biso   1.000  H
  C102     1.0000 0.92510  0.99960  0.10843  Biso   1.000  C
  H87      1.0000 0.92560  0.99960  0.07200  Biso   1.000  H
  C103     1.0000 0.85000  0.99810  0.12471  Biso   1.000  C
  C104     1.0000 0.70680  0.08850  0.93160  Biso   1.000  C
  C105     1.0000 0.64180  0.09790  0.93240  Biso   1.000  C
  H88      1.0000 0.62310  0.10660  0.96210  Biso   1.000  H
  C106     1.0000 0.60490  0.09410  0.88753  Biso   1.000  C
  C107     1.0000 0.63230  0.08190  0.84334  Biso   1.000  C
  H89      1.0000 0.60700  0.07960  0.81360  Biso   1.000  H
  C108     1.0000 0.69830  0.07320  0.84379  Biso   1.000  C
  C109     1.0000 0.73730  0.07690  0.88776  Biso   1.000  C
  H90      1.0000 0.78210  0.07190  0.88780  Biso   1.000  H
  C110     1.0000 0.82090  0.10750  0.98505  Biso   1.000  C
  H91      1.0000 0.86180  0.12890  0.96200  Biso   1.000  H
  C111     1.0000 0.82480  0.09060  0.03297  Biso   1.000  C
  H92      1.0000 0.87070  0.09900  0.04870  Biso   1.000  H
  C112     1.0000 0.70410  0.05760  0.02120  Biso   1.000  C
  H93      1.0000 0.65070  0.03940  0.02590  Biso   1.000  H
  C113     1.0000 0.51930  0.14840  0.91860  Biso   1.000  C
  H94      1.0000 0.55440  0.18850  0.93950  Biso   1.000  H
  C114     1.0000 0.44160  0.12460  0.91100  Biso   1.000  C
  H95      1.0000 0.41460  0.14680  0.92620  Biso   1.000  H
  C115     1.0000 0.46610  0.04830  0.86830  Biso   1.000  C
  H96      1.0000 0.45860  0.00560  0.84900  Biso   1.000  H
  C116     1.0000 0.76200  0.00320  0.79960  Biso   1.000  C
  H97      1.0000 0.77640  0.98460  0.82720  Biso   1.000  H
  C117     1.0000 0.76800  0.98870  0.75130  Biso   1.000  C
  H98      1.0000 0.78860  0.95820  0.73900  Biso   1.000  H
  C118     1.0000 0.69890  0.04590  0.75351  Biso   1.000  C
  H99      1.0000 0.65450  0.04940  0.74550  Biso   1.000  H
  C119     1.0000 0.74830  0.36610  0.17770  Biso   1.000  C
  H100     1.0000 0.80280  0.38810  0.17910  Biso   1.000  H
  C120     1.0000 0.69950  0.28550  0.17670  Biso   1.000  C
  C121     1.0000 0.80490  0.25320  0.19450  Biso   1.000  C
  H101     1.0000 0.84140  0.29860  0.21110  Biso   1.000  H
  C122     1.0000 0.81130  0.18800  0.18230  Biso   1.000  C
  H102     1.0000 0.85640  0.18420  0.18660  Biso   1.000  H
  C123     1.0000 0.69680  0.16100  0.16200  Biso   1.000  C
  H103     1.0000 0.64440  0.13330  0.15180  Biso   1.000  H
  N33      1.0000 0.75210  0.05930  0.05598  Biso   1.000  N
  N34      1.0000 0.74290  0.08600  0.97752  Biso   1.000  N
  N35      1.0000 0.40980  0.06460  0.87846  Biso   1.000  N
  N36      1.0000 0.53460  0.09980  0.88858  Biso   1.000  N
  N37      1.0000 0.73590  0.03030  0.72079  Biso   1.000  N
  N38      1.0000 0.72630  0.05670  0.79912  Biso   1.000  N
  N39      1.0000 0.74220  0.13020  0.16320  Biso   1.000  N
  N40      1.0000 0.73230  0.23570  0.17660  Biso   1.000  N
  O9       1.0000 0.85597  0.05852  0.14514  Biso   1.000  O
  O10      1.0000 0.78409  0.93704  0.11547  Biso   1.000  O
  C124     1.0000 0.80920  0.09120  0.78830  Biso   1.000  C
  H104     1.0000 0.85110  0.11910  0.81010  Biso   1.000  H
  C125     1.0000 0.81300  0.07450  0.74040  Biso   1.000  C
  H105     1.0000 0.85930  0.08970  0.72270  Biso   1.000  H
  Cd6      1.0000 0.28993  0.27979  0.13856  Biso   1.000  Cd
  C126     1.0000 0.99950  0.07420  0.12566  Biso   1.000  C
  H106     1.0000 0.99950  0.07720  0.16170  Biso   1.000  H
  H107     1.0000 0.99930  0.12020  0.11250  Biso   1.000  H
  C127     1.0000 0.07450  0.07490  0.10843  Biso   1.000  C
  H108     1.0000 0.07400  0.07440  0.07200  Biso   1.000  H
  C128     1.0000 0.14810  0.15000  0.12471  Biso   1.000  C
  C129     1.0000 0.38170  0.29320  0.93160  Biso   1.000  C
  C130     1.0000 0.45610  0.35820  0.93240  Biso   1.000  C
  H109     1.0000 0.48350  0.37690  0.96210  Biso   1.000  H
  C131     1.0000 0.48920  0.39510  0.88753  Biso   1.000  C
  C132     1.0000 0.44960  0.36770  0.84334  Biso   1.000  C
  H110     1.0000 0.47260  0.39300  0.81360  Biso   1.000  H
  C133     1.0000 0.37490  0.30170  0.84379  Biso   1.000  C
  C134     1.0000 0.33960  0.26270  0.88776  Biso   1.000  C
  H111     1.0000 0.28980  0.21790  0.88780  Biso   1.000  H
  C135     1.0000 0.28660  0.17910  0.98505  Biso   1.000  C
  H112     1.0000 0.26710  0.13820  0.96200  Biso   1.000  H
  C136     1.0000 0.26580  0.17520  0.03297  Biso   1.000  C
  H113     1.0000 0.22830  0.12930  0.04870  Biso   1.000  H
  C137     1.0000 0.35350  0.29590  0.02120  Biso   1.000  C
  H114     1.0000 0.38870  0.34930  0.02590  Biso   1.000  H
  C138     1.0000 0.62910  0.48070  0.91860  Biso   1.000  C
  H115     1.0000 0.63410  0.44560  0.93950  Biso   1.000  H
  C139     1.0000 0.68300  0.55840  0.91100  Biso   1.000  C
  H116     1.0000 0.73220  0.58540  0.92620  Biso   1.000  H
  C140     1.0000 0.58220  0.53390  0.86830  Biso   1.000  C
  H117     1.0000 0.54700  0.54140  0.84900  Biso   1.000  H
  C141     1.0000 0.24120  0.23800  0.79960  Biso   1.000  C
  H118     1.0000 0.20820  0.22360  0.82720  Biso   1.000  H
  C142     1.0000 0.22070  0.23200  0.75130  Biso   1.000  C
  H119     1.0000 0.16960  0.21140  0.73900  Biso   1.000  H
  C143     1.0000 0.34700  0.30110  0.75351  Biso   1.000  C
  H120     1.0000 0.39490  0.34550  0.74550  Biso   1.000  H
  C144     1.0000 0.61780  0.25170  0.17770  Biso   1.000  C
  H121     1.0000 0.58530  0.19720  0.17910  Biso   1.000  H
  C145     1.0000 0.58600  0.30050  0.17670  Biso   1.000  C
  C146     1.0000 0.44830  0.19510  0.19450  Biso   1.000  C
  H122     1.0000 0.45720  0.15860  0.21110  Biso   1.000  H
  C147     1.0000 0.37670  0.18870  0.18230  Biso   1.000  C
  H123     1.0000 0.32780  0.14360  0.18660  Biso   1.000  H
  C148     1.0000 0.46420  0.30320  0.16200  Biso   1.000  C
  H124     1.0000 0.48890  0.35560  0.15180  Biso   1.000  H
  N41      1.0000 0.30720  0.24790  0.05598  Biso   1.000  N
  N42      1.0000 0.34310  0.25710  0.97752  Biso   1.000  N
  N43      1.0000 0.65480  0.59020  0.87846  Biso   1.000  N
  N44      1.0000 0.56520  0.46540  0.88858  Biso   1.000  N
  N45      1.0000 0.29440  0.26410  0.72079  Biso   1.000  N
  N46      1.0000 0.33040  0.27370  0.79912  Biso   1.000  N
  N47      1.0000 0.38800  0.25780  0.16320  Biso   1.000  N
  N48      1.0000 0.50340  0.26770  0.17660  Biso   1.000  N
  O11      1.0000 0.20255  0.14403  0.14514  Biso   1.000  O
  O12      1.0000 0.15295  0.21591  0.11547  Biso   1.000  O
  C149     1.0000 0.28200  0.19080  0.78830  Biso   1.000  C
  H125     1.0000 0.26800  0.14890  0.81010  Biso   1.000  H
  C150     1.0000 0.26150  0.18700  0.74040  Biso   1.000  C
  H126     1.0000 0.23040  0.14070  0.72270  Biso   1.000  H
  Cd7      1.0000 0.71007  0.98986  0.63856  Biso   1.000  Cd
  C151     1.0000 0.00050  0.07470  0.62566  Biso   1.000  C
  H127     1.0000 0.00050  0.07770  0.66170  Biso   1.000  H
  H128     1.0000 0.00070  0.12090  0.61250  Biso   1.000  H
  C152     1.0000 0.92550  0.00040  0.60843  Biso   1.000  C
  H129     1.0000 0.92600  0.00040  0.57200  Biso   1.000  H
  C153     1.0000 0.85190  0.00190  0.62471  Biso   1.000  C
  C154     1.0000 0.61830  0.91150  0.43160  Biso   1.000  C
  C155     1.0000 0.54390  0.90210  0.43240  Biso   1.000  C
  H130     1.0000 0.51650  0.89340  0.46210  Biso   1.000  H
  C156     1.0000 0.51080  0.90590  0.38753  Biso   1.000  C
  C157     1.0000 0.55040  0.91810  0.34334  Biso   1.000  C
  H131     1.0000 0.52740  0.92040  0.31360  Biso   1.000  H
  C158     1.0000 0.62510  0.92680  0.34379  Biso   1.000  C
  C159     1.0000 0.66040  0.92310  0.38776  Biso   1.000  C
  H132     1.0000 0.71020  0.92810  0.38780  Biso   1.000  H
  C160     1.0000 0.71340  0.89250  0.48505  Biso   1.000  C
  H133     1.0000 0.73290  0.87110  0.46200  Biso   1.000  H
  C161     1.0000 0.73420  0.90940  0.53297  Biso   1.000  C
  H134     1.0000 0.77170  0.90100  0.54870  Biso   1.000  H
  C162     1.0000 0.64650  0.94240  0.52120  Biso   1.000  C
  H135     1.0000 0.61130  0.96060  0.52590  Biso   1.000  H
  C163     1.0000 0.37090  0.85160  0.41860  Biso   1.000  C
  H136     1.0000 0.36590  0.81150  0.43950  Biso   1.000  H
  C164     1.0000 0.31700  0.87540  0.41100  Biso   1.000  C
  H137     1.0000 0.26780  0.85320  0.42620  Biso   1.000  H
  C165     1.0000 0.41780  0.95170  0.36830  Biso   1.000  C
  H138     1.0000 0.45300  0.99440  0.34900  Biso   1.000  H
  C166     1.0000 0.75880  0.99680  0.29960  Biso   1.000  C
  H139     1.0000 0.79180  0.01540  0.32720  Biso   1.000  H
  C167     1.0000 0.77930  0.01130  0.25130  Biso   1.000  C
  H140     1.0000 0.83040  0.04180  0.23900  Biso   1.000  H
  C168     1.0000 0.65300  0.95410  0.25351  Biso   1.000  C
  H141     1.0000 0.60510  0.95060  0.24550  Biso   1.000  H
  C169     1.0000 0.38220  0.63390  0.67770  Biso   1.000  C
  H142     1.0000 0.41470  0.61190  0.67910  Biso   1.000  H
  C170     1.0000 0.41400  0.71450  0.67670  Biso   1.000  C
  C171     1.0000 0.55170  0.74680  0.69450  Biso   1.000  C
  H143     1.0000 0.54280  0.70140  0.71110  Biso   1.000  H
  C172     1.0000 0.62330  0.81200  0.68230  Biso   1.000  C
  H144     1.0000 0.67220  0.81580  0.68660  Biso   1.000  H
  C173     1.0000 0.53580  0.83900  0.66200  Biso   1.000  C
  H145     1.0000 0.51110  0.86670  0.65180  Biso   1.000  H
  N49      1.0000 0.69280  0.94070  0.55598  Biso   1.000  N
  N50      1.0000 0.65690  0.91400  0.47752  Biso   1.000  N
  N51      1.0000 0.34520  0.93540  0.37846  Biso   1.000  N
  N52      1.0000 0.43480  0.90020  0.38858  Biso   1.000  N
  N53      1.0000 0.70560  0.96970  0.22079  Biso   1.000  N
  N54      1.0000 0.66960  0.94330  0.29912  Biso   1.000  N
  N55      1.0000 0.61200  0.86980  0.66320  Biso   1.000  N
  N56      1.0000 0.49660  0.76430  0.67660  Biso   1.000  N
  O13      1.0000 0.79745  0.94148  0.64514  Biso   1.000  O
  O14      1.0000 0.84705  0.06296  0.61547  Biso   1.000  O
  C174     1.0000 0.71800  0.90880  0.28830  Biso   1.000  C
  H146     1.0000 0.73200  0.88090  0.31010  Biso   1.000  H
  C175     1.0000 0.73850  0.92550  0.24040  Biso   1.000  C
  H147     1.0000 0.76960  0.91030  0.22270  Biso   1.000  H
  Cd8      1.0000 0.01014  0.72021  0.63856  Biso   1.000  Cd
  C176     1.0000 0.92530  0.92580  0.62566  Biso   1.000  C
  H148     1.0000 0.92230  0.92280  0.66170  Biso   1.000  H
  H149     1.0000 0.87910  0.87980  0.61250  Biso   1.000  H
  C177     1.0000 0.99960  0.92510  0.60843  Biso   1.000  C
  H150     1.0000 0.99960  0.92560  0.57200  Biso   1.000  H
  C178     1.0000 0.99810  0.85000  0.62471  Biso   1.000  C
  C179     1.0000 0.08850  0.70680  0.43160  Biso   1.000  C
  C180     1.0000 0.09790  0.64180  0.43240  Biso   1.000  C
  H151     1.0000 0.10660  0.62310  0.46210  Biso   1.000  H
  C181     1.0000 0.09410  0.60490  0.38753  Biso   1.000  C
  C182     1.0000 0.08190  0.63230  0.34334  Biso   1.000  C
  H152     1.0000 0.07960  0.60700  0.31360  Biso   1.000  H
  C183     1.0000 0.07320  0.69830  0.34379  Biso   1.000  C
  C184     1.0000 0.07690  0.73730  0.38776  Biso   1.000  C
  H153     1.0000 0.07190  0.78210  0.38780  Biso   1.000  H
  C185     1.0000 0.10750  0.82090  0.48505  Biso   1.000  C
  H154     1.0000 0.12890  0.86180  0.46200  Biso   1.000  H
  C186     1.0000 0.09060  0.82480  0.53297  Biso   1.000  C
  H155     1.0000 0.09900  0.87070  0.54870  Biso   1.000  H
  C187     1.0000 0.05760  0.70410  0.52120  Biso   1.000  C
  H156     1.0000 0.03940  0.65070  0.52590  Biso   1.000  H
  C188     1.0000 0.14840  0.51930  0.41860  Biso   1.000  C
  H157     1.0000 0.18850  0.55440  0.43950  Biso   1.000  H
  C189     1.0000 0.12460  0.44160  0.41100  Biso   1.000  C
  H158     1.0000 0.14680  0.41460  0.42620  Biso   1.000  H
  C190     1.0000 0.04830  0.46610  0.36830  Biso   1.000  C
  H159     1.0000 0.00560  0.45860  0.34900  Biso   1.000  H
  C191     1.0000 0.00320  0.76200  0.29960  Biso   1.000  C
  H160     1.0000 0.98460  0.77640  0.32720  Biso   1.000  H
  C192     1.0000 0.98870  0.76800  0.25130  Biso   1.000  C
  H161     1.0000 0.95820  0.78860  0.23900  Biso   1.000  H
  C193     1.0000 0.04590  0.69890  0.25351  Biso   1.000  C
  H162     1.0000 0.04940  0.65450  0.24550  Biso   1.000  H
  C194     1.0000 0.36610  0.74830  0.67770  Biso   1.000  C
  H163     1.0000 0.38810  0.80280  0.67910  Biso   1.000  H
  C195     1.0000 0.28550  0.69950  0.67670  Biso   1.000  C
  C196     1.0000 0.25320  0.80490  0.69450  Biso   1.000  C
  H164     1.0000 0.29860  0.84140  0.71110  Biso   1.000  H
  C197     1.0000 0.18800  0.81130  0.68230  Biso   1.000  C
  H165     1.0000 0.18420  0.85640  0.68660  Biso   1.000  H
  C198     1.0000 0.16100  0.69680  0.66200  Biso   1.000  C
  H166     1.0000 0.13330  0.64440  0.65180  Biso   1.000  H
  N57      1.0000 0.05930  0.75210  0.55598  Biso   1.000  N
  N58      1.0000 0.08600  0.74290  0.47752  Biso   1.000  N
  N59      1.0000 0.06460  0.40980  0.37846  Biso   1.000  N
  N60      1.0000 0.09980  0.53460  0.38858  Biso   1.000  N
  N61      1.0000 0.03030  0.73590  0.22079  Biso   1.000  N
  N62      1.0000 0.05670  0.72630  0.29912  Biso   1.000  N
  N63      1.0000 0.13020  0.74220  0.66320  Biso   1.000  N
  N64      1.0000 0.23570  0.73230  0.67660  Biso   1.000  N
  O15      1.0000 0.05852  0.85597  0.64514  Biso   1.000  O
  O16      1.0000 0.93704  0.78409  0.61547  Biso   1.000  O
  C199     1.0000 0.09120  0.80920  0.28830  Biso   1.000  C
  H167     1.0000 0.11910  0.85110  0.31010  Biso   1.000  H
  C200     1.0000 0.07450  0.81300  0.24040  Biso   1.000  C
  H168     1.0000 0.08970  0.85930  0.22270  Biso   1.000  H
  Cd9      1.0000 0.27979  0.28993  0.63856  Biso   1.000  Cd
  C201     1.0000 0.07420  0.99950  0.62566  Biso   1.000  C
  H169     1.0000 0.07720  0.99950  0.66170  Biso   1.000  H
  H170     1.0000 0.12020  0.99930  0.61250  Biso   1.000  H
  C202     1.0000 0.07490  0.07450  0.60843  Biso   1.000  C
  H171     1.0000 0.07440  0.07400  0.57200  Biso   1.000  H
  C203     1.0000 0.15000  0.14810  0.62471  Biso   1.000  C
  C204     1.0000 0.29320  0.38170  0.43160  Biso   1.000  C
  C205     1.0000 0.35820  0.45610  0.43240  Biso   1.000  C
  H172     1.0000 0.37690  0.48350  0.46210  Biso   1.000  H
  C206     1.0000 0.39510  0.48920  0.38753  Biso   1.000  C
  C207     1.0000 0.36770  0.44960  0.34334  Biso   1.000  C
  H173     1.0000 0.39300  0.47260  0.31360  Biso   1.000  H
  C208     1.0000 0.30170  0.37490  0.34379  Biso   1.000  C
  C209     1.0000 0.26270  0.33960  0.38776  Biso   1.000  C
  H174     1.0000 0.21790  0.28980  0.38780  Biso   1.000  H
  C210     1.0000 0.17910  0.28660  0.48505  Biso   1.000  C
  H175     1.0000 0.13820  0.26710  0.46200  Biso   1.000  H
  C211     1.0000 0.17520  0.26580  0.53297  Biso   1.000  C
  H176     1.0000 0.12930  0.22830  0.54870  Biso   1.000  H
  C212     1.0000 0.29590  0.35350  0.52120  Biso   1.000  C
  H177     1.0000 0.34930  0.38870  0.52590  Biso   1.000  H
  C213     1.0000 0.48070  0.62910  0.41860  Biso   1.000  C
  H178     1.0000 0.44560  0.63410  0.43950  Biso   1.000  H
  C214     1.0000 0.55840  0.68300  0.41100  Biso   1.000  C
  H179     1.0000 0.58540  0.73220  0.42620  Biso   1.000  H
  C215     1.0000 0.53390  0.58220  0.36830  Biso   1.000  C
  H180     1.0000 0.54140  0.54700  0.34900  Biso   1.000  H
  C216     1.0000 0.23800  0.24120  0.29960  Biso   1.000  C
  H181     1.0000 0.22360  0.20820  0.32720  Biso   1.000  H
  C217     1.0000 0.23200  0.22070  0.25130  Biso   1.000  C
  H182     1.0000 0.21140  0.16960  0.23900  Biso   1.000  H
  C218     1.0000 0.30110  0.34700  0.25351  Biso   1.000  C
  H183     1.0000 0.34550  0.39490  0.24550  Biso   1.000  H
  C219     1.0000 0.25170  0.61780  0.67770  Biso   1.000  C
  H184     1.0000 0.19720  0.58530  0.67910  Biso   1.000  H
  C220     1.0000 0.30050  0.58600  0.67670  Biso   1.000  C
  C221     1.0000 0.19510  0.44830  0.69450  Biso   1.000  C
  H185     1.0000 0.15860  0.45720  0.71110  Biso   1.000  H
  C222     1.0000 0.18870  0.37670  0.68230  Biso   1.000  C
  H186     1.0000 0.14360  0.32780  0.68660  Biso   1.000  H
  C223     1.0000 0.30320  0.46420  0.66200  Biso   1.000  C
  H187     1.0000 0.35560  0.48890  0.65180  Biso   1.000  H
  N65      1.0000 0.24790  0.30720  0.55598  Biso   1.000  N
  N66      1.0000 0.25710  0.34310  0.47752  Biso   1.000  N
  N67      1.0000 0.59020  0.65480  0.37846  Biso   1.000  N
  N68      1.0000 0.46540  0.56520  0.38858  Biso   1.000  N
  N69      1.0000 0.26410  0.29440  0.22079  Biso   1.000  N
  N70      1.0000 0.27370  0.33040  0.29912  Biso   1.000  N
  N71      1.0000 0.25780  0.38800  0.66320  Biso   1.000  N
  N72      1.0000 0.26770  0.50340  0.67660  Biso   1.000  N
  O17      1.0000 0.14403  0.20255  0.64514  Biso   1.000  O
  O18      1.0000 0.21591  0.15295  0.61547  Biso   1.000  O
  C224     1.0000 0.19080  0.28200  0.28830  Biso   1.000  C
  H188     1.0000 0.14890  0.26800  0.31010  Biso   1.000  H
  C225     1.0000 0.18700  0.26150  0.24040  Biso   1.000  C
  H189     1.0000 0.14070  0.23040  0.22270  Biso   1.000  H
  Cd10     1.0000 0.01014  0.28993  0.86144  Biso   1.000  Cd
  C226     1.0000 0.92530  0.99950  0.87434  Biso   1.000  C
  H190     1.0000 0.92230  0.99950  0.83830  Biso   1.000  H
  H191     1.0000 0.87910  0.99930  0.88750  Biso   1.000  H
  C227     1.0000 0.99960  0.07450  0.89157  Biso   1.000  C
  H192     1.0000 0.99960  0.07400  0.92800  Biso   1.000  H
  C228     1.0000 0.99810  0.14810  0.87529  Biso   1.000  C
  C229     1.0000 0.08850  0.38170  0.06840  Biso   1.000  C
  C230     1.0000 0.09790  0.45610  0.06760  Biso   1.000  C
  H193     1.0000 0.10660  0.48350  0.03790  Biso   1.000  H
  C231     1.0000 0.09410  0.48920  0.11247  Biso   1.000  C
  C232     1.0000 0.08190  0.44960  0.15666  Biso   1.000  C
  H194     1.0000 0.07960  0.47260  0.18640  Biso   1.000  H
  C233     1.0000 0.07320  0.37490  0.15621  Biso   1.000  C
  C234     1.0000 0.07690  0.33960  0.11224  Biso   1.000  C
  H195     1.0000 0.07190  0.28980  0.11220  Biso   1.000  H
  C235     1.0000 0.10750  0.28660  0.01495  Biso   1.000  C
  H196     1.0000 0.12890  0.26710  0.03800  Biso   1.000  H
  C236     1.0000 0.09060  0.26580  0.96703  Biso   1.000  C
  H197     1.0000 0.09900  0.22830  0.95130  Biso   1.000  H
  C237     1.0000 0.05760  0.35350  0.97880  Biso   1.000  C
  H198     1.0000 0.03940  0.38870  0.97410  Biso   1.000  H
  C238     1.0000 0.14840  0.62910  0.08140  Biso   1.000  C
  H199     1.0000 0.18850  0.63410  0.06050  Biso   1.000  H
  C239     1.0000 0.12460  0.68300  0.08900  Biso   1.000  C
  H200     1.0000 0.14680  0.73220  0.07380  Biso   1.000  H
  C240     1.0000 0.04830  0.58220  0.13170  Biso   1.000  C
  H201     1.0000 0.00560  0.54700  0.15100  Biso   1.000  H
  C241     1.0000 0.00320  0.24120  0.20040  Biso   1.000  C
  H202     1.0000 0.98460  0.20820  0.17280  Biso   1.000  H
  C242     1.0000 0.98870  0.22070  0.24870  Biso   1.000  C
  H203     1.0000 0.95820  0.16960  0.26100  Biso   1.000  H
  C243     1.0000 0.04590  0.34700  0.24649  Biso   1.000  C
  H204     1.0000 0.04940  0.39490  0.25450  Biso   1.000  H
  C244     1.0000 0.36610  0.61780  0.82230  Biso   1.000  C
  H205     1.0000 0.38810  0.58530  0.82090  Biso   1.000  H
  C245     1.0000 0.28550  0.58600  0.82330  Biso   1.000  C
  C246     1.0000 0.25320  0.44830  0.80550  Biso   1.000  C
  H206     1.0000 0.29860  0.45720  0.78890  Biso   1.000  H
  C247     1.0000 0.18800  0.37670  0.81770  Biso   1.000  C
  H207     1.0000 0.18420  0.32780  0.81340  Biso   1.000  H
  C248     1.0000 0.16100  0.46420  0.83800  Biso   1.000  C
  H208     1.0000 0.13330  0.48890  0.84820  Biso   1.000  H
  N73      1.0000 0.05930  0.30720  0.94402  Biso   1.000  N
  N74      1.0000 0.08600  0.34310  0.02248  Biso   1.000  N
  N75      1.0000 0.06460  0.65480  0.12154  Biso   1.000  N
  N76      1.0000 0.09980  0.56520  0.11142  Biso   1.000  N
  N77      1.0000 0.03030  0.29440  0.27921  Biso   1.000  N
  N78      1.0000 0.05670  0.33040  0.20088  Biso   1.000  N
  N79      1.0000 0.13020  0.38800  0.83680  Biso   1.000  N
  N80      1.0000 0.23570  0.50340  0.82340  Biso   1.000  N
  O19      1.0000 0.05852  0.20255  0.85486  Biso   1.000  O
  O20      1.0000 0.93704  0.15295  0.88453  Biso   1.000  O
  C249     1.0000 0.09120  0.28200  0.21170  Biso   1.000  C
  H209     1.0000 0.11910  0.26800  0.18990  Biso   1.000  H
  C250     1.0000 0.07450  0.26150  0.25960  Biso   1.000  C
  H210     1.0000 0.08970  0.23040  0.27730  Biso   1.000  H
  Cd11     1.0000 0.27979  0.98986  0.86144  Biso   1.000  Cd
  C251     1.0000 0.07420  0.07470  0.87434  Biso   1.000  C
  H211     1.0000 0.07720  0.07770  0.83830  Biso   1.000  H
  H212     1.0000 0.12020  0.12090  0.88750  Biso   1.000  H
  C252     1.0000 0.07490  0.00040  0.89157  Biso   1.000  C
  H213     1.0000 0.07440  0.00040  0.92800  Biso   1.000  H
  C253     1.0000 0.15000  0.00190  0.87529  Biso   1.000  C
  C254     1.0000 0.29320  0.91150  0.06840  Biso   1.000  C
  C255     1.0000 0.35820  0.90210  0.06760  Biso   1.000  C
  H214     1.0000 0.37690  0.89340  0.03790  Biso   1.000  H
  C256     1.0000 0.39510  0.90590  0.11247  Biso   1.000  C
  C257     1.0000 0.36770  0.91810  0.15666  Biso   1.000  C
  H215     1.0000 0.39300  0.92040  0.18640  Biso   1.000  H
  C258     1.0000 0.30170  0.92680  0.15621  Biso   1.000  C
  C259     1.0000 0.26270  0.92310  0.11224  Biso   1.000  C
  H216     1.0000 0.21790  0.92810  0.11220  Biso   1.000  H
  C260     1.0000 0.17910  0.89250  0.01495  Biso   1.000  C
  H217     1.0000 0.13820  0.87110  0.03800  Biso   1.000  H
  C261     1.0000 0.17520  0.90940  0.96703  Biso   1.000  C
  H218     1.0000 0.12930  0.90100  0.95130  Biso   1.000  H
  C262     1.0000 0.29590  0.94240  0.97880  Biso   1.000  C
  H219     1.0000 0.34930  0.96060  0.97410  Biso   1.000  H
  C263     1.0000 0.48070  0.85160  0.08140  Biso   1.000  C
  H220     1.0000 0.44560  0.81150  0.06050  Biso   1.000  H
  C264     1.0000 0.55840  0.87540  0.08900  Biso   1.000  C
  H221     1.0000 0.58540  0.85320  0.07380  Biso   1.000  H
  C265     1.0000 0.53390  0.95170  0.13170  Biso   1.000  C
  H222     1.0000 0.54140  0.99440  0.15100  Biso   1.000  H
  C266     1.0000 0.23800  0.99680  0.20040  Biso   1.000  C
  H223     1.0000 0.22360  0.01540  0.17280  Biso   1.000  H
  C267     1.0000 0.23200  0.01130  0.24870  Biso   1.000  C
  H224     1.0000 0.21140  0.04180  0.26100  Biso   1.000  H
  C268     1.0000 0.30110  0.95410  0.24649  Biso   1.000  C
  H225     1.0000 0.34550  0.95060  0.25450  Biso   1.000  H
  C269     1.0000 0.25170  0.63390  0.82230  Biso   1.000  C
  H226     1.0000 0.19720  0.61190  0.82090  Biso   1.000  H
  C270     1.0000 0.30050  0.71450  0.82330  Biso   1.000  C
  C271     1.0000 0.19510  0.74680  0.80550  Biso   1.000  C
  H227     1.0000 0.15860  0.70140  0.78890  Biso   1.000  H
  C272     1.0000 0.18870  0.81200  0.81770  Biso   1.000  C
  H228     1.0000 0.14360  0.81580  0.81340  Biso   1.000  H
  C273     1.0000 0.30320  0.83900  0.83800  Biso   1.000  C
  H229     1.0000 0.35560  0.86670  0.84820  Biso   1.000  H
  N81      1.0000 0.24790  0.94070  0.94402  Biso   1.000  N
  N82      1.0000 0.25710  0.91400  0.02248  Biso   1.000  N
  N83      1.0000 0.59020  0.93540  0.12154  Biso   1.000  N
  N84      1.0000 0.46540  0.90020  0.11142  Biso   1.000  N
  N85      1.0000 0.26410  0.96970  0.27921  Biso   1.000  N
  N86      1.0000 0.27370  0.94330  0.20088  Biso   1.000  N
  N87      1.0000 0.25780  0.86980  0.83680  Biso   1.000  N
  N88      1.0000 0.26770  0.76430  0.82340  Biso   1.000  N
  O21      1.0000 0.14403  0.94148  0.85486  Biso   1.000  O
  O22      1.0000 0.21591  0.06296  0.88453  Biso   1.000  O
  C274     1.0000 0.19080  0.90880  0.21170  Biso   1.000  C
  H230     1.0000 0.14890  0.88090  0.18990  Biso   1.000  H
  C275     1.0000 0.18700  0.92550  0.25960  Biso   1.000  C
  H231     1.0000 0.14070  0.91030  0.27730  Biso   1.000  H
  Cd12     1.0000 0.71007  0.72021  0.86144  Biso   1.000  Cd
  C276     1.0000 0.00050  0.92580  0.87434  Biso   1.000  C
  H232     1.0000 0.00050  0.92280  0.83830  Biso   1.000  H
  H233     1.0000 0.00070  0.87980  0.88750  Biso   1.000  H
  C277     1.0000 0.92550  0.92510  0.89157  Biso   1.000  C
  H234     1.0000 0.92600  0.92560  0.92800  Biso   1.000  H
  C278     1.0000 0.85190  0.85000  0.87529  Biso   1.000  C
  C279     1.0000 0.61830  0.70680  0.06840  Biso   1.000  C
  C280     1.0000 0.54390  0.64180  0.06760  Biso   1.000  C
  H235     1.0000 0.51650  0.62310  0.03790  Biso   1.000  H
  C281     1.0000 0.51080  0.60490  0.11247  Biso   1.000  C
  C282     1.0000 0.55040  0.63230  0.15666  Biso   1.000  C
  H236     1.0000 0.52740  0.60700  0.18640  Biso   1.000  H
  C283     1.0000 0.62510  0.69830  0.15621  Biso   1.000  C
  C284     1.0000 0.66040  0.73730  0.11224  Biso   1.000  C
  H237     1.0000 0.71020  0.78210  0.11220  Biso   1.000  H
  C285     1.0000 0.71340  0.82090  0.01495  Biso   1.000  C
  H238     1.0000 0.73290  0.86180  0.03800  Biso   1.000  H
  C286     1.0000 0.73420  0.82480  0.96703  Biso   1.000  C
  H239     1.0000 0.77170  0.87070  0.95130  Biso   1.000  H
  C287     1.0000 0.64650  0.70410  0.97880  Biso   1.000  C
  H240     1.0000 0.61130  0.65070  0.97410  Biso   1.000  H
  C288     1.0000 0.37090  0.51930  0.08140  Biso   1.000  C
  H241     1.0000 0.36590  0.55440  0.06050  Biso   1.000  H
  C289     1.0000 0.31700  0.44160  0.08900  Biso   1.000  C
  H242     1.0000 0.26780  0.41460  0.07380  Biso   1.000  H
  C290     1.0000 0.41780  0.46610  0.13170  Biso   1.000  C
  H243     1.0000 0.45300  0.45860  0.15100  Biso   1.000  H
  C291     1.0000 0.75880  0.76200  0.20040  Biso   1.000  C
  H244     1.0000 0.79180  0.77640  0.17280  Biso   1.000  H
  C292     1.0000 0.77930  0.76800  0.24870  Biso   1.000  C
  H245     1.0000 0.83040  0.78860  0.26100  Biso   1.000  H
  C293     1.0000 0.65300  0.69890  0.24649  Biso   1.000  C
  H246     1.0000 0.60510  0.65450  0.25450  Biso   1.000  H
  C294     1.0000 0.38220  0.74830  0.82230  Biso   1.000  C
  H247     1.0000 0.41470  0.80280  0.82090  Biso   1.000  H
  C295     1.0000 0.41400  0.69950  0.82330  Biso   1.000  C
  C296     1.0000 0.55170  0.80490  0.80550  Biso   1.000  C
  H248     1.0000 0.54280  0.84140  0.78890  Biso   1.000  H
  C297     1.0000 0.62330  0.81130  0.81770  Biso   1.000  C
  H249     1.0000 0.67220  0.85640  0.81340  Biso   1.000  H
  C298     1.0000 0.53580  0.69680  0.83800  Biso   1.000  C
  H250     1.0000 0.51110  0.64440  0.84820  Biso   1.000  H
  N89      1.0000 0.69280  0.75210  0.94402  Biso   1.000  N
  N90      1.0000 0.65690  0.74290  0.02248  Biso   1.000  N
  N91      1.0000 0.34520  0.40980  0.12154  Biso   1.000  N
  N92      1.0000 0.43480  0.53460  0.11142  Biso   1.000  N
  N93      1.0000 0.70560  0.73590  0.27921  Biso   1.000  N
  N94      1.0000 0.66960  0.72630  0.20088  Biso   1.000  N
  N95      1.0000 0.61200  0.74220  0.83680  Biso   1.000  N
  N96      1.0000 0.49660  0.73230  0.82340  Biso   1.000  N
  O23      1.0000 0.79745  0.85597  0.85486  Biso   1.000  O
  O24      1.0000 0.84705  0.78409  0.88453  Biso   1.000  O
  C299     1.0000 0.71800  0.80920  0.21170  Biso   1.000  C
  H251     1.0000 0.73200  0.85110  0.18990  Biso   1.000  H
  C300     1.0000 0.73850  0.81300  0.25960  Biso   1.000  C
  H252     1.0000 0.76960  0.85930  0.27730  Biso   1.000  H
