data_image0
_cell_length_a       26.973
_cell_length_b       26.973
_cell_length_c       26.973
_cell_angle_alpha    90
_cell_angle_beta     90
_cell_angle_gamma    90

_symmetry_space_group_name_H-M    "P 1"
_symmetry_int_tables_number       1

loop_
  _symmetry_equiv_pos_as_xyz
  'x, y, z'

loop_
  _atom_site_label
  _atom_site_occupancy
  _atom_site_fract_x
  _atom_site_fract_y
  _atom_site_fract_z
  _atom_site_thermal_displace_type
  _atom_site_B_iso_or_equiv
  _atom_site_type_symbol
  O1       1.0000 0.44761  0.05033  0.14877  Biso   1.000  O
  O2       1.0000 0.44835  0.04910  0.23118  Biso   1.000  O
  C1       1.0000 0.29450  0.14559  0.19750  Biso   1.000  C
  C2       1.0000 0.43047  0.06206  0.19040  Biso   1.000  C
  C3       1.0000 0.35980  0.10670  0.14920  Biso   1.000  C
  H1       1.0000 0.37300  0.09810  0.11810  Biso   1.000  H
  C4       1.0000 0.31960  0.12980  0.24120  Biso   1.000  C
  H2       1.0000 0.30590  0.13680  0.27250  Biso   1.000  H
  C5       1.0000 0.31530  0.13390  0.15180  Biso   1.000  C
  H3       1.0000 0.29950  0.14410  0.12250  Biso   1.000  H
  C6       1.0000 0.36410  0.10420  0.23790  Biso   1.000  C
  H4       1.0000 0.38070  0.09470  0.26700  Biso   1.000  H
  C7       1.0000 0.21655  0.16990  0.24170  Biso   1.000  C
  H5       1.0000 0.22100  0.14280  0.26320  Biso   1.000  H
  C8       1.0000 0.38438  0.09251  0.19228  Biso   1.000  C
  C9       1.0000 0.24960  0.17710  0.20233  Biso   1.000  C
  O3       1.0000 0.55239  0.94967  0.14877  Biso   1.000  O
  O4       1.0000 0.55165  0.95090  0.23118  Biso   1.000  O
  C10      1.0000 0.70550  0.85441  0.19750  Biso   1.000  C
  C11      1.0000 0.56953  0.93794  0.19040  Biso   1.000  C
  C12      1.0000 0.64020  0.89330  0.14920  Biso   1.000  C
  H6       1.0000 0.62700  0.90190  0.11810  Biso   1.000  H
  C13      1.0000 0.68040  0.87020  0.24120  Biso   1.000  C
  H7       1.0000 0.69410  0.86320  0.27250  Biso   1.000  H
  C14      1.0000 0.68470  0.86610  0.15180  Biso   1.000  C
  H8       1.0000 0.70050  0.85590  0.12250  Biso   1.000  H
  C15      1.0000 0.63590  0.89580  0.23790  Biso   1.000  C
  H9       1.0000 0.61930  0.90530  0.26700  Biso   1.000  H
  C16      1.0000 0.78345  0.83010  0.24170  Biso   1.000  C
  H10      1.0000 0.77900  0.85720  0.26320  Biso   1.000  H
  C17      1.0000 0.61562  0.90749  0.19228  Biso   1.000  C
  C18      1.0000 0.75040  0.82290  0.20233  Biso   1.000  C
  O5       1.0000 0.55239  0.05033  0.85123  Biso   1.000  O
  O6       1.0000 0.55165  0.04910  0.76882  Biso   1.000  O
  C19      1.0000 0.70550  0.14559  0.80250  Biso   1.000  C
  C20      1.0000 0.56953  0.06206  0.80960  Biso   1.000  C
  C21      1.0000 0.64020  0.10670  0.85080  Biso   1.000  C
  H11      1.0000 0.62700  0.09810  0.88190  Biso   1.000  H
  C22      1.0000 0.68040  0.12980  0.75880  Biso   1.000  C
  H12      1.0000 0.69410  0.13680  0.72750  Biso   1.000  H
  C23      1.0000 0.68470  0.13390  0.84820  Biso   1.000  C
  H13      1.0000 0.70050  0.14410  0.87750  Biso   1.000  H
  C24      1.0000 0.63590  0.10420  0.76210  Biso   1.000  C
  H14      1.0000 0.61930  0.09470  0.73300  Biso   1.000  H
  C25      1.0000 0.78345  0.16990  0.75830  Biso   1.000  C
  H15      1.0000 0.77900  0.14280  0.73680  Biso   1.000  H
  C26      1.0000 0.61562  0.09251  0.80772  Biso   1.000  C
  C27      1.0000 0.75040  0.17710  0.79767  Biso   1.000  C
  O7       1.0000 0.44761  0.94967  0.85123  Biso   1.000  O
  O8       1.0000 0.44835  0.95090  0.76882  Biso   1.000  O
  C28      1.0000 0.29450  0.85441  0.80250  Biso   1.000  C
  C29      1.0000 0.43047  0.93794  0.80960  Biso   1.000  C
  C30      1.0000 0.35980  0.89330  0.85080  Biso   1.000  C
  H16      1.0000 0.37300  0.90190  0.88190  Biso   1.000  H
  C31      1.0000 0.31960  0.87020  0.75880  Biso   1.000  C
  H17      1.0000 0.30590  0.86320  0.72750  Biso   1.000  H
  C32      1.0000 0.31530  0.86610  0.84820  Biso   1.000  C
  H18      1.0000 0.29950  0.85590  0.87750  Biso   1.000  H
  C33      1.0000 0.36410  0.89580  0.76210  Biso   1.000  C
  H19      1.0000 0.38070  0.90530  0.73300  Biso   1.000  H
  C34      1.0000 0.21655  0.83010  0.75830  Biso   1.000  C
  H20      1.0000 0.22100  0.85720  0.73680  Biso   1.000  H
  C35      1.0000 0.38438  0.90749  0.80772  Biso   1.000  C
  C36      1.0000 0.24960  0.82290  0.79767  Biso   1.000  C
  O9       1.0000 0.14877  0.44761  0.05033  Biso   1.000  O
  O10      1.0000 0.23118  0.44835  0.04910  Biso   1.000  O
  C37      1.0000 0.19750  0.29450  0.14559  Biso   1.000  C
  C38      1.0000 0.19040  0.43047  0.06206  Biso   1.000  C
  C39      1.0000 0.14920  0.35980  0.10670  Biso   1.000  C
  H21      1.0000 0.11810  0.37300  0.09810  Biso   1.000  H
  C40      1.0000 0.24120  0.31960  0.12980  Biso   1.000  C
  H22      1.0000 0.27250  0.30590  0.13680  Biso   1.000  H
  C41      1.0000 0.15180  0.31530  0.13390  Biso   1.000  C
  H23      1.0000 0.12250  0.29950  0.14410  Biso   1.000  H
  C42      1.0000 0.23790  0.36410  0.10420  Biso   1.000  C
  H24      1.0000 0.26700  0.38070  0.09470  Biso   1.000  H
  C43      1.0000 0.24170  0.21655  0.16990  Biso   1.000  C
  H25      1.0000 0.26320  0.22100  0.14280  Biso   1.000  H
  C44      1.0000 0.19228  0.38438  0.09251  Biso   1.000  C
  C45      1.0000 0.20233  0.24960  0.17710  Biso   1.000  C
  O11      1.0000 0.14877  0.55239  0.94967  Biso   1.000  O
  O12      1.0000 0.23118  0.55165  0.95090  Biso   1.000  O
  C46      1.0000 0.19750  0.70550  0.85441  Biso   1.000  C
  C47      1.0000 0.19040  0.56953  0.93794  Biso   1.000  C
  C48      1.0000 0.14920  0.64020  0.89330  Biso   1.000  C
  H26      1.0000 0.11810  0.62700  0.90190  Biso   1.000  H
  C49      1.0000 0.24120  0.68040  0.87020  Biso   1.000  C
  H27      1.0000 0.27250  0.69410  0.86320  Biso   1.000  H
  C50      1.0000 0.15180  0.68470  0.86610  Biso   1.000  C
  H28      1.0000 0.12250  0.70050  0.85590  Biso   1.000  H
  C51      1.0000 0.23790  0.63590  0.89580  Biso   1.000  C
  H29      1.0000 0.26700  0.61930  0.90530  Biso   1.000  H
  C52      1.0000 0.24170  0.78345  0.83010  Biso   1.000  C
  H30      1.0000 0.26320  0.77900  0.85720  Biso   1.000  H
  C53      1.0000 0.19228  0.61562  0.90749  Biso   1.000  C
  C54      1.0000 0.20233  0.75040  0.82290  Biso   1.000  C
  O13      1.0000 0.85123  0.55239  0.05033  Biso   1.000  O
  O14      1.0000 0.76882  0.55165  0.04910  Biso   1.000  O
  C55      1.0000 0.80250  0.70550  0.14559  Biso   1.000  C
  C56      1.0000 0.80960  0.56953  0.06206  Biso   1.000  C
  C57      1.0000 0.85080  0.64020  0.10670  Biso   1.000  C
  H31      1.0000 0.88190  0.62700  0.09810  Biso   1.000  H
  C58      1.0000 0.75880  0.68040  0.12980  Biso   1.000  C
  H32      1.0000 0.72750  0.69410  0.13680  Biso   1.000  H
  C59      1.0000 0.84820  0.68470  0.13390  Biso   1.000  C
  H33      1.0000 0.87750  0.70050  0.14410  Biso   1.000  H
  C60      1.0000 0.76210  0.63590  0.10420  Biso   1.000  C
  H34      1.0000 0.73300  0.61930  0.09470  Biso   1.000  H
  C61      1.0000 0.75830  0.78345  0.16990  Biso   1.000  C
  H35      1.0000 0.73680  0.77900  0.14280  Biso   1.000  H
  C62      1.0000 0.80772  0.61562  0.09251  Biso   1.000  C
  C63      1.0000 0.79767  0.75040  0.17710  Biso   1.000  C
  O15      1.0000 0.85123  0.44761  0.94967  Biso   1.000  O
  O16      1.0000 0.76882  0.44835  0.95090  Biso   1.000  O
  C64      1.0000 0.80250  0.29450  0.85441  Biso   1.000  C
  C65      1.0000 0.80960  0.43047  0.93794  Biso   1.000  C
  C66      1.0000 0.85080  0.35980  0.89330  Biso   1.000  C
  H36      1.0000 0.88190  0.37300  0.90190  Biso   1.000  H
  C67      1.0000 0.75880  0.31960  0.87020  Biso   1.000  C
  H37      1.0000 0.72750  0.30590  0.86320  Biso   1.000  H
  C68      1.0000 0.84820  0.31530  0.86610  Biso   1.000  C
  H38      1.0000 0.87750  0.29950  0.85590  Biso   1.000  H
  C69      1.0000 0.76210  0.36410  0.89580  Biso   1.000  C
  H39      1.0000 0.73300  0.38070  0.90530  Biso   1.000  H
  C70      1.0000 0.75830  0.21655  0.83010  Biso   1.000  C
  H40      1.0000 0.73680  0.22100  0.85720  Biso   1.000  H
  C71      1.0000 0.80772  0.38438  0.90749  Biso   1.000  C
  C72      1.0000 0.79767  0.24960  0.82290  Biso   1.000  C
  O17      1.0000 0.05033  0.14877  0.44761  Biso   1.000  O
  O18      1.0000 0.04910  0.23118  0.44835  Biso   1.000  O
  C73      1.0000 0.14559  0.19750  0.29450  Biso   1.000  C
  C74      1.0000 0.06206  0.19040  0.43047  Biso   1.000  C
  C75      1.0000 0.10670  0.14920  0.35980  Biso   1.000  C
  H41      1.0000 0.09810  0.11810  0.37300  Biso   1.000  H
  C76      1.0000 0.12980  0.24120  0.31960  Biso   1.000  C
  H42      1.0000 0.13680  0.27250  0.30590  Biso   1.000  H
  C77      1.0000 0.13390  0.15180  0.31530  Biso   1.000  C
  H43      1.0000 0.14410  0.12250  0.29950  Biso   1.000  H
  C78      1.0000 0.10420  0.23790  0.36410  Biso   1.000  C
  H44      1.0000 0.09470  0.26700  0.38070  Biso   1.000  H
  C79      1.0000 0.16990  0.24170  0.21655  Biso   1.000  C
  H45      1.0000 0.14280  0.26320  0.22100  Biso   1.000  H
  C80      1.0000 0.09251  0.19228  0.38438  Biso   1.000  C
  C81      1.0000 0.17710  0.20233  0.24960  Biso   1.000  C
  O19      1.0000 0.94967  0.14877  0.55239  Biso   1.000  O
  O20      1.0000 0.95090  0.23118  0.55165  Biso   1.000  O
  C82      1.0000 0.85441  0.19750  0.70550  Biso   1.000  C
  C83      1.0000 0.93794  0.19040  0.56953  Biso   1.000  C
  C84      1.0000 0.89330  0.14920  0.64020  Biso   1.000  C
  H46      1.0000 0.90190  0.11810  0.62700  Biso   1.000  H
  C85      1.0000 0.87020  0.24120  0.68040  Biso   1.000  C
  H47      1.0000 0.86320  0.27250  0.69410  Biso   1.000  H
  C86      1.0000 0.86610  0.15180  0.68470  Biso   1.000  C
  H48      1.0000 0.85590  0.12250  0.70050  Biso   1.000  H
  C87      1.0000 0.89580  0.23790  0.63590  Biso   1.000  C
  H49      1.0000 0.90530  0.26700  0.61930  Biso   1.000  H
  C88      1.0000 0.83010  0.24170  0.78345  Biso   1.000  C
  H50      1.0000 0.85720  0.26320  0.77900  Biso   1.000  H
  C89      1.0000 0.90749  0.19228  0.61562  Biso   1.000  C
  C90      1.0000 0.82290  0.20233  0.75040  Biso   1.000  C
  O21      1.0000 0.05033  0.85123  0.55239  Biso   1.000  O
  O22      1.0000 0.04910  0.76882  0.55165  Biso   1.000  O
  C91      1.0000 0.14559  0.80250  0.70550  Biso   1.000  C
  C92      1.0000 0.06206  0.80960  0.56953  Biso   1.000  C
  C93      1.0000 0.10670  0.85080  0.64020  Biso   1.000  C
  H51      1.0000 0.09810  0.88190  0.62700  Biso   1.000  H
  C94      1.0000 0.12980  0.75880  0.68040  Biso   1.000  C
  H52      1.0000 0.13680  0.72750  0.69410  Biso   1.000  H
  C95      1.0000 0.13390  0.84820  0.68470  Biso   1.000  C
  H53      1.0000 0.14410  0.87750  0.70050  Biso   1.000  H
  C96      1.0000 0.10420  0.76210  0.63590  Biso   1.000  C
  H54      1.0000 0.09470  0.73300  0.61930  Biso   1.000  H
  C97      1.0000 0.16990  0.75830  0.78345  Biso   1.000  C
  H55      1.0000 0.14280  0.73680  0.77900  Biso   1.000  H
  C98      1.0000 0.09251  0.80772  0.61562  Biso   1.000  C
  C99      1.0000 0.17710  0.79767  0.75040  Biso   1.000  C
  O23      1.0000 0.94967  0.85123  0.44761  Biso   1.000  O
  O24      1.0000 0.95090  0.76882  0.44835  Biso   1.000  O
  C100     1.0000 0.85441  0.80250  0.29450  Biso   1.000  C
  C101     1.0000 0.93794  0.80960  0.43047  Biso   1.000  C
  C102     1.0000 0.89330  0.85080  0.35980  Biso   1.000  C
  H56      1.0000 0.90190  0.88190  0.37300  Biso   1.000  H
  C103     1.0000 0.87020  0.75880  0.31960  Biso   1.000  C
  H57      1.0000 0.86320  0.72750  0.30590  Biso   1.000  H
  C104     1.0000 0.86610  0.84820  0.31530  Biso   1.000  C
  H58      1.0000 0.85590  0.87750  0.29950  Biso   1.000  H
  C105     1.0000 0.89580  0.76210  0.36410  Biso   1.000  C
  H59      1.0000 0.90530  0.73300  0.38070  Biso   1.000  H
  C106     1.0000 0.83010  0.75830  0.21655  Biso   1.000  C
  H60      1.0000 0.85720  0.73680  0.22100  Biso   1.000  H
  C107     1.0000 0.90749  0.80772  0.38438  Biso   1.000  C
  C108     1.0000 0.82290  0.79767  0.24960  Biso   1.000  C
  O25      1.0000 0.55239  0.94967  0.85123  Biso   1.000  O
  O26      1.0000 0.55165  0.95090  0.76882  Biso   1.000  O
  C109     1.0000 0.70550  0.85441  0.80250  Biso   1.000  C
  C110     1.0000 0.56953  0.93794  0.80960  Biso   1.000  C
  C111     1.0000 0.64020  0.89330  0.85080  Biso   1.000  C
  H61      1.0000 0.62700  0.90190  0.88190  Biso   1.000  H
  C112     1.0000 0.68040  0.87020  0.75880  Biso   1.000  C
  H62      1.0000 0.69410  0.86320  0.72750  Biso   1.000  H
  C113     1.0000 0.68470  0.86610  0.84820  Biso   1.000  C
  H63      1.0000 0.70050  0.85590  0.87750  Biso   1.000  H
  C114     1.0000 0.63590  0.89580  0.76210  Biso   1.000  C
  H64      1.0000 0.61930  0.90530  0.73300  Biso   1.000  H
  C115     1.0000 0.78345  0.83010  0.75830  Biso   1.000  C
  H65      1.0000 0.77900  0.85720  0.73680  Biso   1.000  H
  C116     1.0000 0.61562  0.90749  0.80772  Biso   1.000  C
  C117     1.0000 0.75040  0.82290  0.79767  Biso   1.000  C
  O27      1.0000 0.44761  0.05033  0.85123  Biso   1.000  O
  O28      1.0000 0.44835  0.04910  0.76882  Biso   1.000  O
  C118     1.0000 0.29450  0.14559  0.80250  Biso   1.000  C
  C119     1.0000 0.43047  0.06206  0.80960  Biso   1.000  C
  C120     1.0000 0.35980  0.10670  0.85080  Biso   1.000  C
  H66      1.0000 0.37300  0.09810  0.88190  Biso   1.000  H
  C121     1.0000 0.31960  0.12980  0.75880  Biso   1.000  C
  H67      1.0000 0.30590  0.13680  0.72750  Biso   1.000  H
  C122     1.0000 0.31530  0.13390  0.84820  Biso   1.000  C
  H68      1.0000 0.29950  0.14410  0.87750  Biso   1.000  H
  C123     1.0000 0.36410  0.10420  0.76210  Biso   1.000  C
  H69      1.0000 0.38070  0.09470  0.73300  Biso   1.000  H
  C124     1.0000 0.21655  0.16990  0.75830  Biso   1.000  C
  H70      1.0000 0.22100  0.14280  0.73680  Biso   1.000  H
  C125     1.0000 0.38438  0.09251  0.80772  Biso   1.000  C
  C126     1.0000 0.24960  0.17710  0.79767  Biso   1.000  C
  O29      1.0000 0.44761  0.94967  0.14877  Biso   1.000  O
  O30      1.0000 0.44835  0.95090  0.23118  Biso   1.000  O
  C127     1.0000 0.29450  0.85441  0.19750  Biso   1.000  C
  C128     1.0000 0.43047  0.93794  0.19040  Biso   1.000  C
  C129     1.0000 0.35980  0.89330  0.14920  Biso   1.000  C
  H71      1.0000 0.37300  0.90190  0.11810  Biso   1.000  H
  C130     1.0000 0.31960  0.87020  0.24120  Biso   1.000  C
  H72      1.0000 0.30590  0.86320  0.27250  Biso   1.000  H
  C131     1.0000 0.31530  0.86610  0.15180  Biso   1.000  C
  H73      1.0000 0.29950  0.85590  0.12250  Biso   1.000  H
  C132     1.0000 0.36410  0.89580  0.23790  Biso   1.000  C
  H74      1.0000 0.38070  0.90530  0.26700  Biso   1.000  H
  C133     1.0000 0.21655  0.83010  0.24170  Biso   1.000  C
  H75      1.0000 0.22100  0.85720  0.26320  Biso   1.000  H
  C134     1.0000 0.38438  0.90749  0.19228  Biso   1.000  C
  C135     1.0000 0.24960  0.82290  0.20233  Biso   1.000  C
  O31      1.0000 0.55239  0.05033  0.14877  Biso   1.000  O
  O32      1.0000 0.55165  0.04910  0.23118  Biso   1.000  O
  C136     1.0000 0.70550  0.14559  0.19750  Biso   1.000  C
  C137     1.0000 0.56953  0.06206  0.19040  Biso   1.000  C
  C138     1.0000 0.64020  0.10670  0.14920  Biso   1.000  C
  H76      1.0000 0.62700  0.09810  0.11810  Biso   1.000  H
  C139     1.0000 0.68040  0.12980  0.24120  Biso   1.000  C
  H77      1.0000 0.69410  0.13680  0.27250  Biso   1.000  H
  C140     1.0000 0.68470  0.13390  0.15180  Biso   1.000  C
  H78      1.0000 0.70050  0.14410  0.12250  Biso   1.000  H
  C141     1.0000 0.63590  0.10420  0.23790  Biso   1.000  C
  H79      1.0000 0.61930  0.09470  0.26700  Biso   1.000  H
  C142     1.0000 0.78345  0.16990  0.24170  Biso   1.000  C
  H80      1.0000 0.77900  0.14280  0.26320  Biso   1.000  H
  C143     1.0000 0.61562  0.09251  0.19228  Biso   1.000  C
  C144     1.0000 0.75040  0.17710  0.20233  Biso   1.000  C
  O33      1.0000 0.85123  0.55239  0.94967  Biso   1.000  O
  O34      1.0000 0.76882  0.55165  0.95090  Biso   1.000  O
  C145     1.0000 0.80250  0.70550  0.85441  Biso   1.000  C
  C146     1.0000 0.80960  0.56953  0.93794  Biso   1.000  C
  C147     1.0000 0.85080  0.64020  0.89330  Biso   1.000  C
  H81      1.0000 0.88190  0.62700  0.90190  Biso   1.000  H
  C148     1.0000 0.75880  0.68040  0.87020  Biso   1.000  C
  H82      1.0000 0.72750  0.69410  0.86320  Biso   1.000  H
  C149     1.0000 0.84820  0.68470  0.86610  Biso   1.000  C
  H83      1.0000 0.87750  0.70050  0.85590  Biso   1.000  H
  C150     1.0000 0.76210  0.63590  0.89580  Biso   1.000  C
  H84      1.0000 0.73300  0.61930  0.90530  Biso   1.000  H
  C151     1.0000 0.75830  0.78345  0.83010  Biso   1.000  C
  H85      1.0000 0.73680  0.77900  0.85720  Biso   1.000  H
  C152     1.0000 0.80772  0.61562  0.90749  Biso   1.000  C
  C153     1.0000 0.79767  0.75040  0.82290  Biso   1.000  C
  O35      1.0000 0.85123  0.44761  0.05033  Biso   1.000  O
  O36      1.0000 0.76882  0.44835  0.04910  Biso   1.000  O
  C154     1.0000 0.80250  0.29450  0.14559  Biso   1.000  C
  C155     1.0000 0.80960  0.43047  0.06206  Biso   1.000  C
  C156     1.0000 0.85080  0.35980  0.10670  Biso   1.000  C
  H86      1.0000 0.88190  0.37300  0.09810  Biso   1.000  H
  C157     1.0000 0.75880  0.31960  0.12980  Biso   1.000  C
  H87      1.0000 0.72750  0.30590  0.13680  Biso   1.000  H
  C158     1.0000 0.84820  0.31530  0.13390  Biso   1.000  C
  H88      1.0000 0.87750  0.29950  0.14410  Biso   1.000  H
  C159     1.0000 0.76210  0.36410  0.10420  Biso   1.000  C
  H89      1.0000 0.73300  0.38070  0.09470  Biso   1.000  H
  C160     1.0000 0.75830  0.21655  0.16990  Biso   1.000  C
  H90      1.0000 0.73680  0.22100  0.14280  Biso   1.000  H
  C161     1.0000 0.80772  0.38438  0.09251  Biso   1.000  C
  C162     1.0000 0.79767  0.24960  0.17710  Biso   1.000  C
  O37      1.0000 0.14877  0.44761  0.94967  Biso   1.000  O
  O38      1.0000 0.23118  0.44835  0.95090  Biso   1.000  O
  C163     1.0000 0.19750  0.29450  0.85441  Biso   1.000  C
  C164     1.0000 0.19040  0.43047  0.93794  Biso   1.000  C
  C165     1.0000 0.14920  0.35980  0.89330  Biso   1.000  C
  H91      1.0000 0.11810  0.37300  0.90190  Biso   1.000  H
  C166     1.0000 0.24120  0.31960  0.87020  Biso   1.000  C
  H92      1.0000 0.27250  0.30590  0.86320  Biso   1.000  H
  C167     1.0000 0.15180  0.31530  0.86610  Biso   1.000  C
  H93      1.0000 0.12250  0.29950  0.85590  Biso   1.000  H
  C168     1.0000 0.23790  0.36410  0.89580  Biso   1.000  C
  H94      1.0000 0.26700  0.38070  0.90530  Biso   1.000  H
  C169     1.0000 0.24170  0.21655  0.83010  Biso   1.000  C
  H95      1.0000 0.26320  0.22100  0.85720  Biso   1.000  H
  C170     1.0000 0.19228  0.38438  0.90749  Biso   1.000  C
  C171     1.0000 0.20233  0.24960  0.82290  Biso   1.000  C
  O39      1.0000 0.14877  0.55239  0.05033  Biso   1.000  O
  O40      1.0000 0.23118  0.55165  0.04910  Biso   1.000  O
  C172     1.0000 0.19750  0.70550  0.14559  Biso   1.000  C
  C173     1.0000 0.19040  0.56953  0.06206  Biso   1.000  C
  C174     1.0000 0.14920  0.64020  0.10670  Biso   1.000  C
  H96      1.0000 0.11810  0.62700  0.09810  Biso   1.000  H
  C175     1.0000 0.24120  0.68040  0.12980  Biso   1.000  C
  H97      1.0000 0.27250  0.69410  0.13680  Biso   1.000  H
  C176     1.0000 0.15180  0.68470  0.13390  Biso   1.000  C
  H98      1.0000 0.12250  0.70050  0.14410  Biso   1.000  H
  C177     1.0000 0.23790  0.63590  0.10420  Biso   1.000  C
  H99      1.0000 0.26700  0.61930  0.09470  Biso   1.000  H
  C178     1.0000 0.24170  0.78345  0.16990  Biso   1.000  C
  H100     1.0000 0.26320  0.77900  0.14280  Biso   1.000  H
  C179     1.0000 0.19228  0.61562  0.09251  Biso   1.000  C
  C180     1.0000 0.20233  0.75040  0.17710  Biso   1.000  C
  O41      1.0000 0.94967  0.85123  0.55239  Biso   1.000  O
  O42      1.0000 0.95090  0.76882  0.55165  Biso   1.000  O
  C181     1.0000 0.85441  0.80250  0.70550  Biso   1.000  C
  C182     1.0000 0.93794  0.80960  0.56953  Biso   1.000  C
  C183     1.0000 0.89330  0.85080  0.64020  Biso   1.000  C
  H101     1.0000 0.90190  0.88190  0.62700  Biso   1.000  H
  C184     1.0000 0.87020  0.75880  0.68040  Biso   1.000  C
  H102     1.0000 0.86320  0.72750  0.69410  Biso   1.000  H
  C185     1.0000 0.86610  0.84820  0.68470  Biso   1.000  C
  H103     1.0000 0.85590  0.87750  0.70050  Biso   1.000  H
  C186     1.0000 0.89580  0.76210  0.63590  Biso   1.000  C
  H104     1.0000 0.90530  0.73300  0.61930  Biso   1.000  H
  C187     1.0000 0.83010  0.75830  0.78345  Biso   1.000  C
  H105     1.0000 0.85720  0.73680  0.77900  Biso   1.000  H
  C188     1.0000 0.90749  0.80772  0.61562  Biso   1.000  C
  C189     1.0000 0.82290  0.79767  0.75040  Biso   1.000  C
  O43      1.0000 0.05033  0.85123  0.44761  Biso   1.000  O
  O44      1.0000 0.04910  0.76882  0.44835  Biso   1.000  O
  C190     1.0000 0.14559  0.80250  0.29450  Biso   1.000  C
  C191     1.0000 0.06206  0.80960  0.43047  Biso   1.000  C
  C192     1.0000 0.10670  0.85080  0.35980  Biso   1.000  C
  H106     1.0000 0.09810  0.88190  0.37300  Biso   1.000  H
  C193     1.0000 0.12980  0.75880  0.31960  Biso   1.000  C
  H107     1.0000 0.13680  0.72750  0.30590  Biso   1.000  H
  C194     1.0000 0.13390  0.84820  0.31530  Biso   1.000  C
  H108     1.0000 0.14410  0.87750  0.29950  Biso   1.000  H
  C195     1.0000 0.10420  0.76210  0.36410  Biso   1.000  C
  H109     1.0000 0.09470  0.73300  0.38070  Biso   1.000  H
  C196     1.0000 0.16990  0.75830  0.21655  Biso   1.000  C
  H110     1.0000 0.14280  0.73680  0.22100  Biso   1.000  H
  C197     1.0000 0.09251  0.80772  0.38438  Biso   1.000  C
  C198     1.0000 0.17710  0.79767  0.24960  Biso   1.000  C
  O45      1.0000 0.94967  0.14877  0.44761  Biso   1.000  O
  O46      1.0000 0.95090  0.23118  0.44835  Biso   1.000  O
  C199     1.0000 0.85441  0.19750  0.29450  Biso   1.000  C
  C200     1.0000 0.93794  0.19040  0.43047  Biso   1.000  C
  C201     1.0000 0.89330  0.14920  0.35980  Biso   1.000  C
  H111     1.0000 0.90190  0.11810  0.37300  Biso   1.000  H
  C202     1.0000 0.87020  0.24120  0.31960  Biso   1.000  C
  H112     1.0000 0.86320  0.27250  0.30590  Biso   1.000  H
  C203     1.0000 0.86610  0.15180  0.31530  Biso   1.000  C
  H113     1.0000 0.85590  0.12250  0.29950  Biso   1.000  H
  C204     1.0000 0.89580  0.23790  0.36410  Biso   1.000  C
  H114     1.0000 0.90530  0.26700  0.38070  Biso   1.000  H
  C205     1.0000 0.83010  0.24170  0.21655  Biso   1.000  C
  H115     1.0000 0.85720  0.26320  0.22100  Biso   1.000  H
  C206     1.0000 0.90749  0.19228  0.38438  Biso   1.000  C
  C207     1.0000 0.82290  0.20233  0.24960  Biso   1.000  C
  O47      1.0000 0.05033  0.14877  0.55239  Biso   1.000  O
  O48      1.0000 0.04910  0.23118  0.55165  Biso   1.000  O
  C208     1.0000 0.14559  0.19750  0.70550  Biso   1.000  C
  C209     1.0000 0.06206  0.19040  0.56953  Biso   1.000  C
  C210     1.0000 0.10670  0.14920  0.64020  Biso   1.000  C
  H116     1.0000 0.09810  0.11810  0.62700  Biso   1.000  H
  C211     1.0000 0.12980  0.24120  0.68040  Biso   1.000  C
  H117     1.0000 0.13680  0.27250  0.69410  Biso   1.000  H
  C212     1.0000 0.13390  0.15180  0.68470  Biso   1.000  C
  H118     1.0000 0.14410  0.12250  0.70050  Biso   1.000  H
  C213     1.0000 0.10420  0.23790  0.63590  Biso   1.000  C
  H119     1.0000 0.09470  0.26700  0.61930  Biso   1.000  H
  C214     1.0000 0.16990  0.24170  0.78345  Biso   1.000  C
  H120     1.0000 0.14280  0.26320  0.77900  Biso   1.000  H
  C215     1.0000 0.09251  0.19228  0.61562  Biso   1.000  C
  C216     1.0000 0.17710  0.20233  0.75040  Biso   1.000  C
  Cu1      1.0000 0.50000  0.00000  0.14412  Biso   1.000  Cu
  Cu2      1.0000 0.50000  0.00000  0.24011  Biso   1.000  Cu
  Cu3      1.0000 0.50000  0.00000  0.85588  Biso   1.000  Cu
  Cu4      1.0000 0.50000  0.00000  0.75989  Biso   1.000  Cu
  Cu5      1.0000 0.14412  0.50000  0.00000  Biso   1.000  Cu
  Cu6      1.0000 0.24011  0.50000  0.00000  Biso   1.000  Cu
  Cu7      1.0000 0.85588  0.50000  0.00000  Biso   1.000  Cu
  Cu8      1.0000 0.75989  0.50000  0.00000  Biso   1.000  Cu
  Cu9      1.0000 0.00000  0.14412  0.50000  Biso   1.000  Cu
  Cu10     1.0000 0.00000  0.24011  0.50000  Biso   1.000  Cu
  Cu11     1.0000 0.00000  0.85588  0.50000  Biso   1.000  Cu
  Cu12     1.0000 0.00000  0.75989  0.50000  Biso   1.000  Cu
  O49      1.0000 0.94761  0.55033  0.64877  Biso   1.000  O
  O50      1.0000 0.94835  0.54910  0.73118  Biso   1.000  O
  C217     1.0000 0.79450  0.64559  0.69750  Biso   1.000  C
  C218     1.0000 0.93047  0.56206  0.69040  Biso   1.000  C
  C219     1.0000 0.85980  0.60670  0.64920  Biso   1.000  C
  H121     1.0000 0.87300  0.59810  0.61810  Biso   1.000  H
  C220     1.0000 0.81960  0.62980  0.74120  Biso   1.000  C
  H122     1.0000 0.80590  0.63680  0.77250  Biso   1.000  H
  C221     1.0000 0.81530  0.63390  0.65180  Biso   1.000  C
  H123     1.0000 0.79950  0.64410  0.62250  Biso   1.000  H
  C222     1.0000 0.86410  0.60420  0.73790  Biso   1.000  C
  H124     1.0000 0.88070  0.59470  0.76700  Biso   1.000  H
  C223     1.0000 0.71655  0.66990  0.74170  Biso   1.000  C
  H125     1.0000 0.72100  0.64280  0.76320  Biso   1.000  H
  C224     1.0000 0.88438  0.59251  0.69228  Biso   1.000  C
  C225     1.0000 0.74960  0.67710  0.70233  Biso   1.000  C
  O51      1.0000 0.05239  0.44967  0.64877  Biso   1.000  O
  O52      1.0000 0.05165  0.45090  0.73118  Biso   1.000  O
  C226     1.0000 0.20550  0.35441  0.69750  Biso   1.000  C
  C227     1.0000 0.06953  0.43794  0.69040  Biso   1.000  C
  C228     1.0000 0.14020  0.39330  0.64920  Biso   1.000  C
  H126     1.0000 0.12700  0.40190  0.61810  Biso   1.000  H
  C229     1.0000 0.18040  0.37020  0.74120  Biso   1.000  C
  H127     1.0000 0.19410  0.36320  0.77250  Biso   1.000  H
  C230     1.0000 0.18470  0.36610  0.65180  Biso   1.000  C
  H128     1.0000 0.20050  0.35590  0.62250  Biso   1.000  H
  C231     1.0000 0.13590  0.39580  0.73790  Biso   1.000  C
  H129     1.0000 0.11930  0.40530  0.76700  Biso   1.000  H
  C232     1.0000 0.28345  0.33010  0.74170  Biso   1.000  C
  H130     1.0000 0.27900  0.35720  0.76320  Biso   1.000  H
  C233     1.0000 0.11562  0.40749  0.69228  Biso   1.000  C
  C234     1.0000 0.25040  0.32290  0.70233  Biso   1.000  C
  O53      1.0000 0.05239  0.55033  0.35123  Biso   1.000  O
  O54      1.0000 0.05165  0.54910  0.26882  Biso   1.000  O
  C235     1.0000 0.20550  0.64559  0.30250  Biso   1.000  C
  C236     1.0000 0.06953  0.56206  0.30960  Biso   1.000  C
  C237     1.0000 0.14020  0.60670  0.35080  Biso   1.000  C
  H131     1.0000 0.12700  0.59810  0.38190  Biso   1.000  H
  C238     1.0000 0.18040  0.62980  0.25880  Biso   1.000  C
  H132     1.0000 0.19410  0.63680  0.22750  Biso   1.000  H
  C239     1.0000 0.18470  0.63390  0.34820  Biso   1.000  C
  H133     1.0000 0.20050  0.64410  0.37750  Biso   1.000  H
  C240     1.0000 0.13590  0.60420  0.26210  Biso   1.000  C
  H134     1.0000 0.11930  0.59470  0.23300  Biso   1.000  H
  C241     1.0000 0.28345  0.66990  0.25830  Biso   1.000  C
  H135     1.0000 0.27900  0.64280  0.23680  Biso   1.000  H
  C242     1.0000 0.11562  0.59251  0.30772  Biso   1.000  C
  C243     1.0000 0.25040  0.67710  0.29767  Biso   1.000  C
  O55      1.0000 0.94761  0.44967  0.35123  Biso   1.000  O
  O56      1.0000 0.94835  0.45090  0.26882  Biso   1.000  O
  C244     1.0000 0.79450  0.35441  0.30250  Biso   1.000  C
  C245     1.0000 0.93047  0.43794  0.30960  Biso   1.000  C
  C246     1.0000 0.85980  0.39330  0.35080  Biso   1.000  C
  H136     1.0000 0.87300  0.40190  0.38190  Biso   1.000  H
  C247     1.0000 0.81960  0.37020  0.25880  Biso   1.000  C
  H137     1.0000 0.80590  0.36320  0.22750  Biso   1.000  H
  C248     1.0000 0.81530  0.36610  0.34820  Biso   1.000  C
  H138     1.0000 0.79950  0.35590  0.37750  Biso   1.000  H
  C249     1.0000 0.86410  0.39580  0.26210  Biso   1.000  C
  H139     1.0000 0.88070  0.40530  0.23300  Biso   1.000  H
  C250     1.0000 0.71655  0.33010  0.25830  Biso   1.000  C
  H140     1.0000 0.72100  0.35720  0.23680  Biso   1.000  H
  C251     1.0000 0.88438  0.40749  0.30772  Biso   1.000  C
  C252     1.0000 0.74960  0.32290  0.29767  Biso   1.000  C
  O57      1.0000 0.64877  0.94761  0.55033  Biso   1.000  O
  O58      1.0000 0.73118  0.94835  0.54910  Biso   1.000  O
  C253     1.0000 0.69750  0.79450  0.64559  Biso   1.000  C
  C254     1.0000 0.69040  0.93047  0.56206  Biso   1.000  C
  C255     1.0000 0.64920  0.85980  0.60670  Biso   1.000  C
  H141     1.0000 0.61810  0.87300  0.59810  Biso   1.000  H
  C256     1.0000 0.74120  0.81960  0.62980  Biso   1.000  C
  H142     1.0000 0.77250  0.80590  0.63680  Biso   1.000  H
  C257     1.0000 0.65180  0.81530  0.63390  Biso   1.000  C
  H143     1.0000 0.62250  0.79950  0.64410  Biso   1.000  H
  C258     1.0000 0.73790  0.86410  0.60420  Biso   1.000  C
  H144     1.0000 0.76700  0.88070  0.59470  Biso   1.000  H
  C259     1.0000 0.74170  0.71655  0.66990  Biso   1.000  C
  H145     1.0000 0.76320  0.72100  0.64280  Biso   1.000  H
  C260     1.0000 0.69228  0.88438  0.59251  Biso   1.000  C
  C261     1.0000 0.70233  0.74960  0.67710  Biso   1.000  C
  O59      1.0000 0.64877  0.05239  0.44967  Biso   1.000  O
  O60      1.0000 0.73118  0.05165  0.45090  Biso   1.000  O
  C262     1.0000 0.69750  0.20550  0.35441  Biso   1.000  C
  C263     1.0000 0.69040  0.06953  0.43794  Biso   1.000  C
  C264     1.0000 0.64920  0.14020  0.39330  Biso   1.000  C
  H146     1.0000 0.61810  0.12700  0.40190  Biso   1.000  H
  C265     1.0000 0.74120  0.18040  0.37020  Biso   1.000  C
  H147     1.0000 0.77250  0.19410  0.36320  Biso   1.000  H
  C266     1.0000 0.65180  0.18470  0.36610  Biso   1.000  C
  H148     1.0000 0.62250  0.20050  0.35590  Biso   1.000  H
  C267     1.0000 0.73790  0.13590  0.39580  Biso   1.000  C
  H149     1.0000 0.76700  0.11930  0.40530  Biso   1.000  H
  C268     1.0000 0.74170  0.28345  0.33010  Biso   1.000  C
  H150     1.0000 0.76320  0.27900  0.35720  Biso   1.000  H
  C269     1.0000 0.69228  0.11562  0.40749  Biso   1.000  C
  C270     1.0000 0.70233  0.25040  0.32290  Biso   1.000  C
  O61      1.0000 0.35123  0.05239  0.55033  Biso   1.000  O
  O62      1.0000 0.26882  0.05165  0.54910  Biso   1.000  O
  C271     1.0000 0.30250  0.20550  0.64559  Biso   1.000  C
  C272     1.0000 0.30960  0.06953  0.56206  Biso   1.000  C
  C273     1.0000 0.35080  0.14020  0.60670  Biso   1.000  C
  H151     1.0000 0.38190  0.12700  0.59810  Biso   1.000  H
  C274     1.0000 0.25880  0.18040  0.62980  Biso   1.000  C
  H152     1.0000 0.22750  0.19410  0.63680  Biso   1.000  H
  C275     1.0000 0.34820  0.18470  0.63390  Biso   1.000  C
  H153     1.0000 0.37750  0.20050  0.64410  Biso   1.000  H
  C276     1.0000 0.26210  0.13590  0.60420  Biso   1.000  C
  H154     1.0000 0.23300  0.11930  0.59470  Biso   1.000  H
  C277     1.0000 0.25830  0.28345  0.66990  Biso   1.000  C
  H155     1.0000 0.23680  0.27900  0.64280  Biso   1.000  H
  C278     1.0000 0.30772  0.11562  0.59251  Biso   1.000  C
  C279     1.0000 0.29767  0.25040  0.67710  Biso   1.000  C
  O63      1.0000 0.35123  0.94761  0.44967  Biso   1.000  O
  O64      1.0000 0.26882  0.94835  0.45090  Biso   1.000  O
  C280     1.0000 0.30250  0.79450  0.35441  Biso   1.000  C
  C281     1.0000 0.30960  0.93047  0.43794  Biso   1.000  C
  C282     1.0000 0.35080  0.85980  0.39330  Biso   1.000  C
  H156     1.0000 0.38190  0.87300  0.40190  Biso   1.000  H
  C283     1.0000 0.25880  0.81960  0.37020  Biso   1.000  C
  H157     1.0000 0.22750  0.80590  0.36320  Biso   1.000  H
  C284     1.0000 0.34820  0.81530  0.36610  Biso   1.000  C
  H158     1.0000 0.37750  0.79950  0.35590  Biso   1.000  H
  C285     1.0000 0.26210  0.86410  0.39580  Biso   1.000  C
  H159     1.0000 0.23300  0.88070  0.40530  Biso   1.000  H
  C286     1.0000 0.25830  0.71655  0.33010  Biso   1.000  C
  H160     1.0000 0.23680  0.72100  0.35720  Biso   1.000  H
  C287     1.0000 0.30772  0.88438  0.40749  Biso   1.000  C
  C288     1.0000 0.29767  0.74960  0.32290  Biso   1.000  C
  O65      1.0000 0.55033  0.64877  0.94761  Biso   1.000  O
  O66      1.0000 0.54910  0.73118  0.94835  Biso   1.000  O
  C289     1.0000 0.64559  0.69750  0.79450  Biso   1.000  C
  C290     1.0000 0.56206  0.69040  0.93047  Biso   1.000  C
  C291     1.0000 0.60670  0.64920  0.85980  Biso   1.000  C
  H161     1.0000 0.59810  0.61810  0.87300  Biso   1.000  H
  C292     1.0000 0.62980  0.74120  0.81960  Biso   1.000  C
  H162     1.0000 0.63680  0.77250  0.80590  Biso   1.000  H
  C293     1.0000 0.63390  0.65180  0.81530  Biso   1.000  C
  H163     1.0000 0.64410  0.62250  0.79950  Biso   1.000  H
  C294     1.0000 0.60420  0.73790  0.86410  Biso   1.000  C
  H164     1.0000 0.59470  0.76700  0.88070  Biso   1.000  H
  C295     1.0000 0.66990  0.74170  0.71655  Biso   1.000  C
  H165     1.0000 0.64280  0.76320  0.72100  Biso   1.000  H
  C296     1.0000 0.59251  0.69228  0.88438  Biso   1.000  C
  C297     1.0000 0.67710  0.70233  0.74960  Biso   1.000  C
  O67      1.0000 0.44967  0.64877  0.05239  Biso   1.000  O
  O68      1.0000 0.45090  0.73118  0.05165  Biso   1.000  O
  C298     1.0000 0.35441  0.69750  0.20550  Biso   1.000  C
  C299     1.0000 0.43794  0.69040  0.06953  Biso   1.000  C
  C300     1.0000 0.39330  0.64920  0.14020  Biso   1.000  C
  H166     1.0000 0.40190  0.61810  0.12700  Biso   1.000  H
  C301     1.0000 0.37020  0.74120  0.18040  Biso   1.000  C
  H167     1.0000 0.36320  0.77250  0.19410  Biso   1.000  H
  C302     1.0000 0.36610  0.65180  0.18470  Biso   1.000  C
  H168     1.0000 0.35590  0.62250  0.20050  Biso   1.000  H
  C303     1.0000 0.39580  0.73790  0.13590  Biso   1.000  C
  H169     1.0000 0.40530  0.76700  0.11930  Biso   1.000  H
  C304     1.0000 0.33010  0.74170  0.28345  Biso   1.000  C
  H170     1.0000 0.35720  0.76320  0.27900  Biso   1.000  H
  C305     1.0000 0.40749  0.69228  0.11562  Biso   1.000  C
  C306     1.0000 0.32290  0.70233  0.25040  Biso   1.000  C
  O69      1.0000 0.55033  0.35123  0.05239  Biso   1.000  O
  O70      1.0000 0.54910  0.26882  0.05165  Biso   1.000  O
  C307     1.0000 0.64559  0.30250  0.20550  Biso   1.000  C
  C308     1.0000 0.56206  0.30960  0.06953  Biso   1.000  C
  C309     1.0000 0.60670  0.35080  0.14020  Biso   1.000  C
  H171     1.0000 0.59810  0.38190  0.12700  Biso   1.000  H
  C310     1.0000 0.62980  0.25880  0.18040  Biso   1.000  C
  H172     1.0000 0.63680  0.22750  0.19410  Biso   1.000  H
  C311     1.0000 0.63390  0.34820  0.18470  Biso   1.000  C
  H173     1.0000 0.64410  0.37750  0.20050  Biso   1.000  H
  C312     1.0000 0.60420  0.26210  0.13590  Biso   1.000  C
  H174     1.0000 0.59470  0.23300  0.11930  Biso   1.000  H
  C313     1.0000 0.66990  0.25830  0.28345  Biso   1.000  C
  H175     1.0000 0.64280  0.23680  0.27900  Biso   1.000  H
  C314     1.0000 0.59251  0.30772  0.11562  Biso   1.000  C
  C315     1.0000 0.67710  0.29767  0.25040  Biso   1.000  C
  O71      1.0000 0.44967  0.35123  0.94761  Biso   1.000  O
  O72      1.0000 0.45090  0.26882  0.94835  Biso   1.000  O
  C316     1.0000 0.35441  0.30250  0.79450  Biso   1.000  C
  C317     1.0000 0.43794  0.30960  0.93047  Biso   1.000  C
  C318     1.0000 0.39330  0.35080  0.85980  Biso   1.000  C
  H176     1.0000 0.40190  0.38190  0.87300  Biso   1.000  H
  C319     1.0000 0.37020  0.25880  0.81960  Biso   1.000  C
  H177     1.0000 0.36320  0.22750  0.80590  Biso   1.000  H
  C320     1.0000 0.36610  0.34820  0.81530  Biso   1.000  C
  H178     1.0000 0.35590  0.37750  0.79950  Biso   1.000  H
  C321     1.0000 0.39580  0.26210  0.86410  Biso   1.000  C
  H179     1.0000 0.40530  0.23300  0.88070  Biso   1.000  H
  C322     1.0000 0.33010  0.25830  0.71655  Biso   1.000  C
  H180     1.0000 0.35720  0.23680  0.72100  Biso   1.000  H
  C323     1.0000 0.40749  0.30772  0.88438  Biso   1.000  C
  C324     1.0000 0.32290  0.29767  0.74960  Biso   1.000  C
  O73      1.0000 0.05239  0.44967  0.35123  Biso   1.000  O
  O74      1.0000 0.05165  0.45090  0.26882  Biso   1.000  O
  C325     1.0000 0.20550  0.35441  0.30250  Biso   1.000  C
  C326     1.0000 0.06953  0.43794  0.30960  Biso   1.000  C
  C327     1.0000 0.14020  0.39330  0.35080  Biso   1.000  C
  H181     1.0000 0.12700  0.40190  0.38190  Biso   1.000  H
  C328     1.0000 0.18040  0.37020  0.25880  Biso   1.000  C
  H182     1.0000 0.19410  0.36320  0.22750  Biso   1.000  H
  C329     1.0000 0.18470  0.36610  0.34820  Biso   1.000  C
  H183     1.0000 0.20050  0.35590  0.37750  Biso   1.000  H
  C330     1.0000 0.13590  0.39580  0.26210  Biso   1.000  C
  H184     1.0000 0.11930  0.40530  0.23300  Biso   1.000  H
  C331     1.0000 0.28345  0.33010  0.25830  Biso   1.000  C
  H185     1.0000 0.27900  0.35720  0.23680  Biso   1.000  H
  C332     1.0000 0.11562  0.40749  0.30772  Biso   1.000  C
  C333     1.0000 0.25040  0.32290  0.29767  Biso   1.000  C
  O75      1.0000 0.94761  0.55033  0.35123  Biso   1.000  O
  O76      1.0000 0.94835  0.54910  0.26882  Biso   1.000  O
  C334     1.0000 0.79450  0.64559  0.30250  Biso   1.000  C
  C335     1.0000 0.93047  0.56206  0.30960  Biso   1.000  C
  C336     1.0000 0.85980  0.60670  0.35080  Biso   1.000  C
  H186     1.0000 0.87300  0.59810  0.38190  Biso   1.000  H
  C337     1.0000 0.81960  0.62980  0.25880  Biso   1.000  C
  H187     1.0000 0.80590  0.63680  0.22750  Biso   1.000  H
  C338     1.0000 0.81530  0.63390  0.34820  Biso   1.000  C
  H188     1.0000 0.79950  0.64410  0.37750  Biso   1.000  H
  C339     1.0000 0.86410  0.60420  0.26210  Biso   1.000  C
  H189     1.0000 0.88070  0.59470  0.23300  Biso   1.000  H
  C340     1.0000 0.71655  0.66990  0.25830  Biso   1.000  C
  H190     1.0000 0.72100  0.64280  0.23680  Biso   1.000  H
  C341     1.0000 0.88438  0.59251  0.30772  Biso   1.000  C
  C342     1.0000 0.74960  0.67710  0.29767  Biso   1.000  C
  O77      1.0000 0.94761  0.44967  0.64877  Biso   1.000  O
  O78      1.0000 0.94835  0.45090  0.73118  Biso   1.000  O
  C343     1.0000 0.79450  0.35441  0.69750  Biso   1.000  C
  C344     1.0000 0.93047  0.43794  0.69040  Biso   1.000  C
  C345     1.0000 0.85980  0.39330  0.64920  Biso   1.000  C
  H191     1.0000 0.87300  0.40190  0.61810  Biso   1.000  H
  C346     1.0000 0.81960  0.37020  0.74120  Biso   1.000  C
  H192     1.0000 0.80590  0.36320  0.77250  Biso   1.000  H
  C347     1.0000 0.81530  0.36610  0.65180  Biso   1.000  C
  H193     1.0000 0.79950  0.35590  0.62250  Biso   1.000  H
  C348     1.0000 0.86410  0.39580  0.73790  Biso   1.000  C
  H194     1.0000 0.88070  0.40530  0.76700  Biso   1.000  H
  C349     1.0000 0.71655  0.33010  0.74170  Biso   1.000  C
  H195     1.0000 0.72100  0.35720  0.76320  Biso   1.000  H
  C350     1.0000 0.88438  0.40749  0.69228  Biso   1.000  C
  C351     1.0000 0.74960  0.32290  0.70233  Biso   1.000  C
  O79      1.0000 0.05239  0.55033  0.64877  Biso   1.000  O
  O80      1.0000 0.05165  0.54910  0.73118  Biso   1.000  O
  C352     1.0000 0.20550  0.64559  0.69750  Biso   1.000  C
  C353     1.0000 0.06953  0.56206  0.69040  Biso   1.000  C
  C354     1.0000 0.14020  0.60670  0.64920  Biso   1.000  C
  H196     1.0000 0.12700  0.59810  0.61810  Biso   1.000  H
  C355     1.0000 0.18040  0.62980  0.74120  Biso   1.000  C
  H197     1.0000 0.19410  0.63680  0.77250  Biso   1.000  H
  C356     1.0000 0.18470  0.63390  0.65180  Biso   1.000  C
  H198     1.0000 0.20050  0.64410  0.62250  Biso   1.000  H
  C357     1.0000 0.13590  0.60420  0.73790  Biso   1.000  C
  H199     1.0000 0.11930  0.59470  0.76700  Biso   1.000  H
  C358     1.0000 0.28345  0.66990  0.74170  Biso   1.000  C
  H200     1.0000 0.27900  0.64280  0.76320  Biso   1.000  H
  C359     1.0000 0.11562  0.59251  0.69228  Biso   1.000  C
  C360     1.0000 0.25040  0.67710  0.70233  Biso   1.000  C
  O81      1.0000 0.35123  0.05239  0.44967  Biso   1.000  O
  O82      1.0000 0.26882  0.05165  0.45090  Biso   1.000  O
  C361     1.0000 0.30250  0.20550  0.35441  Biso   1.000  C
  C362     1.0000 0.30960  0.06953  0.43794  Biso   1.000  C
  C363     1.0000 0.35080  0.14020  0.39330  Biso   1.000  C
  H201     1.0000 0.38190  0.12700  0.40190  Biso   1.000  H
  C364     1.0000 0.25880  0.18040  0.37020  Biso   1.000  C
  H202     1.0000 0.22750  0.19410  0.36320  Biso   1.000  H
  C365     1.0000 0.34820  0.18470  0.36610  Biso   1.000  C
  H203     1.0000 0.37750  0.20050  0.35590  Biso   1.000  H
  C366     1.0000 0.26210  0.13590  0.39580  Biso   1.000  C
  H204     1.0000 0.23300  0.11930  0.40530  Biso   1.000  H
  C367     1.0000 0.25830  0.28345  0.33010  Biso   1.000  C
  H205     1.0000 0.23680  0.27900  0.35720  Biso   1.000  H
  C368     1.0000 0.30772  0.11562  0.40749  Biso   1.000  C
  C369     1.0000 0.29767  0.25040  0.32290  Biso   1.000  C
  O83      1.0000 0.35123  0.94761  0.55033  Biso   1.000  O
  O84      1.0000 0.26882  0.94835  0.54910  Biso   1.000  O
  C370     1.0000 0.30250  0.79450  0.64559  Biso   1.000  C
  C371     1.0000 0.30960  0.93047  0.56206  Biso   1.000  C
  C372     1.0000 0.35080  0.85980  0.60670  Biso   1.000  C
  H206     1.0000 0.38190  0.87300  0.59810  Biso   1.000  H
  C373     1.0000 0.25880  0.81960  0.62980  Biso   1.000  C
  H207     1.0000 0.22750  0.80590  0.63680  Biso   1.000  H
  C374     1.0000 0.34820  0.81530  0.63390  Biso   1.000  C
  H208     1.0000 0.37750  0.79950  0.64410  Biso   1.000  H
  C375     1.0000 0.26210  0.86410  0.60420  Biso   1.000  C
  H209     1.0000 0.23300  0.88070  0.59470  Biso   1.000  H
  C376     1.0000 0.25830  0.71655  0.66990  Biso   1.000  C
  H210     1.0000 0.23680  0.72100  0.64280  Biso   1.000  H
  C377     1.0000 0.30772  0.88438  0.59251  Biso   1.000  C
  C378     1.0000 0.29767  0.74960  0.67710  Biso   1.000  C
  O85      1.0000 0.64877  0.94761  0.44967  Biso   1.000  O
  O86      1.0000 0.73118  0.94835  0.45090  Biso   1.000  O
  C379     1.0000 0.69750  0.79450  0.35441  Biso   1.000  C
  C380     1.0000 0.69040  0.93047  0.43794  Biso   1.000  C
  C381     1.0000 0.64920  0.85980  0.39330  Biso   1.000  C
  H211     1.0000 0.61810  0.87300  0.40190  Biso   1.000  H
  C382     1.0000 0.74120  0.81960  0.37020  Biso   1.000  C
  H212     1.0000 0.77250  0.80590  0.36320  Biso   1.000  H
  C383     1.0000 0.65180  0.81530  0.36610  Biso   1.000  C
  H213     1.0000 0.62250  0.79950  0.35590  Biso   1.000  H
  C384     1.0000 0.73790  0.86410  0.39580  Biso   1.000  C
  H214     1.0000 0.76700  0.88070  0.40530  Biso   1.000  H
  C385     1.0000 0.74170  0.71655  0.33010  Biso   1.000  C
  H215     1.0000 0.76320  0.72100  0.35720  Biso   1.000  H
  C386     1.0000 0.69228  0.88438  0.40749  Biso   1.000  C
  C387     1.0000 0.70233  0.74960  0.32290  Biso   1.000  C
  O87      1.0000 0.64877  0.05239  0.55033  Biso   1.000  O
  O88      1.0000 0.73118  0.05165  0.54910  Biso   1.000  O
  C388     1.0000 0.69750  0.20550  0.64559  Biso   1.000  C
  C389     1.0000 0.69040  0.06953  0.56206  Biso   1.000  C
  C390     1.0000 0.64920  0.14020  0.60670  Biso   1.000  C
  H216     1.0000 0.61810  0.12700  0.59810  Biso   1.000  H
  C391     1.0000 0.74120  0.18040  0.62980  Biso   1.000  C
  H217     1.0000 0.77250  0.19410  0.63680  Biso   1.000  H
  C392     1.0000 0.65180  0.18470  0.63390  Biso   1.000  C
  H218     1.0000 0.62250  0.20050  0.64410  Biso   1.000  H
  C393     1.0000 0.73790  0.13590  0.60420  Biso   1.000  C
  H219     1.0000 0.76700  0.11930  0.59470  Biso   1.000  H
  C394     1.0000 0.74170  0.28345  0.66990  Biso   1.000  C
  H220     1.0000 0.76320  0.27900  0.64280  Biso   1.000  H
  C395     1.0000 0.69228  0.11562  0.59251  Biso   1.000  C
  C396     1.0000 0.70233  0.25040  0.67710  Biso   1.000  C
  O89      1.0000 0.44967  0.35123  0.05239  Biso   1.000  O
  O90      1.0000 0.45090  0.26882  0.05165  Biso   1.000  O
  C397     1.0000 0.35441  0.30250  0.20550  Biso   1.000  C
  C398     1.0000 0.43794  0.30960  0.06953  Biso   1.000  C
  C399     1.0000 0.39330  0.35080  0.14020  Biso   1.000  C
  H221     1.0000 0.40190  0.38190  0.12700  Biso   1.000  H
  C400     1.0000 0.37020  0.25880  0.18040  Biso   1.000  C
  H222     1.0000 0.36320  0.22750  0.19410  Biso   1.000  H
  C401     1.0000 0.36610  0.34820  0.18470  Biso   1.000  C
  H223     1.0000 0.35590  0.37750  0.20050  Biso   1.000  H
  C402     1.0000 0.39580  0.26210  0.13590  Biso   1.000  C
  H224     1.0000 0.40530  0.23300  0.11930  Biso   1.000  H
  C403     1.0000 0.33010  0.25830  0.28345  Biso   1.000  C
  H225     1.0000 0.35720  0.23680  0.27900  Biso   1.000  H
  C404     1.0000 0.40749  0.30772  0.11562  Biso   1.000  C
  C405     1.0000 0.32290  0.29767  0.25040  Biso   1.000  C
  O91      1.0000 0.55033  0.35123  0.94761  Biso   1.000  O
  O92      1.0000 0.54910  0.26882  0.94835  Biso   1.000  O
  C406     1.0000 0.64559  0.30250  0.79450  Biso   1.000  C
  C407     1.0000 0.56206  0.30960  0.93047  Biso   1.000  C
  C408     1.0000 0.60670  0.35080  0.85980  Biso   1.000  C
  H226     1.0000 0.59810  0.38190  0.87300  Biso   1.000  H
  C409     1.0000 0.62980  0.25880  0.81960  Biso   1.000  C
  H227     1.0000 0.63680  0.22750  0.80590  Biso   1.000  H
  C410     1.0000 0.63390  0.34820  0.81530  Biso   1.000  C
  H228     1.0000 0.64410  0.37750  0.79950  Biso   1.000  H
  C411     1.0000 0.60420  0.26210  0.86410  Biso   1.000  C
  H229     1.0000 0.59470  0.23300  0.88070  Biso   1.000  H
  C412     1.0000 0.66990  0.25830  0.71655  Biso   1.000  C
  H230     1.0000 0.64280  0.23680  0.72100  Biso   1.000  H
  C413     1.0000 0.59251  0.30772  0.88438  Biso   1.000  C
  C414     1.0000 0.67710  0.29767  0.74960  Biso   1.000  C
  O93      1.0000 0.44967  0.64877  0.94761  Biso   1.000  O
  O94      1.0000 0.45090  0.73118  0.94835  Biso   1.000  O
  C415     1.0000 0.35441  0.69750  0.79450  Biso   1.000  C
  C416     1.0000 0.43794  0.69040  0.93047  Biso   1.000  C
  C417     1.0000 0.39330  0.64920  0.85980  Biso   1.000  C
  H231     1.0000 0.40190  0.61810  0.87300  Biso   1.000  H
  C418     1.0000 0.37020  0.74120  0.81960  Biso   1.000  C
  H232     1.0000 0.36320  0.77250  0.80590  Biso   1.000  H
  C419     1.0000 0.36610  0.65180  0.81530  Biso   1.000  C
  H233     1.0000 0.35590  0.62250  0.79950  Biso   1.000  H
  C420     1.0000 0.39580  0.73790  0.86410  Biso   1.000  C
  H234     1.0000 0.40530  0.76700  0.88070  Biso   1.000  H
  C421     1.0000 0.33010  0.74170  0.71655  Biso   1.000  C
  H235     1.0000 0.35720  0.76320  0.72100  Biso   1.000  H
  C422     1.0000 0.40749  0.69228  0.88438  Biso   1.000  C
  C423     1.0000 0.32290  0.70233  0.74960  Biso   1.000  C
  O95      1.0000 0.55033  0.64877  0.05239  Biso   1.000  O
  O96      1.0000 0.54910  0.73118  0.05165  Biso   1.000  O
  C424     1.0000 0.64559  0.69750  0.20550  Biso   1.000  C
  C425     1.0000 0.56206  0.69040  0.06953  Biso   1.000  C
  C426     1.0000 0.60670  0.64920  0.14020  Biso   1.000  C
  H236     1.0000 0.59810  0.61810  0.12700  Biso   1.000  H
  C427     1.0000 0.62980  0.74120  0.18040  Biso   1.000  C
  H237     1.0000 0.63680  0.77250  0.19410  Biso   1.000  H
  C428     1.0000 0.63390  0.65180  0.18470  Biso   1.000  C
  H238     1.0000 0.64410  0.62250  0.20050  Biso   1.000  H
  C429     1.0000 0.60420  0.73790  0.13590  Biso   1.000  C
  H239     1.0000 0.59470  0.76700  0.11930  Biso   1.000  H
  C430     1.0000 0.66990  0.74170  0.28345  Biso   1.000  C
  H240     1.0000 0.64280  0.76320  0.27900  Biso   1.000  H
  C431     1.0000 0.59251  0.69228  0.11562  Biso   1.000  C
  C432     1.0000 0.67710  0.70233  0.25040  Biso   1.000  C
  Cu13     1.0000 0.00000  0.50000  0.64412  Biso   1.000  Cu
  Cu14     1.0000 0.00000  0.50000  0.74011  Biso   1.000  Cu
  Cu15     1.0000 0.00000  0.50000  0.35588  Biso   1.000  Cu
  Cu16     1.0000 0.00000  0.50000  0.25989  Biso   1.000  Cu
  Cu17     1.0000 0.64412  0.00000  0.50000  Biso   1.000  Cu
  Cu18     1.0000 0.74011  0.00000  0.50000  Biso   1.000  Cu
  Cu19     1.0000 0.35588  0.00000  0.50000  Biso   1.000  Cu
  Cu20     1.0000 0.25989  0.00000  0.50000  Biso   1.000  Cu
  Cu21     1.0000 0.50000  0.64412  0.00000  Biso   1.000  Cu
  Cu22     1.0000 0.50000  0.74011  0.00000  Biso   1.000  Cu
  Cu23     1.0000 0.50000  0.35588  0.00000  Biso   1.000  Cu
  Cu24     1.0000 0.50000  0.25989  0.00000  Biso   1.000  Cu
