data_image0
_cell_length_a       52.623
_cell_length_b       52.623
_cell_length_c       52.623
_cell_angle_alpha    90
_cell_angle_beta     90
_cell_angle_gamma    90

_symmetry_space_group_name_H-M    "P 1"
_symmetry_int_tables_number       1

loop_
  _symmetry_equiv_pos_as_xyz
  'x, y, z'

loop_
  _atom_site_label
  _atom_site_occupancy
  _atom_site_fract_x
  _atom_site_fract_y
  _atom_site_fract_z
  _atom_site_thermal_displace_type
  _atom_site_B_iso_or_equiv
  _atom_site_type_symbol
  Zn1      1.0000 0.21976  0.37890  0.87599  Biso   1.000  Zn
  Zn2      1.0000 0.27720  0.37437  0.88053  Biso   1.000  Zn
  Zn3      1.0000 0.24899  0.42790  0.87944  Biso   1.000  Zn
  Zn4      1.0000 0.24980  0.39437  0.92958  Biso   1.000  Zn
  Zn5      1.0000 0.11862  0.37313  0.76855  Biso   1.000  Zn
  Zn6      1.0000 0.11224  0.38376  0.70935  Biso   1.000  Zn
  Zn7      1.0000 0.09781  0.42855  0.74644  Biso   1.000  Zn
  Zn8      1.0000 0.06424  0.37974  0.74368  Biso   1.000  Zn
  O1       1.0000 0.24089  0.38302  0.83831  Biso   1.000  O
  O2       1.0000 0.34290  0.37023  0.78185  Biso   1.000  O
  O3       1.0000 0.33466  0.38467  0.74299  Biso   1.000  O
  O4       1.0000 0.15573  0.37604  0.75524  Biso   1.000  O
  O5       1.0000 0.14911  0.39310  0.71670  Biso   1.000  O
  O6       1.0000 0.25271  0.38646  0.66219  Biso   1.000  O
  O7       1.0000 0.21180  0.37960  0.65316  Biso   1.000  O
  O8       1.0000 0.19440  0.40102  0.85969  Biso   1.000  O
  O9       1.0000 0.21654  0.43710  0.86345  Biso   1.000  O
  O10      1.0000 0.12692  0.40207  0.79365  Biso   1.000  O
  O11      1.0000 0.11558  0.43939  0.77680  Biso   1.000  O
  O12      1.0000 0.11475  0.55246  0.78107  Biso   1.000  O
  O13      1.0000 0.18700  0.58122  0.87288  Biso   1.000  O
  O14      1.0000 0.21523  0.55170  0.86070  Biso   1.000  O
  O15      1.0000 0.19694  0.37479  0.90851  Biso   1.000  O
  O16      1.0000 0.22069  0.37793  0.94362  Biso   1.000  O
  O17      1.0000 0.13900  0.27657  0.94078  Biso   1.000  O
  O18      1.0000 0.13026  0.30355  0.90919  Biso   1.000  O
  O19      1.0000 0.19874  0.36438  0.09392  Biso   1.000  O
  O20      1.0000 0.21882  0.37745  0.05812  Biso   1.000  O
  O21      1.0000 0.13746  0.27334  0.05211  Biso   1.000  O
  O22      1.0000 0.13733  0.29439  0.08841  Biso   1.000  O
  O23      1.0000 0.04068  0.40836  0.74330  Biso   1.000  O
  O24      1.0000 0.06346  0.44336  0.74781  Biso   1.000  O
  O25      1.0000 0.95119  0.40782  0.74678  Biso   1.000  O
  O26      1.0000 0.92865  0.44378  0.75155  Biso   1.000  O
  O27      1.0000 0.09821  0.39243  0.74300  Biso   1.000  O
  O28      1.0000 0.24912  0.39401  0.89306  Biso   1.000  O
  C1       1.0000 0.26170  0.37580  0.83172  Biso   1.000  C
  C2       1.0000 0.26830  0.37670  0.80378  Biso   1.000  C
  C3       1.0000 0.29380  0.37580  0.79671  Biso   1.000  C
  H1       1.0000 0.30670  0.37420  0.80930  Biso   1.000  H
  C4       1.0000 0.30026  0.37730  0.77135  Biso   1.000  C
  C5       1.0000 0.32818  0.37780  0.76490  Biso   1.000  C
  C6       1.0000 0.28140  0.37890  0.75301  Biso   1.000  C
  H2       1.0000 0.28600  0.37960  0.73560  Biso   1.000  H
  C7       1.0000 0.24958  0.37880  0.78524  Biso   1.000  C
  H3       1.0000 0.23230  0.37990  0.79020  Biso   1.000  H
  C8       1.0000 0.25573  0.37940  0.75966  Biso   1.000  C
  C9       1.0000 0.23546  0.38050  0.73980  Biso   1.000  C
  C10      1.0000 0.24142  0.38190  0.71433  Biso   1.000  C
  H4       1.0000 0.25880  0.38210  0.70940  Biso   1.000  H
  C11      1.0000 0.20955  0.38070  0.74590  Biso   1.000  C
  H5       1.0000 0.20450  0.37910  0.76320  Biso   1.000  H
  C12      1.0000 0.19107  0.38300  0.72730  Biso   1.000  C
  C13      1.0000 0.16320  0.38340  0.73370  Biso   1.000  C
  C14      1.0000 0.19780  0.38450  0.70260  Biso   1.000  C
  H6       1.0000 0.18510  0.38670  0.68990  Biso   1.000  H
  C15      1.0000 0.22295  0.38300  0.69569  Biso   1.000  C
  C16      1.0000 0.22990  0.38360  0.66802  Biso   1.000  C
  C17      1.0000 0.19782  0.42453  0.85589  Biso   1.000  C
  C18      1.0000 0.17762  0.43866  0.84154  Biso   1.000  C
  C19      1.0000 0.16109  0.42548  0.82584  Biso   1.000  C
  H7       1.0000 0.16140  0.40740  0.82520  Biso   1.000  H
  C20      1.0000 0.14411  0.43927  0.81099  Biso   1.000  C
  C21      1.0000 0.12749  0.42571  0.79229  Biso   1.000  C
  C22      1.0000 0.14289  0.46546  0.81291  Biso   1.000  C
  H8       1.0000 0.13080  0.47460  0.80310  Biso   1.000  H
  C23      1.0000 0.17666  0.46505  0.84303  Biso   1.000  C
  H9       1.0000 0.18820  0.47380  0.85380  Biso   1.000  H
  C24      1.0000 0.15920  0.47850  0.82904  Biso   1.000  C
  C25      1.0000 0.15759  0.50731  0.83082  Biso   1.000  C
  C26      1.0000 0.13979  0.52100  0.81695  Biso   1.000  C
  H10      1.0000 0.12850  0.51220  0.80590  Biso   1.000  H
  C27      1.0000 0.13819  0.54744  0.81887  Biso   1.000  C
  O29      1.0000 0.11170  0.58271  0.81034  Biso   1.000  O
  C28      1.0000 0.15457  0.56039  0.83470  Biso   1.000  C
  H11      1.0000 0.15300  0.57830  0.83680  Biso   1.000  H
  C29      1.0000 0.17320  0.54711  0.84740  Biso   1.000  C
  C30      1.0000 0.19280  0.56120  0.86200  Biso   1.000  C
  C31      1.0000 0.17470  0.52124  0.84530  Biso   1.000  C
  H12      1.0000 0.18790  0.51250  0.85400  Biso   1.000  H
  C32      1.0000 0.20120  0.37050  0.93100  Biso   1.000  C
  C33      1.0000 0.18310  0.35330  0.94510  Biso   1.000  C
  C34      1.0000 0.16780  0.33690  0.93122  Biso   1.000  C
  H13      1.0000 0.16680  0.33810  0.91320  Biso   1.000  H
  C35      1.0000 0.15400  0.31850  0.94433  Biso   1.000  C
  C36      1.0000 0.13950  0.29850  0.93015  Biso   1.000  C
  C37      1.0000 0.15490  0.31790  0.97095  Biso   1.000  C
  H14      1.0000 0.14530  0.30540  0.97970  Biso   1.000  H
  C38      1.0000 0.18380  0.35218  0.97182  Biso   1.000  C
  H15      1.0000 0.19450  0.36350  0.98090  Biso   1.000  H
  C39      1.0000 0.16920  0.33501  0.98495  Biso   1.000  C
  C40      1.0000 0.16970  0.33356  0.01376  Biso   1.000  C
  C41      1.0000 0.18423  0.35022  0.02835  Biso   1.000  C
  H16      1.0000 0.19410  0.36290  0.02000  Biso   1.000  H
  C42      1.0000 0.18472  0.34884  0.05464  Biso   1.000  C
  C43      1.0000 0.20220  0.36515  0.06979  Biso   1.000  C
  C44      1.0000 0.17039  0.33080  0.06715  Biso   1.000  C
  H17      1.0000 0.17000  0.33020  0.08520  Biso   1.000  H
  C45      1.0000 0.15639  0.31338  0.05246  Biso   1.000  C
  C46      1.0000 0.14259  0.29214  0.06586  Biso   1.000  C
  C47      1.0000 0.15650  0.31468  0.02626  Biso   1.000  C
  H18      1.0000 0.14730  0.30240  0.01670  Biso   1.000  H
  C48      1.0000 0.04304  0.43151  0.74630  Biso   1.000  C
  C49      1.0000 0.01866  0.44624  0.74720  Biso   1.000  C
  C50      1.0000 0.99579  0.43314  0.74750  Biso   1.000  C
  H19      1.0000 0.99560  0.41510  0.74660  Biso   1.000  H
  C51      1.0000 0.97357  0.44632  0.74900  Biso   1.000  C
  C52      1.0000 0.94931  0.43162  0.74920  Biso   1.000  C
  C53      1.0000 0.97338  0.47250  0.75000  Biso   1.000  C
  H20      1.0000 0.95770  0.48130  0.75140  Biso   1.000  H
  C54      1.0000 0.99617  0.48598  0.74900  Biso   1.000  C
  C55      1.0000 0.01882  0.47240  0.74840  Biso   1.000  C
  H21      1.0000 0.03460  0.48120  0.74890  Biso   1.000  H
  O30      1.0000 0.27918  0.36707  0.84533  Biso   1.000  O
  C56      1.0000 0.11995  0.56176  0.80220  Biso   1.000  C
  Zn9      1.0000 0.71976  0.87890  0.37599  Biso   1.000  Zn
  Zn10     1.0000 0.77720  0.87437  0.38053  Biso   1.000  Zn
  Zn11     1.0000 0.74899  0.92790  0.37944  Biso   1.000  Zn
  Zn12     1.0000 0.74980  0.89437  0.42958  Biso   1.000  Zn
  Zn13     1.0000 0.61862  0.87313  0.26855  Biso   1.000  Zn
  Zn14     1.0000 0.61224  0.88376  0.20935  Biso   1.000  Zn
  Zn15     1.0000 0.59781  0.92855  0.24644  Biso   1.000  Zn
  Zn16     1.0000 0.56424  0.87974  0.24368  Biso   1.000  Zn
  O31      1.0000 0.74089  0.88302  0.33831  Biso   1.000  O
  O32      1.0000 0.84290  0.87023  0.28185  Biso   1.000  O
  O33      1.0000 0.83466  0.88467  0.24299  Biso   1.000  O
  O34      1.0000 0.65573  0.87604  0.25524  Biso   1.000  O
  O35      1.0000 0.64911  0.89310  0.21670  Biso   1.000  O
  O36      1.0000 0.75271  0.88646  0.16219  Biso   1.000  O
  O37      1.0000 0.71180  0.87960  0.15316  Biso   1.000  O
  O38      1.0000 0.69440  0.90102  0.35969  Biso   1.000  O
  O39      1.0000 0.71654  0.93710  0.36345  Biso   1.000  O
  O40      1.0000 0.62692  0.90207  0.29365  Biso   1.000  O
  O41      1.0000 0.61558  0.93939  0.27680  Biso   1.000  O
  O42      1.0000 0.61475  0.05246  0.28107  Biso   1.000  O
  O43      1.0000 0.68700  0.08122  0.37288  Biso   1.000  O
  O44      1.0000 0.71523  0.05170  0.36070  Biso   1.000  O
  O45      1.0000 0.69694  0.87479  0.40851  Biso   1.000  O
  O46      1.0000 0.72069  0.87793  0.44362  Biso   1.000  O
  O47      1.0000 0.63900  0.77657  0.44078  Biso   1.000  O
  O48      1.0000 0.63026  0.80355  0.40919  Biso   1.000  O
  O49      1.0000 0.69874  0.86438  0.59392  Biso   1.000  O
  O50      1.0000 0.71882  0.87745  0.55812  Biso   1.000  O
  O51      1.0000 0.63746  0.77334  0.55211  Biso   1.000  O
  O52      1.0000 0.63733  0.79439  0.58841  Biso   1.000  O
  O53      1.0000 0.54068  0.90836  0.24330  Biso   1.000  O
  O54      1.0000 0.56346  0.94336  0.24781  Biso   1.000  O
  O55      1.0000 0.45119  0.90782  0.24678  Biso   1.000  O
  O56      1.0000 0.42865  0.94378  0.25155  Biso   1.000  O
  O57      1.0000 0.59821  0.89243  0.24300  Biso   1.000  O
  O58      1.0000 0.74912  0.89401  0.39306  Biso   1.000  O
  C57      1.0000 0.76170  0.87580  0.33172  Biso   1.000  C
  C58      1.0000 0.76830  0.87670  0.30378  Biso   1.000  C
  C59      1.0000 0.79380  0.87580  0.29671  Biso   1.000  C
  H22      1.0000 0.80670  0.87420  0.30930  Biso   1.000  H
  C60      1.0000 0.80026  0.87730  0.27135  Biso   1.000  C
  C61      1.0000 0.82818  0.87780  0.26490  Biso   1.000  C
  C62      1.0000 0.78140  0.87890  0.25301  Biso   1.000  C
  H23      1.0000 0.78600  0.87960  0.23560  Biso   1.000  H
  C63      1.0000 0.74958  0.87880  0.28524  Biso   1.000  C
  H24      1.0000 0.73230  0.87990  0.29020  Biso   1.000  H
  C64      1.0000 0.75573  0.87940  0.25966  Biso   1.000  C
  C65      1.0000 0.73546  0.88050  0.23980  Biso   1.000  C
  C66      1.0000 0.74142  0.88190  0.21433  Biso   1.000  C
  H25      1.0000 0.75880  0.88210  0.20940  Biso   1.000  H
  C67      1.0000 0.70955  0.88070  0.24590  Biso   1.000  C
  H26      1.0000 0.70450  0.87910  0.26320  Biso   1.000  H
  C68      1.0000 0.69107  0.88300  0.22730  Biso   1.000  C
  C69      1.0000 0.66320  0.88340  0.23370  Biso   1.000  C
  C70      1.0000 0.69780  0.88450  0.20260  Biso   1.000  C
  H27      1.0000 0.68510  0.88670  0.18990  Biso   1.000  H
  C71      1.0000 0.72295  0.88300  0.19569  Biso   1.000  C
  C72      1.0000 0.72990  0.88360  0.16802  Biso   1.000  C
  C73      1.0000 0.69782  0.92453  0.35589  Biso   1.000  C
  C74      1.0000 0.67762  0.93866  0.34154  Biso   1.000  C
  C75      1.0000 0.66109  0.92548  0.32584  Biso   1.000  C
  H28      1.0000 0.66140  0.90740  0.32520  Biso   1.000  H
  C76      1.0000 0.64411  0.93927  0.31099  Biso   1.000  C
  C77      1.0000 0.62749  0.92571  0.29229  Biso   1.000  C
  C78      1.0000 0.64289  0.96546  0.31291  Biso   1.000  C
  H29      1.0000 0.63080  0.97460  0.30310  Biso   1.000  H
  C79      1.0000 0.67666  0.96505  0.34303  Biso   1.000  C
  H30      1.0000 0.68820  0.97380  0.35380  Biso   1.000  H
  C80      1.0000 0.65920  0.97850  0.32904  Biso   1.000  C
  C81      1.0000 0.65759  0.00731  0.33082  Biso   1.000  C
  C82      1.0000 0.63979  0.02100  0.31695  Biso   1.000  C
  H31      1.0000 0.62850  0.01220  0.30590  Biso   1.000  H
  C83      1.0000 0.63819  0.04744  0.31887  Biso   1.000  C
  O59      1.0000 0.61170  0.08271  0.31034  Biso   1.000  O
  C84      1.0000 0.65457  0.06039  0.33470  Biso   1.000  C
  H32      1.0000 0.65300  0.07830  0.33680  Biso   1.000  H
  C85      1.0000 0.67320  0.04711  0.34740  Biso   1.000  C
  C86      1.0000 0.69280  0.06120  0.36200  Biso   1.000  C
  C87      1.0000 0.67470  0.02124  0.34530  Biso   1.000  C
  H33      1.0000 0.68790  0.01250  0.35400  Biso   1.000  H
  C88      1.0000 0.70120  0.87050  0.43100  Biso   1.000  C
  C89      1.0000 0.68310  0.85330  0.44510  Biso   1.000  C
  C90      1.0000 0.66780  0.83690  0.43122  Biso   1.000  C
  H34      1.0000 0.66680  0.83810  0.41320  Biso   1.000  H
  C91      1.0000 0.65400  0.81850  0.44433  Biso   1.000  C
  C92      1.0000 0.63950  0.79850  0.43015  Biso   1.000  C
  C93      1.0000 0.65490  0.81790  0.47095  Biso   1.000  C
  H35      1.0000 0.64530  0.80540  0.47970  Biso   1.000  H
  C94      1.0000 0.68380  0.85218  0.47182  Biso   1.000  C
  H36      1.0000 0.69450  0.86350  0.48090  Biso   1.000  H
  C95      1.0000 0.66920  0.83501  0.48495  Biso   1.000  C
  C96      1.0000 0.66970  0.83356  0.51376  Biso   1.000  C
  C97      1.0000 0.68423  0.85022  0.52835  Biso   1.000  C
  H37      1.0000 0.69410  0.86290  0.52000  Biso   1.000  H
  C98      1.0000 0.68472  0.84884  0.55464  Biso   1.000  C
  C99      1.0000 0.70220  0.86515  0.56979  Biso   1.000  C
  C100     1.0000 0.67039  0.83080  0.56715  Biso   1.000  C
  H38      1.0000 0.67000  0.83020  0.58520  Biso   1.000  H
  C101     1.0000 0.65639  0.81338  0.55246  Biso   1.000  C
  C102     1.0000 0.64259  0.79214  0.56586  Biso   1.000  C
  C103     1.0000 0.65650  0.81468  0.52626  Biso   1.000  C
  H39      1.0000 0.64730  0.80240  0.51670  Biso   1.000  H
  C104     1.0000 0.54304  0.93151  0.24630  Biso   1.000  C
  C105     1.0000 0.51866  0.94624  0.24720  Biso   1.000  C
  C106     1.0000 0.49579  0.93314  0.24750  Biso   1.000  C
  H40      1.0000 0.49560  0.91510  0.24660  Biso   1.000  H
  C107     1.0000 0.47357  0.94632  0.24900  Biso   1.000  C
  C108     1.0000 0.44931  0.93162  0.24920  Biso   1.000  C
  C109     1.0000 0.47338  0.97250  0.25000  Biso   1.000  C
  H41      1.0000 0.45770  0.98130  0.25140  Biso   1.000  H
  C110     1.0000 0.49617  0.98598  0.24900  Biso   1.000  C
  C111     1.0000 0.51882  0.97240  0.24840  Biso   1.000  C
  H42      1.0000 0.53460  0.98120  0.24890  Biso   1.000  H
  O60      1.0000 0.77918  0.86707  0.34533  Biso   1.000  O
  C112     1.0000 0.61995  0.06176  0.30220  Biso   1.000  C
  Zn17     1.0000 0.28024  0.62110  0.37599  Biso   1.000  Zn
  Zn18     1.0000 0.22280  0.62563  0.38053  Biso   1.000  Zn
  Zn19     1.0000 0.25101  0.57210  0.37944  Biso   1.000  Zn
  Zn20     1.0000 0.25020  0.60563  0.42958  Biso   1.000  Zn
  Zn21     1.0000 0.38138  0.62687  0.26855  Biso   1.000  Zn
  Zn22     1.0000 0.38776  0.61624  0.20935  Biso   1.000  Zn
  Zn23     1.0000 0.40219  0.57145  0.24644  Biso   1.000  Zn
  Zn24     1.0000 0.43576  0.62026  0.24368  Biso   1.000  Zn
  O61      1.0000 0.25911  0.61698  0.33831  Biso   1.000  O
  O62      1.0000 0.15710  0.62977  0.28185  Biso   1.000  O
  O63      1.0000 0.16534  0.61533  0.24299  Biso   1.000  O
  O64      1.0000 0.34427  0.62396  0.25524  Biso   1.000  O
  O65      1.0000 0.35089  0.60690  0.21670  Biso   1.000  O
  O66      1.0000 0.24729  0.61354  0.16219  Biso   1.000  O
  O67      1.0000 0.28820  0.62040  0.15316  Biso   1.000  O
  O68      1.0000 0.30560  0.59898  0.35969  Biso   1.000  O
  O69      1.0000 0.28346  0.56290  0.36345  Biso   1.000  O
  O70      1.0000 0.37308  0.59793  0.29365  Biso   1.000  O
  O71      1.0000 0.38442  0.56061  0.27680  Biso   1.000  O
  O72      1.0000 0.38525  0.44754  0.28107  Biso   1.000  O
  O73      1.0000 0.31300  0.41878  0.37288  Biso   1.000  O
  O74      1.0000 0.28477  0.44830  0.36070  Biso   1.000  O
  O75      1.0000 0.30306  0.62521  0.40851  Biso   1.000  O
  O76      1.0000 0.27931  0.62207  0.44362  Biso   1.000  O
  O77      1.0000 0.36100  0.72343  0.44078  Biso   1.000  O
  O78      1.0000 0.36974  0.69645  0.40919  Biso   1.000  O
  O79      1.0000 0.30126  0.63562  0.59392  Biso   1.000  O
  O80      1.0000 0.28118  0.62255  0.55812  Biso   1.000  O
  O81      1.0000 0.36254  0.72666  0.55211  Biso   1.000  O
  O82      1.0000 0.36267  0.70561  0.58841  Biso   1.000  O
  O83      1.0000 0.45932  0.59164  0.24330  Biso   1.000  O
  O84      1.0000 0.43654  0.55664  0.24781  Biso   1.000  O
  O85      1.0000 0.54881  0.59218  0.24678  Biso   1.000  O
  O86      1.0000 0.57135  0.55622  0.25155  Biso   1.000  O
  O87      1.0000 0.40179  0.60757  0.24300  Biso   1.000  O
  O88      1.0000 0.25088  0.60599  0.39306  Biso   1.000  O
  C113     1.0000 0.23830  0.62420  0.33172  Biso   1.000  C
  C114     1.0000 0.23170  0.62330  0.30378  Biso   1.000  C
  C115     1.0000 0.20620  0.62420  0.29671  Biso   1.000  C
  H43      1.0000 0.19330  0.62580  0.30930  Biso   1.000  H
  C116     1.0000 0.19974  0.62270  0.27135  Biso   1.000  C
  C117     1.0000 0.17182  0.62220  0.26490  Biso   1.000  C
  C118     1.0000 0.21860  0.62110  0.25301  Biso   1.000  C
  H44      1.0000 0.21400  0.62040  0.23560  Biso   1.000  H
  C119     1.0000 0.25042  0.62120  0.28524  Biso   1.000  C
  H45      1.0000 0.26770  0.62010  0.29020  Biso   1.000  H
  C120     1.0000 0.24427  0.62060  0.25966  Biso   1.000  C
  C121     1.0000 0.26454  0.61950  0.23980  Biso   1.000  C
  C122     1.0000 0.25858  0.61810  0.21433  Biso   1.000  C
  H46      1.0000 0.24120  0.61790  0.20940  Biso   1.000  H
  C123     1.0000 0.29045  0.61930  0.24590  Biso   1.000  C
  H47      1.0000 0.29550  0.62090  0.26320  Biso   1.000  H
  C124     1.0000 0.30893  0.61700  0.22730  Biso   1.000  C
  C125     1.0000 0.33680  0.61660  0.23370  Biso   1.000  C
  C126     1.0000 0.30220  0.61550  0.20260  Biso   1.000  C
  H48      1.0000 0.31490  0.61330  0.18990  Biso   1.000  H
  C127     1.0000 0.27705  0.61700  0.19569  Biso   1.000  C
  C128     1.0000 0.27010  0.61640  0.16802  Biso   1.000  C
  C129     1.0000 0.30218  0.57547  0.35589  Biso   1.000  C
  C130     1.0000 0.32238  0.56134  0.34154  Biso   1.000  C
  C131     1.0000 0.33891  0.57452  0.32584  Biso   1.000  C
  H49      1.0000 0.33860  0.59260  0.32520  Biso   1.000  H
  C132     1.0000 0.35589  0.56073  0.31099  Biso   1.000  C
  C133     1.0000 0.37251  0.57429  0.29229  Biso   1.000  C
  C134     1.0000 0.35711  0.53454  0.31291  Biso   1.000  C
  H50      1.0000 0.36920  0.52540  0.30310  Biso   1.000  H
  C135     1.0000 0.32334  0.53495  0.34303  Biso   1.000  C
  H51      1.0000 0.31180  0.52620  0.35380  Biso   1.000  H
  C136     1.0000 0.34080  0.52150  0.32904  Biso   1.000  C
  C137     1.0000 0.34241  0.49269  0.33082  Biso   1.000  C
  C138     1.0000 0.36021  0.47900  0.31695  Biso   1.000  C
  H52      1.0000 0.37150  0.48780  0.30590  Biso   1.000  H
  C139     1.0000 0.36181  0.45256  0.31887  Biso   1.000  C
  O89      1.0000 0.38830  0.41729  0.31034  Biso   1.000  O
  C140     1.0000 0.34543  0.43961  0.33470  Biso   1.000  C
  H53      1.0000 0.34700  0.42170  0.33680  Biso   1.000  H
  C141     1.0000 0.32680  0.45289  0.34740  Biso   1.000  C
  C142     1.0000 0.30720  0.43880  0.36200  Biso   1.000  C
  C143     1.0000 0.32530  0.47876  0.34530  Biso   1.000  C
  H54      1.0000 0.31210  0.48750  0.35400  Biso   1.000  H
  C144     1.0000 0.29880  0.62950  0.43100  Biso   1.000  C
  C145     1.0000 0.31690  0.64670  0.44510  Biso   1.000  C
  C146     1.0000 0.33220  0.66310  0.43122  Biso   1.000  C
  H55      1.0000 0.33320  0.66190  0.41320  Biso   1.000  H
  C147     1.0000 0.34600  0.68150  0.44433  Biso   1.000  C
  C148     1.0000 0.36050  0.70150  0.43015  Biso   1.000  C
  C149     1.0000 0.34510  0.68210  0.47095  Biso   1.000  C
  H56      1.0000 0.35470  0.69460  0.47970  Biso   1.000  H
  C150     1.0000 0.31620  0.64782  0.47182  Biso   1.000  C
  H57      1.0000 0.30550  0.63650  0.48090  Biso   1.000  H
  C151     1.0000 0.33080  0.66499  0.48495  Biso   1.000  C
  C152     1.0000 0.33030  0.66644  0.51376  Biso   1.000  C
  C153     1.0000 0.31577  0.64978  0.52835  Biso   1.000  C
  H58      1.0000 0.30590  0.63710  0.52000  Biso   1.000  H
  C154     1.0000 0.31528  0.65116  0.55464  Biso   1.000  C
  C155     1.0000 0.29780  0.63485  0.56979  Biso   1.000  C
  C156     1.0000 0.32961  0.66920  0.56715  Biso   1.000  C
  H59      1.0000 0.33000  0.66980  0.58520  Biso   1.000  H
  C157     1.0000 0.34361  0.68662  0.55246  Biso   1.000  C
  C158     1.0000 0.35741  0.70786  0.56586  Biso   1.000  C
  C159     1.0000 0.34350  0.68532  0.52626  Biso   1.000  C
  H60      1.0000 0.35270  0.69760  0.51670  Biso   1.000  H
  C160     1.0000 0.45696  0.56849  0.24630  Biso   1.000  C
  C161     1.0000 0.48134  0.55376  0.24720  Biso   1.000  C
  C162     1.0000 0.50421  0.56686  0.24750  Biso   1.000  C
  H61      1.0000 0.50440  0.58490  0.24660  Biso   1.000  H
  C163     1.0000 0.52643  0.55368  0.24900  Biso   1.000  C
  C164     1.0000 0.55069  0.56838  0.24920  Biso   1.000  C
  C165     1.0000 0.52662  0.52750  0.25000  Biso   1.000  C
  H62      1.0000 0.54230  0.51870  0.25140  Biso   1.000  H
  C166     1.0000 0.50383  0.51402  0.24900  Biso   1.000  C
  C167     1.0000 0.48118  0.52760  0.24840  Biso   1.000  C
  H63      1.0000 0.46540  0.51880  0.24890  Biso   1.000  H
  O90      1.0000 0.22082  0.63293  0.34533  Biso   1.000  O
  C168     1.0000 0.38005  0.43824  0.30220  Biso   1.000  C
  Zn25     1.0000 0.78024  0.12110  0.87599  Biso   1.000  Zn
  Zn26     1.0000 0.72280  0.12563  0.88053  Biso   1.000  Zn
  Zn27     1.0000 0.75101  0.07210  0.87944  Biso   1.000  Zn
  Zn28     1.0000 0.75020  0.10563  0.92958  Biso   1.000  Zn
  Zn29     1.0000 0.88138  0.12687  0.76855  Biso   1.000  Zn
  Zn30     1.0000 0.88776  0.11624  0.70935  Biso   1.000  Zn
  Zn31     1.0000 0.90219  0.07145  0.74644  Biso   1.000  Zn
  Zn32     1.0000 0.93576  0.12026  0.74368  Biso   1.000  Zn
  O91      1.0000 0.75911  0.11698  0.83831  Biso   1.000  O
  O92      1.0000 0.65710  0.12977  0.78185  Biso   1.000  O
  O93      1.0000 0.66534  0.11533  0.74299  Biso   1.000  O
  O94      1.0000 0.84427  0.12396  0.75524  Biso   1.000  O
  O95      1.0000 0.85089  0.10690  0.71670  Biso   1.000  O
  O96      1.0000 0.74729  0.11354  0.66219  Biso   1.000  O
  O97      1.0000 0.78820  0.12040  0.65316  Biso   1.000  O
  O98      1.0000 0.80560  0.09898  0.85969  Biso   1.000  O
  O99      1.0000 0.78346  0.06290  0.86345  Biso   1.000  O
  O100     1.0000 0.87308  0.09793  0.79365  Biso   1.000  O
  O101     1.0000 0.88442  0.06061  0.77680  Biso   1.000  O
  O102     1.0000 0.88525  0.94754  0.78107  Biso   1.000  O
  O103     1.0000 0.81300  0.91878  0.87288  Biso   1.000  O
  O104     1.0000 0.78477  0.94830  0.86070  Biso   1.000  O
  O105     1.0000 0.80306  0.12521  0.90851  Biso   1.000  O
  O106     1.0000 0.77931  0.12207  0.94362  Biso   1.000  O
  O107     1.0000 0.86100  0.22343  0.94078  Biso   1.000  O
  O108     1.0000 0.86974  0.19645  0.90919  Biso   1.000  O
  O109     1.0000 0.80126  0.13562  0.09392  Biso   1.000  O
  O110     1.0000 0.78118  0.12255  0.05812  Biso   1.000  O
  O111     1.0000 0.86254  0.22666  0.05211  Biso   1.000  O
  O112     1.0000 0.86267  0.20561  0.08841  Biso   1.000  O
  O113     1.0000 0.95932  0.09164  0.74330  Biso   1.000  O
  O114     1.0000 0.93654  0.05664  0.74781  Biso   1.000  O
  O115     1.0000 0.04881  0.09218  0.74678  Biso   1.000  O
  O116     1.0000 0.07135  0.05622  0.75155  Biso   1.000  O
  O117     1.0000 0.90179  0.10757  0.74300  Biso   1.000  O
  O118     1.0000 0.75088  0.10599  0.89306  Biso   1.000  O
  C169     1.0000 0.73830  0.12420  0.83172  Biso   1.000  C
  C170     1.0000 0.73170  0.12330  0.80378  Biso   1.000  C
  C171     1.0000 0.70620  0.12420  0.79671  Biso   1.000  C
  H64      1.0000 0.69330  0.12580  0.80930  Biso   1.000  H
  C172     1.0000 0.69974  0.12270  0.77135  Biso   1.000  C
  C173     1.0000 0.67182  0.12220  0.76490  Biso   1.000  C
  C174     1.0000 0.71860  0.12110  0.75301  Biso   1.000  C
  H65      1.0000 0.71400  0.12040  0.73560  Biso   1.000  H
  C175     1.0000 0.75042  0.12120  0.78524  Biso   1.000  C
  H66      1.0000 0.76770  0.12010  0.79020  Biso   1.000  H
  C176     1.0000 0.74427  0.12060  0.75966  Biso   1.000  C
  C177     1.0000 0.76454  0.11950  0.73980  Biso   1.000  C
  C178     1.0000 0.75858  0.11810  0.71433  Biso   1.000  C
  H67      1.0000 0.74120  0.11790  0.70940  Biso   1.000  H
  C179     1.0000 0.79045  0.11930  0.74590  Biso   1.000  C
  H68      1.0000 0.79550  0.12090  0.76320  Biso   1.000  H
  C180     1.0000 0.80893  0.11700  0.72730  Biso   1.000  C
  C181     1.0000 0.83680  0.11660  0.73370  Biso   1.000  C
  C182     1.0000 0.80220  0.11550  0.70260  Biso   1.000  C
  H69      1.0000 0.81490  0.11330  0.68990  Biso   1.000  H
  C183     1.0000 0.77705  0.11700  0.69569  Biso   1.000  C
  C184     1.0000 0.77010  0.11640  0.66802  Biso   1.000  C
  C185     1.0000 0.80218  0.07547  0.85589  Biso   1.000  C
  C186     1.0000 0.82238  0.06134  0.84154  Biso   1.000  C
  C187     1.0000 0.83891  0.07452  0.82584  Biso   1.000  C
  H70      1.0000 0.83860  0.09260  0.82520  Biso   1.000  H
  C188     1.0000 0.85589  0.06073  0.81099  Biso   1.000  C
  C189     1.0000 0.87251  0.07429  0.79229  Biso   1.000  C
  C190     1.0000 0.85711  0.03454  0.81291  Biso   1.000  C
  H71      1.0000 0.86920  0.02540  0.80310  Biso   1.000  H
  C191     1.0000 0.82334  0.03495  0.84303  Biso   1.000  C
  H72      1.0000 0.81180  0.02620  0.85380  Biso   1.000  H
  C192     1.0000 0.84080  0.02150  0.82904  Biso   1.000  C
  C193     1.0000 0.84241  0.99269  0.83082  Biso   1.000  C
  C194     1.0000 0.86021  0.97900  0.81695  Biso   1.000  C
  H73      1.0000 0.87150  0.98780  0.80590  Biso   1.000  H
  C195     1.0000 0.86181  0.95256  0.81887  Biso   1.000  C
  O119     1.0000 0.88830  0.91729  0.81034  Biso   1.000  O
  C196     1.0000 0.84543  0.93961  0.83470  Biso   1.000  C
  H74      1.0000 0.84700  0.92170  0.83680  Biso   1.000  H
  C197     1.0000 0.82680  0.95289  0.84740  Biso   1.000  C
  C198     1.0000 0.80720  0.93880  0.86200  Biso   1.000  C
  C199     1.0000 0.82530  0.97876  0.84530  Biso   1.000  C
  H75      1.0000 0.81210  0.98750  0.85400  Biso   1.000  H
  C200     1.0000 0.79880  0.12950  0.93100  Biso   1.000  C
  C201     1.0000 0.81690  0.14670  0.94510  Biso   1.000  C
  C202     1.0000 0.83220  0.16310  0.93122  Biso   1.000  C
  H76      1.0000 0.83320  0.16190  0.91320  Biso   1.000  H
  C203     1.0000 0.84600  0.18150  0.94433  Biso   1.000  C
  C204     1.0000 0.86050  0.20150  0.93015  Biso   1.000  C
  C205     1.0000 0.84510  0.18210  0.97095  Biso   1.000  C
  H77      1.0000 0.85470  0.19460  0.97970  Biso   1.000  H
  C206     1.0000 0.81620  0.14782  0.97182  Biso   1.000  C
  H78      1.0000 0.80550  0.13650  0.98090  Biso   1.000  H
  C207     1.0000 0.83080  0.16499  0.98495  Biso   1.000  C
  C208     1.0000 0.83030  0.16644  0.01376  Biso   1.000  C
  C209     1.0000 0.81577  0.14978  0.02835  Biso   1.000  C
  H79      1.0000 0.80590  0.13710  0.02000  Biso   1.000  H
  C210     1.0000 0.81528  0.15116  0.05464  Biso   1.000  C
  C211     1.0000 0.79780  0.13485  0.06979  Biso   1.000  C
  C212     1.0000 0.82961  0.16920  0.06715  Biso   1.000  C
  H80      1.0000 0.83000  0.16980  0.08520  Biso   1.000  H
  C213     1.0000 0.84361  0.18662  0.05246  Biso   1.000  C
  C214     1.0000 0.85741  0.20786  0.06586  Biso   1.000  C
  C215     1.0000 0.84350  0.18532  0.02626  Biso   1.000  C
  H81      1.0000 0.85270  0.19760  0.01670  Biso   1.000  H
  C216     1.0000 0.95696  0.06849  0.74630  Biso   1.000  C
  C217     1.0000 0.98134  0.05376  0.74720  Biso   1.000  C
  C218     1.0000 0.00421  0.06686  0.74750  Biso   1.000  C
  H82      1.0000 0.00440  0.08490  0.74660  Biso   1.000  H
  C219     1.0000 0.02643  0.05368  0.74900  Biso   1.000  C
  C220     1.0000 0.05069  0.06838  0.74920  Biso   1.000  C
  C221     1.0000 0.02662  0.02750  0.75000  Biso   1.000  C
  H83      1.0000 0.04230  0.01870  0.75140  Biso   1.000  H
  C222     1.0000 0.00383  0.01402  0.74900  Biso   1.000  C
  C223     1.0000 0.98118  0.02760  0.74840  Biso   1.000  C
  H84      1.0000 0.96540  0.01880  0.74890  Biso   1.000  H
  O120     1.0000 0.72082  0.13293  0.84533  Biso   1.000  O
  C224     1.0000 0.88005  0.93824  0.80220  Biso   1.000  C
  Zn33     1.0000 0.78024  0.87890  0.62401  Biso   1.000  Zn
  Zn34     1.0000 0.72280  0.87437  0.61947  Biso   1.000  Zn
  Zn35     1.0000 0.75101  0.92790  0.62056  Biso   1.000  Zn
  Zn36     1.0000 0.75020  0.89437  0.57042  Biso   1.000  Zn
  Zn37     1.0000 0.88138  0.87313  0.73145  Biso   1.000  Zn
  Zn38     1.0000 0.88776  0.88376  0.79065  Biso   1.000  Zn
  Zn39     1.0000 0.90219  0.92855  0.75356  Biso   1.000  Zn
  Zn40     1.0000 0.93576  0.87974  0.75632  Biso   1.000  Zn
  O121     1.0000 0.75911  0.88302  0.66169  Biso   1.000  O
  O122     1.0000 0.65710  0.87023  0.71815  Biso   1.000  O
  O123     1.0000 0.66534  0.88467  0.75701  Biso   1.000  O
  O124     1.0000 0.84427  0.87604  0.74476  Biso   1.000  O
  O125     1.0000 0.85089  0.89310  0.78330  Biso   1.000  O
  O126     1.0000 0.74729  0.88646  0.83781  Biso   1.000  O
  O127     1.0000 0.78820  0.87960  0.84684  Biso   1.000  O
  O128     1.0000 0.80560  0.90102  0.64031  Biso   1.000  O
  O129     1.0000 0.78346  0.93710  0.63655  Biso   1.000  O
  O130     1.0000 0.87308  0.90207  0.70635  Biso   1.000  O
  O131     1.0000 0.88442  0.93939  0.72320  Biso   1.000  O
  O132     1.0000 0.88525  0.05246  0.71893  Biso   1.000  O
  O133     1.0000 0.81300  0.08122  0.62712  Biso   1.000  O
  O134     1.0000 0.78477  0.05170  0.63930  Biso   1.000  O
  O135     1.0000 0.80306  0.87479  0.59149  Biso   1.000  O
  O136     1.0000 0.77931  0.87793  0.55638  Biso   1.000  O
  O137     1.0000 0.86100  0.77657  0.55922  Biso   1.000  O
  O138     1.0000 0.86974  0.80355  0.59081  Biso   1.000  O
  O139     1.0000 0.80126  0.86438  0.40608  Biso   1.000  O
  O140     1.0000 0.78118  0.87745  0.44188  Biso   1.000  O
  O141     1.0000 0.86254  0.77334  0.44789  Biso   1.000  O
  O142     1.0000 0.86267  0.79439  0.41159  Biso   1.000  O
  O143     1.0000 0.95932  0.90836  0.75670  Biso   1.000  O
  O144     1.0000 0.93654  0.94336  0.75219  Biso   1.000  O
  O145     1.0000 0.04881  0.90782  0.75322  Biso   1.000  O
  O146     1.0000 0.07135  0.94378  0.74845  Biso   1.000  O
  O147     1.0000 0.90179  0.89243  0.75700  Biso   1.000  O
  O148     1.0000 0.75088  0.89401  0.60694  Biso   1.000  O
  C225     1.0000 0.73830  0.87580  0.66828  Biso   1.000  C
  C226     1.0000 0.73170  0.87670  0.69622  Biso   1.000  C
  C227     1.0000 0.70620  0.87580  0.70329  Biso   1.000  C
  H85      1.0000 0.69330  0.87420  0.69070  Biso   1.000  H
  C228     1.0000 0.69974  0.87730  0.72865  Biso   1.000  C
  C229     1.0000 0.67182  0.87780  0.73510  Biso   1.000  C
  C230     1.0000 0.71860  0.87890  0.74699  Biso   1.000  C
  H86      1.0000 0.71400  0.87960  0.76440  Biso   1.000  H
  C231     1.0000 0.75042  0.87880  0.71476  Biso   1.000  C
  H87      1.0000 0.76770  0.87990  0.70980  Biso   1.000  H
  C232     1.0000 0.74427  0.87940  0.74034  Biso   1.000  C
  C233     1.0000 0.76454  0.88050  0.76020  Biso   1.000  C
  C234     1.0000 0.75858  0.88190  0.78567  Biso   1.000  C
  H88      1.0000 0.74120  0.88210  0.79060  Biso   1.000  H
  C235     1.0000 0.79045  0.88070  0.75410  Biso   1.000  C
  H89      1.0000 0.79550  0.87910  0.73680  Biso   1.000  H
  C236     1.0000 0.80893  0.88300  0.77270  Biso   1.000  C
  C237     1.0000 0.83680  0.88340  0.76630  Biso   1.000  C
  C238     1.0000 0.80220  0.88450  0.79740  Biso   1.000  C
  H90      1.0000 0.81490  0.88670  0.81010  Biso   1.000  H
  C239     1.0000 0.77705  0.88300  0.80431  Biso   1.000  C
  C240     1.0000 0.77010  0.88360  0.83198  Biso   1.000  C
  C241     1.0000 0.80218  0.92453  0.64411  Biso   1.000  C
  C242     1.0000 0.82238  0.93866  0.65846  Biso   1.000  C
  C243     1.0000 0.83891  0.92548  0.67416  Biso   1.000  C
  H91      1.0000 0.83860  0.90740  0.67480  Biso   1.000  H
  C244     1.0000 0.85589  0.93927  0.68901  Biso   1.000  C
  C245     1.0000 0.87251  0.92571  0.70771  Biso   1.000  C
  C246     1.0000 0.85711  0.96546  0.68709  Biso   1.000  C
  H92      1.0000 0.86920  0.97460  0.69690  Biso   1.000  H
  C247     1.0000 0.82334  0.96505  0.65697  Biso   1.000  C
  H93      1.0000 0.81180  0.97380  0.64620  Biso   1.000  H
  C248     1.0000 0.84080  0.97850  0.67096  Biso   1.000  C
  C249     1.0000 0.84241  0.00731  0.66918  Biso   1.000  C
  C250     1.0000 0.86021  0.02100  0.68305  Biso   1.000  C
  H94      1.0000 0.87150  0.01220  0.69410  Biso   1.000  H
  C251     1.0000 0.86181  0.04744  0.68113  Biso   1.000  C
  O149     1.0000 0.88830  0.08271  0.68966  Biso   1.000  O
  C252     1.0000 0.84543  0.06039  0.66530  Biso   1.000  C
  H95      1.0000 0.84700  0.07830  0.66320  Biso   1.000  H
  C253     1.0000 0.82680  0.04711  0.65260  Biso   1.000  C
  C254     1.0000 0.80720  0.06120  0.63800  Biso   1.000  C
  C255     1.0000 0.82530  0.02124  0.65470  Biso   1.000  C
  H96      1.0000 0.81210  0.01250  0.64600  Biso   1.000  H
  C256     1.0000 0.79880  0.87050  0.56900  Biso   1.000  C
  C257     1.0000 0.81690  0.85330  0.55490  Biso   1.000  C
  C258     1.0000 0.83220  0.83690  0.56878  Biso   1.000  C
  H97      1.0000 0.83320  0.83810  0.58680  Biso   1.000  H
  C259     1.0000 0.84600  0.81850  0.55567  Biso   1.000  C
  C260     1.0000 0.86050  0.79850  0.56985  Biso   1.000  C
  C261     1.0000 0.84510  0.81790  0.52905  Biso   1.000  C
  H98      1.0000 0.85470  0.80540  0.52030  Biso   1.000  H
  C262     1.0000 0.81620  0.85218  0.52818  Biso   1.000  C
  H99      1.0000 0.80550  0.86350  0.51910  Biso   1.000  H
  C263     1.0000 0.83080  0.83501  0.51505  Biso   1.000  C
  C264     1.0000 0.83030  0.83356  0.48624  Biso   1.000  C
  C265     1.0000 0.81577  0.85022  0.47165  Biso   1.000  C
  H100     1.0000 0.80590  0.86290  0.48000  Biso   1.000  H
  C266     1.0000 0.81528  0.84884  0.44536  Biso   1.000  C
  C267     1.0000 0.79780  0.86515  0.43021  Biso   1.000  C
  C268     1.0000 0.82961  0.83080  0.43285  Biso   1.000  C
  H101     1.0000 0.83000  0.83020  0.41480  Biso   1.000  H
  C269     1.0000 0.84361  0.81338  0.44754  Biso   1.000  C
  C270     1.0000 0.85741  0.79214  0.43414  Biso   1.000  C
  C271     1.0000 0.84350  0.81468  0.47374  Biso   1.000  C
  H102     1.0000 0.85270  0.80240  0.48330  Biso   1.000  H
  C272     1.0000 0.95696  0.93151  0.75370  Biso   1.000  C
  C273     1.0000 0.98134  0.94624  0.75280  Biso   1.000  C
  C274     1.0000 0.00421  0.93314  0.75250  Biso   1.000  C
  H103     1.0000 0.00440  0.91510  0.75340  Biso   1.000  H
  C275     1.0000 0.02643  0.94632  0.75100  Biso   1.000  C
  C276     1.0000 0.05069  0.93162  0.75080  Biso   1.000  C
  C277     1.0000 0.02662  0.97250  0.75000  Biso   1.000  C
  H104     1.0000 0.04230  0.98130  0.74860  Biso   1.000  H
  C278     1.0000 0.00383  0.98598  0.75100  Biso   1.000  C
  C279     1.0000 0.98118  0.97240  0.75160  Biso   1.000  C
  H105     1.0000 0.96540  0.98120  0.75110  Biso   1.000  H
  O150     1.0000 0.72082  0.86707  0.65467  Biso   1.000  O
  C280     1.0000 0.88005  0.06176  0.69780  Biso   1.000  C
  Zn41     1.0000 0.28024  0.37890  0.12401  Biso   1.000  Zn
  Zn42     1.0000 0.22280  0.37437  0.11947  Biso   1.000  Zn
  Zn43     1.0000 0.25101  0.42790  0.12056  Biso   1.000  Zn
  Zn44     1.0000 0.25020  0.39437  0.07042  Biso   1.000  Zn
  Zn45     1.0000 0.38138  0.37313  0.23145  Biso   1.000  Zn
  Zn46     1.0000 0.38776  0.38376  0.29065  Biso   1.000  Zn
  Zn47     1.0000 0.40219  0.42855  0.25356  Biso   1.000  Zn
  Zn48     1.0000 0.43576  0.37974  0.25632  Biso   1.000  Zn
  O151     1.0000 0.25911  0.38302  0.16169  Biso   1.000  O
  O152     1.0000 0.15710  0.37023  0.21815  Biso   1.000  O
  O153     1.0000 0.16534  0.38467  0.25701  Biso   1.000  O
  O154     1.0000 0.34427  0.37604  0.24476  Biso   1.000  O
  O155     1.0000 0.35089  0.39310  0.28330  Biso   1.000  O
  O156     1.0000 0.24729  0.38646  0.33781  Biso   1.000  O
  O157     1.0000 0.28820  0.37960  0.34684  Biso   1.000  O
  O158     1.0000 0.30560  0.40102  0.14031  Biso   1.000  O
  O159     1.0000 0.28346  0.43710  0.13655  Biso   1.000  O
  O160     1.0000 0.37308  0.40207  0.20635  Biso   1.000  O
  O161     1.0000 0.38442  0.43939  0.22320  Biso   1.000  O
  O162     1.0000 0.38525  0.55246  0.21893  Biso   1.000  O
  O163     1.0000 0.31300  0.58122  0.12712  Biso   1.000  O
  O164     1.0000 0.28477  0.55170  0.13930  Biso   1.000  O
  O165     1.0000 0.30306  0.37479  0.09149  Biso   1.000  O
  O166     1.0000 0.27931  0.37793  0.05638  Biso   1.000  O
  O167     1.0000 0.36100  0.27657  0.05922  Biso   1.000  O
  O168     1.0000 0.36974  0.30355  0.09081  Biso   1.000  O
  O169     1.0000 0.30126  0.36438  0.90608  Biso   1.000  O
  O170     1.0000 0.28118  0.37745  0.94188  Biso   1.000  O
  O171     1.0000 0.36254  0.27334  0.94789  Biso   1.000  O
  O172     1.0000 0.36267  0.29439  0.91159  Biso   1.000  O
  O173     1.0000 0.45932  0.40836  0.25670  Biso   1.000  O
  O174     1.0000 0.43654  0.44336  0.25219  Biso   1.000  O
  O175     1.0000 0.54881  0.40782  0.25322  Biso   1.000  O
  O176     1.0000 0.57135  0.44378  0.24845  Biso   1.000  O
  O177     1.0000 0.40179  0.39243  0.25700  Biso   1.000  O
  O178     1.0000 0.25088  0.39401  0.10694  Biso   1.000  O
  C281     1.0000 0.23830  0.37580  0.16828  Biso   1.000  C
  C282     1.0000 0.23170  0.37670  0.19622  Biso   1.000  C
  C283     1.0000 0.20620  0.37580  0.20329  Biso   1.000  C
  H106     1.0000 0.19330  0.37420  0.19070  Biso   1.000  H
  C284     1.0000 0.19974  0.37730  0.22865  Biso   1.000  C
  C285     1.0000 0.17182  0.37780  0.23510  Biso   1.000  C
  C286     1.0000 0.21860  0.37890  0.24699  Biso   1.000  C
  H107     1.0000 0.21400  0.37960  0.26440  Biso   1.000  H
  C287     1.0000 0.25042  0.37880  0.21476  Biso   1.000  C
  H108     1.0000 0.26770  0.37990  0.20980  Biso   1.000  H
  C288     1.0000 0.24427  0.37940  0.24034  Biso   1.000  C
  C289     1.0000 0.26454  0.38050  0.26020  Biso   1.000  C
  C290     1.0000 0.25858  0.38190  0.28567  Biso   1.000  C
  H109     1.0000 0.24120  0.38210  0.29060  Biso   1.000  H
  C291     1.0000 0.29045  0.38070  0.25410  Biso   1.000  C
  H110     1.0000 0.29550  0.37910  0.23680  Biso   1.000  H
  C292     1.0000 0.30893  0.38300  0.27270  Biso   1.000  C
  C293     1.0000 0.33680  0.38340  0.26630  Biso   1.000  C
  C294     1.0000 0.30220  0.38450  0.29740  Biso   1.000  C
  H111     1.0000 0.31490  0.38670  0.31010  Biso   1.000  H
  C295     1.0000 0.27705  0.38300  0.30431  Biso   1.000  C
  C296     1.0000 0.27010  0.38360  0.33198  Biso   1.000  C
  C297     1.0000 0.30218  0.42453  0.14411  Biso   1.000  C
  C298     1.0000 0.32238  0.43866  0.15846  Biso   1.000  C
  C299     1.0000 0.33891  0.42548  0.17416  Biso   1.000  C
  H112     1.0000 0.33860  0.40740  0.17480  Biso   1.000  H
  C300     1.0000 0.35589  0.43927  0.18901  Biso   1.000  C
  C301     1.0000 0.37251  0.42571  0.20771  Biso   1.000  C
  C302     1.0000 0.35711  0.46546  0.18709  Biso   1.000  C
  H113     1.0000 0.36920  0.47460  0.19690  Biso   1.000  H
  C303     1.0000 0.32334  0.46505  0.15697  Biso   1.000  C
  H114     1.0000 0.31180  0.47380  0.14620  Biso   1.000  H
  C304     1.0000 0.34080  0.47850  0.17096  Biso   1.000  C
  C305     1.0000 0.34241  0.50731  0.16918  Biso   1.000  C
  C306     1.0000 0.36021  0.52100  0.18305  Biso   1.000  C
  H115     1.0000 0.37150  0.51220  0.19410  Biso   1.000  H
  C307     1.0000 0.36181  0.54744  0.18113  Biso   1.000  C
  O179     1.0000 0.38830  0.58271  0.18966  Biso   1.000  O
  C308     1.0000 0.34543  0.56039  0.16530  Biso   1.000  C
  H116     1.0000 0.34700  0.57830  0.16320  Biso   1.000  H
  C309     1.0000 0.32680  0.54711  0.15260  Biso   1.000  C
  C310     1.0000 0.30720  0.56120  0.13800  Biso   1.000  C
  C311     1.0000 0.32530  0.52124  0.15470  Biso   1.000  C
  H117     1.0000 0.31210  0.51250  0.14600  Biso   1.000  H
  C312     1.0000 0.29880  0.37050  0.06900  Biso   1.000  C
  C313     1.0000 0.31690  0.35330  0.05490  Biso   1.000  C
  C314     1.0000 0.33220  0.33690  0.06878  Biso   1.000  C
  H118     1.0000 0.33320  0.33810  0.08680  Biso   1.000  H
  C315     1.0000 0.34600  0.31850  0.05567  Biso   1.000  C
  C316     1.0000 0.36050  0.29850  0.06985  Biso   1.000  C
  C317     1.0000 0.34510  0.31790  0.02905  Biso   1.000  C
  H119     1.0000 0.35470  0.30540  0.02030  Biso   1.000  H
  C318     1.0000 0.31620  0.35218  0.02818  Biso   1.000  C
  H120     1.0000 0.30550  0.36350  0.01910  Biso   1.000  H
  C319     1.0000 0.33080  0.33501  0.01505  Biso   1.000  C
  C320     1.0000 0.33030  0.33356  0.98624  Biso   1.000  C
  C321     1.0000 0.31577  0.35022  0.97165  Biso   1.000  C
  H121     1.0000 0.30590  0.36290  0.98000  Biso   1.000  H
  C322     1.0000 0.31528  0.34884  0.94536  Biso   1.000  C
  C323     1.0000 0.29780  0.36515  0.93021  Biso   1.000  C
  C324     1.0000 0.32961  0.33080  0.93285  Biso   1.000  C
  H122     1.0000 0.33000  0.33020  0.91480  Biso   1.000  H
  C325     1.0000 0.34361  0.31338  0.94754  Biso   1.000  C
  C326     1.0000 0.35741  0.29214  0.93414  Biso   1.000  C
  C327     1.0000 0.34350  0.31468  0.97374  Biso   1.000  C
  H123     1.0000 0.35270  0.30240  0.98330  Biso   1.000  H
  C328     1.0000 0.45696  0.43151  0.25370  Biso   1.000  C
  C329     1.0000 0.48134  0.44624  0.25280  Biso   1.000  C
  C330     1.0000 0.50421  0.43314  0.25250  Biso   1.000  C
  H124     1.0000 0.50440  0.41510  0.25340  Biso   1.000  H
  C331     1.0000 0.52643  0.44632  0.25100  Biso   1.000  C
  C332     1.0000 0.55069  0.43162  0.25080  Biso   1.000  C
  C333     1.0000 0.52662  0.47250  0.25000  Biso   1.000  C
  H125     1.0000 0.54230  0.48130  0.24860  Biso   1.000  H
  C334     1.0000 0.50383  0.48598  0.25100  Biso   1.000  C
  C335     1.0000 0.48118  0.47240  0.25160  Biso   1.000  C
  H126     1.0000 0.46540  0.48120  0.25110  Biso   1.000  H
  O180     1.0000 0.22082  0.36707  0.15467  Biso   1.000  O
  C336     1.0000 0.38005  0.56176  0.19780  Biso   1.000  C
  Zn49     1.0000 0.71976  0.12110  0.12401  Biso   1.000  Zn
  Zn50     1.0000 0.77720  0.12563  0.11947  Biso   1.000  Zn
  Zn51     1.0000 0.74899  0.07210  0.12056  Biso   1.000  Zn
  Zn52     1.0000 0.74980  0.10563  0.07042  Biso   1.000  Zn
  Zn53     1.0000 0.61862  0.12687  0.23145  Biso   1.000  Zn
  Zn54     1.0000 0.61224  0.11624  0.29065  Biso   1.000  Zn
  Zn55     1.0000 0.59781  0.07145  0.25356  Biso   1.000  Zn
  Zn56     1.0000 0.56424  0.12026  0.25632  Biso   1.000  Zn
  O181     1.0000 0.74089  0.11698  0.16169  Biso   1.000  O
  O182     1.0000 0.84290  0.12977  0.21815  Biso   1.000  O
  O183     1.0000 0.83466  0.11533  0.25701  Biso   1.000  O
  O184     1.0000 0.65573  0.12396  0.24476  Biso   1.000  O
  O185     1.0000 0.64911  0.10690  0.28330  Biso   1.000  O
  O186     1.0000 0.75271  0.11354  0.33781  Biso   1.000  O
  O187     1.0000 0.71180  0.12040  0.34684  Biso   1.000  O
  O188     1.0000 0.69440  0.09898  0.14031  Biso   1.000  O
  O189     1.0000 0.71654  0.06290  0.13655  Biso   1.000  O
  O190     1.0000 0.62692  0.09793  0.20635  Biso   1.000  O
  O191     1.0000 0.61558  0.06061  0.22320  Biso   1.000  O
  O192     1.0000 0.61475  0.94754  0.21893  Biso   1.000  O
  O193     1.0000 0.68700  0.91878  0.12712  Biso   1.000  O
  O194     1.0000 0.71523  0.94830  0.13930  Biso   1.000  O
  O195     1.0000 0.69694  0.12521  0.09149  Biso   1.000  O
  O196     1.0000 0.72069  0.12207  0.05638  Biso   1.000  O
  O197     1.0000 0.63900  0.22343  0.05922  Biso   1.000  O
  O198     1.0000 0.63026  0.19645  0.09081  Biso   1.000  O
  O199     1.0000 0.69874  0.13562  0.90608  Biso   1.000  O
  O200     1.0000 0.71882  0.12255  0.94188  Biso   1.000  O
  O201     1.0000 0.63746  0.22666  0.94789  Biso   1.000  O
  O202     1.0000 0.63733  0.20561  0.91159  Biso   1.000  O
  O203     1.0000 0.54068  0.09164  0.25670  Biso   1.000  O
  O204     1.0000 0.56346  0.05664  0.25219  Biso   1.000  O
  O205     1.0000 0.45119  0.09218  0.25322  Biso   1.000  O
  O206     1.0000 0.42865  0.05622  0.24845  Biso   1.000  O
  O207     1.0000 0.59821  0.10757  0.25700  Biso   1.000  O
  O208     1.0000 0.74912  0.10599  0.10694  Biso   1.000  O
  C337     1.0000 0.76170  0.12420  0.16828  Biso   1.000  C
  C338     1.0000 0.76830  0.12330  0.19622  Biso   1.000  C
  C339     1.0000 0.79380  0.12420  0.20329  Biso   1.000  C
  H127     1.0000 0.80670  0.12580  0.19070  Biso   1.000  H
  C340     1.0000 0.80026  0.12270  0.22865  Biso   1.000  C
  C341     1.0000 0.82818  0.12220  0.23510  Biso   1.000  C
  C342     1.0000 0.78140  0.12110  0.24699  Biso   1.000  C
  H128     1.0000 0.78600  0.12040  0.26440  Biso   1.000  H
  C343     1.0000 0.74958  0.12120  0.21476  Biso   1.000  C
  H129     1.0000 0.73230  0.12010  0.20980  Biso   1.000  H
  C344     1.0000 0.75573  0.12060  0.24034  Biso   1.000  C
  C345     1.0000 0.73546  0.11950  0.26020  Biso   1.000  C
  C346     1.0000 0.74142  0.11810  0.28567  Biso   1.000  C
  H130     1.0000 0.75880  0.11790  0.29060  Biso   1.000  H
  C347     1.0000 0.70955  0.11930  0.25410  Biso   1.000  C
  H131     1.0000 0.70450  0.12090  0.23680  Biso   1.000  H
  C348     1.0000 0.69107  0.11700  0.27270  Biso   1.000  C
  C349     1.0000 0.66320  0.11660  0.26630  Biso   1.000  C
  C350     1.0000 0.69780  0.11550  0.29740  Biso   1.000  C
  H132     1.0000 0.68510  0.11330  0.31010  Biso   1.000  H
  C351     1.0000 0.72295  0.11700  0.30431  Biso   1.000  C
  C352     1.0000 0.72990  0.11640  0.33198  Biso   1.000  C
  C353     1.0000 0.69782  0.07547  0.14411  Biso   1.000  C
  C354     1.0000 0.67762  0.06134  0.15846  Biso   1.000  C
  C355     1.0000 0.66109  0.07452  0.17416  Biso   1.000  C
  H133     1.0000 0.66140  0.09260  0.17480  Biso   1.000  H
  C356     1.0000 0.64411  0.06073  0.18901  Biso   1.000  C
  C357     1.0000 0.62749  0.07429  0.20771  Biso   1.000  C
  C358     1.0000 0.64289  0.03454  0.18709  Biso   1.000  C
  H134     1.0000 0.63080  0.02540  0.19690  Biso   1.000  H
  C359     1.0000 0.67666  0.03495  0.15697  Biso   1.000  C
  H135     1.0000 0.68820  0.02620  0.14620  Biso   1.000  H
  C360     1.0000 0.65920  0.02150  0.17096  Biso   1.000  C
  C361     1.0000 0.65759  0.99269  0.16918  Biso   1.000  C
  C362     1.0000 0.63979  0.97900  0.18305  Biso   1.000  C
  H136     1.0000 0.62850  0.98780  0.19410  Biso   1.000  H
  C363     1.0000 0.63819  0.95256  0.18113  Biso   1.000  C
  O209     1.0000 0.61170  0.91729  0.18966  Biso   1.000  O
  C364     1.0000 0.65457  0.93961  0.16530  Biso   1.000  C
  H137     1.0000 0.65300  0.92170  0.16320  Biso   1.000  H
  C365     1.0000 0.67320  0.95289  0.15260  Biso   1.000  C
  C366     1.0000 0.69280  0.93880  0.13800  Biso   1.000  C
  C367     1.0000 0.67470  0.97876  0.15470  Biso   1.000  C
  H138     1.0000 0.68790  0.98750  0.14600  Biso   1.000  H
  C368     1.0000 0.70120  0.12950  0.06900  Biso   1.000  C
  C369     1.0000 0.68310  0.14670  0.05490  Biso   1.000  C
  C370     1.0000 0.66780  0.16310  0.06878  Biso   1.000  C
  H139     1.0000 0.66680  0.16190  0.08680  Biso   1.000  H
  C371     1.0000 0.65400  0.18150  0.05567  Biso   1.000  C
  C372     1.0000 0.63950  0.20150  0.06985  Biso   1.000  C
  C373     1.0000 0.65490  0.18210  0.02905  Biso   1.000  C
  H140     1.0000 0.64530  0.19460  0.02030  Biso   1.000  H
  C374     1.0000 0.68380  0.14782  0.02818  Biso   1.000  C
  H141     1.0000 0.69450  0.13650  0.01910  Biso   1.000  H
  C375     1.0000 0.66920  0.16499  0.01505  Biso   1.000  C
  C376     1.0000 0.66970  0.16644  0.98624  Biso   1.000  C
  C377     1.0000 0.68423  0.14978  0.97165  Biso   1.000  C
  H142     1.0000 0.69410  0.13710  0.98000  Biso   1.000  H
  C378     1.0000 0.68472  0.15116  0.94536  Biso   1.000  C
  C379     1.0000 0.70220  0.13485  0.93021  Biso   1.000  C
  C380     1.0000 0.67039  0.16920  0.93285  Biso   1.000  C
  H143     1.0000 0.67000  0.16980  0.91480  Biso   1.000  H
  C381     1.0000 0.65639  0.18662  0.94754  Biso   1.000  C
  C382     1.0000 0.64259  0.20786  0.93414  Biso   1.000  C
  C383     1.0000 0.65650  0.18532  0.97374  Biso   1.000  C
  H144     1.0000 0.64730  0.19760  0.98330  Biso   1.000  H
  C384     1.0000 0.54304  0.06849  0.25370  Biso   1.000  C
  C385     1.0000 0.51866  0.05376  0.25280  Biso   1.000  C
  C386     1.0000 0.49579  0.06686  0.25250  Biso   1.000  C
  H145     1.0000 0.49560  0.08490  0.25340  Biso   1.000  H
  C387     1.0000 0.47357  0.05368  0.25100  Biso   1.000  C
  C388     1.0000 0.44931  0.06838  0.25080  Biso   1.000  C
  C389     1.0000 0.47338  0.02750  0.25000  Biso   1.000  C
  H146     1.0000 0.45770  0.01870  0.24860  Biso   1.000  H
  C390     1.0000 0.49617  0.01402  0.25100  Biso   1.000  C
  C391     1.0000 0.51882  0.02760  0.25160  Biso   1.000  C
  H147     1.0000 0.53460  0.01880  0.25110  Biso   1.000  H
  O210     1.0000 0.77918  0.13293  0.15467  Biso   1.000  O
  C392     1.0000 0.61995  0.93824  0.19780  Biso   1.000  C
  Zn57     1.0000 0.21976  0.62110  0.62401  Biso   1.000  Zn
  Zn58     1.0000 0.27720  0.62563  0.61947  Biso   1.000  Zn
  Zn59     1.0000 0.24899  0.57210  0.62056  Biso   1.000  Zn
  Zn60     1.0000 0.24980  0.60563  0.57042  Biso   1.000  Zn
  Zn61     1.0000 0.11862  0.62687  0.73145  Biso   1.000  Zn
  Zn62     1.0000 0.11224  0.61624  0.79065  Biso   1.000  Zn
  Zn63     1.0000 0.09781  0.57145  0.75356  Biso   1.000  Zn
  Zn64     1.0000 0.06424  0.62026  0.75632  Biso   1.000  Zn
  O211     1.0000 0.24089  0.61698  0.66169  Biso   1.000  O
  O212     1.0000 0.34290  0.62977  0.71815  Biso   1.000  O
  O213     1.0000 0.33466  0.61533  0.75701  Biso   1.000  O
  O214     1.0000 0.15573  0.62396  0.74476  Biso   1.000  O
  O215     1.0000 0.14911  0.60690  0.78330  Biso   1.000  O
  O216     1.0000 0.25271  0.61354  0.83781  Biso   1.000  O
  O217     1.0000 0.21180  0.62040  0.84684  Biso   1.000  O
  O218     1.0000 0.19440  0.59898  0.64031  Biso   1.000  O
  O219     1.0000 0.21654  0.56290  0.63655  Biso   1.000  O
  O220     1.0000 0.12692  0.59793  0.70635  Biso   1.000  O
  O221     1.0000 0.11558  0.56061  0.72320  Biso   1.000  O
  O222     1.0000 0.11475  0.44754  0.71893  Biso   1.000  O
  O223     1.0000 0.18700  0.41878  0.62712  Biso   1.000  O
  O224     1.0000 0.21523  0.44830  0.63930  Biso   1.000  O
  O225     1.0000 0.19694  0.62521  0.59149  Biso   1.000  O
  O226     1.0000 0.22069  0.62207  0.55638  Biso   1.000  O
  O227     1.0000 0.13900  0.72343  0.55922  Biso   1.000  O
  O228     1.0000 0.13026  0.69645  0.59081  Biso   1.000  O
  O229     1.0000 0.19874  0.63562  0.40608  Biso   1.000  O
  O230     1.0000 0.21882  0.62255  0.44188  Biso   1.000  O
  O231     1.0000 0.13746  0.72666  0.44789  Biso   1.000  O
  O232     1.0000 0.13733  0.70561  0.41159  Biso   1.000  O
  O233     1.0000 0.04068  0.59164  0.75670  Biso   1.000  O
  O234     1.0000 0.06346  0.55664  0.75219  Biso   1.000  O
  O235     1.0000 0.95119  0.59218  0.75322  Biso   1.000  O
  O236     1.0000 0.92865  0.55622  0.74845  Biso   1.000  O
  O237     1.0000 0.09821  0.60757  0.75700  Biso   1.000  O
  O238     1.0000 0.24912  0.60599  0.60694  Biso   1.000  O
  C393     1.0000 0.26170  0.62420  0.66828  Biso   1.000  C
  C394     1.0000 0.26830  0.62330  0.69622  Biso   1.000  C
  C395     1.0000 0.29380  0.62420  0.70329  Biso   1.000  C
  H148     1.0000 0.30670  0.62580  0.69070  Biso   1.000  H
  C396     1.0000 0.30026  0.62270  0.72865  Biso   1.000  C
  C397     1.0000 0.32818  0.62220  0.73510  Biso   1.000  C
  C398     1.0000 0.28140  0.62110  0.74699  Biso   1.000  C
  H149     1.0000 0.28600  0.62040  0.76440  Biso   1.000  H
  C399     1.0000 0.24958  0.62120  0.71476  Biso   1.000  C
  H150     1.0000 0.23230  0.62010  0.70980  Biso   1.000  H
  C400     1.0000 0.25573  0.62060  0.74034  Biso   1.000  C
  C401     1.0000 0.23546  0.61950  0.76020  Biso   1.000  C
  C402     1.0000 0.24142  0.61810  0.78567  Biso   1.000  C
  H151     1.0000 0.25880  0.61790  0.79060  Biso   1.000  H
  C403     1.0000 0.20955  0.61930  0.75410  Biso   1.000  C
  H152     1.0000 0.20450  0.62090  0.73680  Biso   1.000  H
  C404     1.0000 0.19107  0.61700  0.77270  Biso   1.000  C
  C405     1.0000 0.16320  0.61660  0.76630  Biso   1.000  C
  C406     1.0000 0.19780  0.61550  0.79740  Biso   1.000  C
  H153     1.0000 0.18510  0.61330  0.81010  Biso   1.000  H
  C407     1.0000 0.22295  0.61700  0.80431  Biso   1.000  C
  C408     1.0000 0.22990  0.61640  0.83198  Biso   1.000  C
  C409     1.0000 0.19782  0.57547  0.64411  Biso   1.000  C
  C410     1.0000 0.17762  0.56134  0.65846  Biso   1.000  C
  C411     1.0000 0.16109  0.57452  0.67416  Biso   1.000  C
  H154     1.0000 0.16140  0.59260  0.67480  Biso   1.000  H
  C412     1.0000 0.14411  0.56073  0.68901  Biso   1.000  C
  C413     1.0000 0.12749  0.57429  0.70771  Biso   1.000  C
  C414     1.0000 0.14289  0.53454  0.68709  Biso   1.000  C
  H155     1.0000 0.13080  0.52540  0.69690  Biso   1.000  H
  C415     1.0000 0.17666  0.53495  0.65697  Biso   1.000  C
  H156     1.0000 0.18820  0.52620  0.64620  Biso   1.000  H
  C416     1.0000 0.15920  0.52150  0.67096  Biso   1.000  C
  C417     1.0000 0.15759  0.49269  0.66918  Biso   1.000  C
  C418     1.0000 0.13979  0.47900  0.68305  Biso   1.000  C
  H157     1.0000 0.12850  0.48780  0.69410  Biso   1.000  H
  C419     1.0000 0.13819  0.45256  0.68113  Biso   1.000  C
  O239     1.0000 0.11170  0.41729  0.68966  Biso   1.000  O
  C420     1.0000 0.15457  0.43961  0.66530  Biso   1.000  C
  H158     1.0000 0.15300  0.42170  0.66320  Biso   1.000  H
  C421     1.0000 0.17320  0.45289  0.65260  Biso   1.000  C
  C422     1.0000 0.19280  0.43880  0.63800  Biso   1.000  C
  C423     1.0000 0.17470  0.47876  0.65470  Biso   1.000  C
  H159     1.0000 0.18790  0.48750  0.64600  Biso   1.000  H
  C424     1.0000 0.20120  0.62950  0.56900  Biso   1.000  C
  C425     1.0000 0.18310  0.64670  0.55490  Biso   1.000  C
  C426     1.0000 0.16780  0.66310  0.56878  Biso   1.000  C
  H160     1.0000 0.16680  0.66190  0.58680  Biso   1.000  H
  C427     1.0000 0.15400  0.68150  0.55567  Biso   1.000  C
  C428     1.0000 0.13950  0.70150  0.56985  Biso   1.000  C
  C429     1.0000 0.15490  0.68210  0.52905  Biso   1.000  C
  H161     1.0000 0.14530  0.69460  0.52030  Biso   1.000  H
  C430     1.0000 0.18380  0.64782  0.52818  Biso   1.000  C
  H162     1.0000 0.19450  0.63650  0.51910  Biso   1.000  H
  C431     1.0000 0.16920  0.66499  0.51505  Biso   1.000  C
  C432     1.0000 0.16970  0.66644  0.48624  Biso   1.000  C
  C433     1.0000 0.18423  0.64978  0.47165  Biso   1.000  C
  H163     1.0000 0.19410  0.63710  0.48000  Biso   1.000  H
  C434     1.0000 0.18472  0.65116  0.44536  Biso   1.000  C
  C435     1.0000 0.20220  0.63485  0.43021  Biso   1.000  C
  C436     1.0000 0.17039  0.66920  0.43285  Biso   1.000  C
  H164     1.0000 0.17000  0.66980  0.41480  Biso   1.000  H
  C437     1.0000 0.15639  0.68662  0.44754  Biso   1.000  C
  C438     1.0000 0.14259  0.70786  0.43414  Biso   1.000  C
  C439     1.0000 0.15650  0.68532  0.47374  Biso   1.000  C
  H165     1.0000 0.14730  0.69760  0.48330  Biso   1.000  H
  C440     1.0000 0.04304  0.56849  0.75370  Biso   1.000  C
  C441     1.0000 0.01866  0.55376  0.75280  Biso   1.000  C
  C442     1.0000 0.99579  0.56686  0.75250  Biso   1.000  C
  H166     1.0000 0.99560  0.58490  0.75340  Biso   1.000  H
  C443     1.0000 0.97357  0.55368  0.75100  Biso   1.000  C
  C444     1.0000 0.94931  0.56838  0.75080  Biso   1.000  C
  C445     1.0000 0.97338  0.52750  0.75000  Biso   1.000  C
  H167     1.0000 0.95770  0.51870  0.74860  Biso   1.000  H
  C446     1.0000 0.99617  0.51402  0.75100  Biso   1.000  C
  C447     1.0000 0.01882  0.52760  0.75160  Biso   1.000  C
  H168     1.0000 0.03460  0.51880  0.75110  Biso   1.000  H
  O240     1.0000 0.27918  0.63293  0.65467  Biso   1.000  O
  C448     1.0000 0.11995  0.43824  0.69780  Biso   1.000  C
  Zn65     1.0000 0.87599  0.21976  0.37890  Biso   1.000  Zn
  Zn66     1.0000 0.88053  0.27720  0.37437  Biso   1.000  Zn
  Zn67     1.0000 0.87944  0.24899  0.42790  Biso   1.000  Zn
  Zn68     1.0000 0.92958  0.24980  0.39437  Biso   1.000  Zn
  Zn69     1.0000 0.76855  0.11862  0.37313  Biso   1.000  Zn
  Zn70     1.0000 0.70935  0.11224  0.38376  Biso   1.000  Zn
  Zn71     1.0000 0.74644  0.09781  0.42855  Biso   1.000  Zn
  Zn72     1.0000 0.74368  0.06424  0.37974  Biso   1.000  Zn
  O241     1.0000 0.83831  0.24089  0.38302  Biso   1.000  O
  O242     1.0000 0.78185  0.34290  0.37023  Biso   1.000  O
  O243     1.0000 0.74299  0.33466  0.38467  Biso   1.000  O
  O244     1.0000 0.75524  0.15573  0.37604  Biso   1.000  O
  O245     1.0000 0.71670  0.14911  0.39310  Biso   1.000  O
  O246     1.0000 0.66219  0.25271  0.38646  Biso   1.000  O
  O247     1.0000 0.65316  0.21180  0.37960  Biso   1.000  O
  O248     1.0000 0.85969  0.19440  0.40102  Biso   1.000  O
  O249     1.0000 0.86345  0.21654  0.43710  Biso   1.000  O
  O250     1.0000 0.79365  0.12692  0.40207  Biso   1.000  O
  O251     1.0000 0.77680  0.11558  0.43939  Biso   1.000  O
  O252     1.0000 0.78107  0.11475  0.55246  Biso   1.000  O
  O253     1.0000 0.87288  0.18700  0.58122  Biso   1.000  O
  O254     1.0000 0.86070  0.21523  0.55170  Biso   1.000  O
  O255     1.0000 0.90851  0.19694  0.37479  Biso   1.000  O
  O256     1.0000 0.94362  0.22069  0.37793  Biso   1.000  O
  O257     1.0000 0.94078  0.13900  0.27657  Biso   1.000  O
  O258     1.0000 0.90919  0.13026  0.30355  Biso   1.000  O
  O259     1.0000 0.09392  0.19874  0.36438  Biso   1.000  O
  O260     1.0000 0.05812  0.21882  0.37745  Biso   1.000  O
  O261     1.0000 0.05211  0.13746  0.27334  Biso   1.000  O
  O262     1.0000 0.08841  0.13733  0.29439  Biso   1.000  O
  O263     1.0000 0.74330  0.04068  0.40836  Biso   1.000  O
  O264     1.0000 0.74781  0.06346  0.44336  Biso   1.000  O
  O265     1.0000 0.74678  0.95119  0.40782  Biso   1.000  O
  O266     1.0000 0.75155  0.92865  0.44378  Biso   1.000  O
  O267     1.0000 0.74300  0.09821  0.39243  Biso   1.000  O
  O268     1.0000 0.89306  0.24912  0.39401  Biso   1.000  O
  C449     1.0000 0.83172  0.26170  0.37580  Biso   1.000  C
  C450     1.0000 0.80378  0.26830  0.37670  Biso   1.000  C
  C451     1.0000 0.79671  0.29380  0.37580  Biso   1.000  C
  H169     1.0000 0.80930  0.30670  0.37420  Biso   1.000  H
  C452     1.0000 0.77135  0.30026  0.37730  Biso   1.000  C
  C453     1.0000 0.76490  0.32818  0.37780  Biso   1.000  C
  C454     1.0000 0.75301  0.28140  0.37890  Biso   1.000  C
  H170     1.0000 0.73560  0.28600  0.37960  Biso   1.000  H
  C455     1.0000 0.78524  0.24958  0.37880  Biso   1.000  C
  H171     1.0000 0.79020  0.23230  0.37990  Biso   1.000  H
  C456     1.0000 0.75966  0.25573  0.37940  Biso   1.000  C
  C457     1.0000 0.73980  0.23546  0.38050  Biso   1.000  C
  C458     1.0000 0.71433  0.24142  0.38190  Biso   1.000  C
  H172     1.0000 0.70940  0.25880  0.38210  Biso   1.000  H
  C459     1.0000 0.74590  0.20955  0.38070  Biso   1.000  C
  H173     1.0000 0.76320  0.20450  0.37910  Biso   1.000  H
  C460     1.0000 0.72730  0.19107  0.38300  Biso   1.000  C
  C461     1.0000 0.73370  0.16320  0.38340  Biso   1.000  C
  C462     1.0000 0.70260  0.19780  0.38450  Biso   1.000  C
  H174     1.0000 0.68990  0.18510  0.38670  Biso   1.000  H
  C463     1.0000 0.69569  0.22295  0.38300  Biso   1.000  C
  C464     1.0000 0.66802  0.22990  0.38360  Biso   1.000  C
  C465     1.0000 0.85589  0.19782  0.42453  Biso   1.000  C
  C466     1.0000 0.84154  0.17762  0.43866  Biso   1.000  C
  C467     1.0000 0.82584  0.16109  0.42548  Biso   1.000  C
  H175     1.0000 0.82520  0.16140  0.40740  Biso   1.000  H
  C468     1.0000 0.81099  0.14411  0.43927  Biso   1.000  C
  C469     1.0000 0.79229  0.12749  0.42571  Biso   1.000  C
  C470     1.0000 0.81291  0.14289  0.46546  Biso   1.000  C
  H176     1.0000 0.80310  0.13080  0.47460  Biso   1.000  H
  C471     1.0000 0.84303  0.17666  0.46505  Biso   1.000  C
  H177     1.0000 0.85380  0.18820  0.47380  Biso   1.000  H
  C472     1.0000 0.82904  0.15920  0.47850  Biso   1.000  C
  C473     1.0000 0.83082  0.15759  0.50731  Biso   1.000  C
  C474     1.0000 0.81695  0.13979  0.52100  Biso   1.000  C
  H178     1.0000 0.80590  0.12850  0.51220  Biso   1.000  H
  C475     1.0000 0.81887  0.13819  0.54744  Biso   1.000  C
  O269     1.0000 0.81034  0.11170  0.58271  Biso   1.000  O
  C476     1.0000 0.83470  0.15457  0.56039  Biso   1.000  C
  H179     1.0000 0.83680  0.15300  0.57830  Biso   1.000  H
  C477     1.0000 0.84740  0.17320  0.54711  Biso   1.000  C
  C478     1.0000 0.86200  0.19280  0.56120  Biso   1.000  C
  C479     1.0000 0.84530  0.17470  0.52124  Biso   1.000  C
  H180     1.0000 0.85400  0.18790  0.51250  Biso   1.000  H
  C480     1.0000 0.93100  0.20120  0.37050  Biso   1.000  C
  C481     1.0000 0.94510  0.18310  0.35330  Biso   1.000  C
  C482     1.0000 0.93122  0.16780  0.33690  Biso   1.000  C
  H181     1.0000 0.91320  0.16680  0.33810  Biso   1.000  H
  C483     1.0000 0.94433  0.15400  0.31850  Biso   1.000  C
  C484     1.0000 0.93015  0.13950  0.29850  Biso   1.000  C
  C485     1.0000 0.97095  0.15490  0.31790  Biso   1.000  C
  H182     1.0000 0.97970  0.14530  0.30540  Biso   1.000  H
  C486     1.0000 0.97182  0.18380  0.35218  Biso   1.000  C
  H183     1.0000 0.98090  0.19450  0.36350  Biso   1.000  H
  C487     1.0000 0.98495  0.16920  0.33501  Biso   1.000  C
  C488     1.0000 0.01376  0.16970  0.33356  Biso   1.000  C
  C489     1.0000 0.02835  0.18423  0.35022  Biso   1.000  C
  H184     1.0000 0.02000  0.19410  0.36290  Biso   1.000  H
  C490     1.0000 0.05464  0.18472  0.34884  Biso   1.000  C
  C491     1.0000 0.06979  0.20220  0.36515  Biso   1.000  C
  C492     1.0000 0.06715  0.17039  0.33080  Biso   1.000  C
  H185     1.0000 0.08520  0.17000  0.33020  Biso   1.000  H
  C493     1.0000 0.05246  0.15639  0.31338  Biso   1.000  C
  C494     1.0000 0.06586  0.14259  0.29214  Biso   1.000  C
  C495     1.0000 0.02626  0.15650  0.31468  Biso   1.000  C
  H186     1.0000 0.01670  0.14730  0.30240  Biso   1.000  H
  C496     1.0000 0.74630  0.04304  0.43151  Biso   1.000  C
  C497     1.0000 0.74720  0.01866  0.44624  Biso   1.000  C
  C498     1.0000 0.74750  0.99579  0.43314  Biso   1.000  C
  H187     1.0000 0.74660  0.99560  0.41510  Biso   1.000  H
  C499     1.0000 0.74900  0.97357  0.44632  Biso   1.000  C
  C500     1.0000 0.74920  0.94931  0.43162  Biso   1.000  C
  C501     1.0000 0.75000  0.97338  0.47250  Biso   1.000  C
  H188     1.0000 0.75140  0.95770  0.48130  Biso   1.000  H
  C502     1.0000 0.74900  0.99617  0.48598  Biso   1.000  C
  C503     1.0000 0.74840  0.01882  0.47240  Biso   1.000  C
  H189     1.0000 0.74890  0.03460  0.48120  Biso   1.000  H
  O270     1.0000 0.84533  0.27918  0.36707  Biso   1.000  O
  C504     1.0000 0.80220  0.11995  0.56176  Biso   1.000  C
  Zn73     1.0000 0.37599  0.71976  0.87890  Biso   1.000  Zn
  Zn74     1.0000 0.38053  0.77720  0.87437  Biso   1.000  Zn
  Zn75     1.0000 0.37944  0.74899  0.92790  Biso   1.000  Zn
  Zn76     1.0000 0.42958  0.74980  0.89437  Biso   1.000  Zn
  Zn77     1.0000 0.26855  0.61862  0.87313  Biso   1.000  Zn
  Zn78     1.0000 0.20935  0.61224  0.88376  Biso   1.000  Zn
  Zn79     1.0000 0.24644  0.59781  0.92855  Biso   1.000  Zn
  Zn80     1.0000 0.24368  0.56424  0.87974  Biso   1.000  Zn
  O271     1.0000 0.33831  0.74089  0.88302  Biso   1.000  O
  O272     1.0000 0.28185  0.84290  0.87023  Biso   1.000  O
  O273     1.0000 0.24299  0.83466  0.88467  Biso   1.000  O
  O274     1.0000 0.25524  0.65573  0.87604  Biso   1.000  O
  O275     1.0000 0.21670  0.64911  0.89310  Biso   1.000  O
  O276     1.0000 0.16219  0.75271  0.88646  Biso   1.000  O
  O277     1.0000 0.15316  0.71180  0.87960  Biso   1.000  O
  O278     1.0000 0.35969  0.69440  0.90102  Biso   1.000  O
  O279     1.0000 0.36345  0.71654  0.93710  Biso   1.000  O
  O280     1.0000 0.29365  0.62692  0.90207  Biso   1.000  O
  O281     1.0000 0.27680  0.61558  0.93939  Biso   1.000  O
  O282     1.0000 0.28107  0.61475  0.05246  Biso   1.000  O
  O283     1.0000 0.37288  0.68700  0.08122  Biso   1.000  O
  O284     1.0000 0.36070  0.71523  0.05170  Biso   1.000  O
  O285     1.0000 0.40851  0.69694  0.87479  Biso   1.000  O
  O286     1.0000 0.44362  0.72069  0.87793  Biso   1.000  O
  O287     1.0000 0.44078  0.63900  0.77657  Biso   1.000  O
  O288     1.0000 0.40919  0.63026  0.80355  Biso   1.000  O
  O289     1.0000 0.59392  0.69874  0.86438  Biso   1.000  O
  O290     1.0000 0.55812  0.71882  0.87745  Biso   1.000  O
  O291     1.0000 0.55211  0.63746  0.77334  Biso   1.000  O
  O292     1.0000 0.58841  0.63733  0.79439  Biso   1.000  O
  O293     1.0000 0.24330  0.54068  0.90836  Biso   1.000  O
  O294     1.0000 0.24781  0.56346  0.94336  Biso   1.000  O
  O295     1.0000 0.24678  0.45119  0.90782  Biso   1.000  O
  O296     1.0000 0.25155  0.42865  0.94378  Biso   1.000  O
  O297     1.0000 0.24300  0.59821  0.89243  Biso   1.000  O
  O298     1.0000 0.39306  0.74912  0.89401  Biso   1.000  O
  C505     1.0000 0.33172  0.76170  0.87580  Biso   1.000  C
  C506     1.0000 0.30378  0.76830  0.87670  Biso   1.000  C
  C507     1.0000 0.29671  0.79380  0.87580  Biso   1.000  C
  H190     1.0000 0.30930  0.80670  0.87420  Biso   1.000  H
  C508     1.0000 0.27135  0.80026  0.87730  Biso   1.000  C
  C509     1.0000 0.26490  0.82818  0.87780  Biso   1.000  C
  C510     1.0000 0.25301  0.78140  0.87890  Biso   1.000  C
  H191     1.0000 0.23560  0.78600  0.87960  Biso   1.000  H
  C511     1.0000 0.28524  0.74958  0.87880  Biso   1.000  C
  H192     1.0000 0.29020  0.73230  0.87990  Biso   1.000  H
  C512     1.0000 0.25966  0.75573  0.87940  Biso   1.000  C
  C513     1.0000 0.23980  0.73546  0.88050  Biso   1.000  C
  C514     1.0000 0.21433  0.74142  0.88190  Biso   1.000  C
  H193     1.0000 0.20940  0.75880  0.88210  Biso   1.000  H
  C515     1.0000 0.24590  0.70955  0.88070  Biso   1.000  C
  H194     1.0000 0.26320  0.70450  0.87910  Biso   1.000  H
  C516     1.0000 0.22730  0.69107  0.88300  Biso   1.000  C
  C517     1.0000 0.23370  0.66320  0.88340  Biso   1.000  C
  C518     1.0000 0.20260  0.69780  0.88450  Biso   1.000  C
  H195     1.0000 0.18990  0.68510  0.88670  Biso   1.000  H
  C519     1.0000 0.19569  0.72295  0.88300  Biso   1.000  C
  C520     1.0000 0.16802  0.72990  0.88360  Biso   1.000  C
  C521     1.0000 0.35589  0.69782  0.92453  Biso   1.000  C
  C522     1.0000 0.34154  0.67762  0.93866  Biso   1.000  C
  C523     1.0000 0.32584  0.66109  0.92548  Biso   1.000  C
  H196     1.0000 0.32520  0.66140  0.90740  Biso   1.000  H
  C524     1.0000 0.31099  0.64411  0.93927  Biso   1.000  C
  C525     1.0000 0.29229  0.62749  0.92571  Biso   1.000  C
  C526     1.0000 0.31291  0.64289  0.96546  Biso   1.000  C
  H197     1.0000 0.30310  0.63080  0.97460  Biso   1.000  H
  C527     1.0000 0.34303  0.67666  0.96505  Biso   1.000  C
  H198     1.0000 0.35380  0.68820  0.97380  Biso   1.000  H
  C528     1.0000 0.32904  0.65920  0.97850  Biso   1.000  C
  C529     1.0000 0.33082  0.65759  0.00731  Biso   1.000  C
  C530     1.0000 0.31695  0.63979  0.02100  Biso   1.000  C
  H199     1.0000 0.30590  0.62850  0.01220  Biso   1.000  H
  C531     1.0000 0.31887  0.63819  0.04744  Biso   1.000  C
  O299     1.0000 0.31034  0.61170  0.08271  Biso   1.000  O
  C532     1.0000 0.33470  0.65457  0.06039  Biso   1.000  C
  H200     1.0000 0.33680  0.65300  0.07830  Biso   1.000  H
  C533     1.0000 0.34740  0.67320  0.04711  Biso   1.000  C
  C534     1.0000 0.36200  0.69280  0.06120  Biso   1.000  C
  C535     1.0000 0.34530  0.67470  0.02124  Biso   1.000  C
  H201     1.0000 0.35400  0.68790  0.01250  Biso   1.000  H
  C536     1.0000 0.43100  0.70120  0.87050  Biso   1.000  C
  C537     1.0000 0.44510  0.68310  0.85330  Biso   1.000  C
  C538     1.0000 0.43122  0.66780  0.83690  Biso   1.000  C
  H202     1.0000 0.41320  0.66680  0.83810  Biso   1.000  H
  C539     1.0000 0.44433  0.65400  0.81850  Biso   1.000  C
  C540     1.0000 0.43015  0.63950  0.79850  Biso   1.000  C
  C541     1.0000 0.47095  0.65490  0.81790  Biso   1.000  C
  H203     1.0000 0.47970  0.64530  0.80540  Biso   1.000  H
  C542     1.0000 0.47182  0.68380  0.85218  Biso   1.000  C
  H204     1.0000 0.48090  0.69450  0.86350  Biso   1.000  H
  C543     1.0000 0.48495  0.66920  0.83501  Biso   1.000  C
  C544     1.0000 0.51376  0.66970  0.83356  Biso   1.000  C
  C545     1.0000 0.52835  0.68423  0.85022  Biso   1.000  C
  H205     1.0000 0.52000  0.69410  0.86290  Biso   1.000  H
  C546     1.0000 0.55464  0.68472  0.84884  Biso   1.000  C
  C547     1.0000 0.56979  0.70220  0.86515  Biso   1.000  C
  C548     1.0000 0.56715  0.67039  0.83080  Biso   1.000  C
  H206     1.0000 0.58520  0.67000  0.83020  Biso   1.000  H
  C549     1.0000 0.55246  0.65639  0.81338  Biso   1.000  C
  C550     1.0000 0.56586  0.64259  0.79214  Biso   1.000  C
  C551     1.0000 0.52626  0.65650  0.81468  Biso   1.000  C
  H207     1.0000 0.51670  0.64730  0.80240  Biso   1.000  H
  C552     1.0000 0.24630  0.54304  0.93151  Biso   1.000  C
  C553     1.0000 0.24720  0.51866  0.94624  Biso   1.000  C
  C554     1.0000 0.24750  0.49579  0.93314  Biso   1.000  C
  H208     1.0000 0.24660  0.49560  0.91510  Biso   1.000  H
  C555     1.0000 0.24900  0.47357  0.94632  Biso   1.000  C
  C556     1.0000 0.24920  0.44931  0.93162  Biso   1.000  C
  C557     1.0000 0.25000  0.47338  0.97250  Biso   1.000  C
  H209     1.0000 0.25140  0.45770  0.98130  Biso   1.000  H
  C558     1.0000 0.24900  0.49617  0.98598  Biso   1.000  C
  C559     1.0000 0.24840  0.51882  0.97240  Biso   1.000  C
  H210     1.0000 0.24890  0.53460  0.98120  Biso   1.000  H
  O300     1.0000 0.34533  0.77918  0.86707  Biso   1.000  O
  C560     1.0000 0.30220  0.61995  0.06176  Biso   1.000  C
  Zn81     1.0000 0.37599  0.28024  0.62110  Biso   1.000  Zn
  Zn82     1.0000 0.38053  0.22280  0.62563  Biso   1.000  Zn
  Zn83     1.0000 0.37944  0.25101  0.57210  Biso   1.000  Zn
  Zn84     1.0000 0.42958  0.25020  0.60563  Biso   1.000  Zn
  Zn85     1.0000 0.26855  0.38138  0.62687  Biso   1.000  Zn
  Zn86     1.0000 0.20935  0.38776  0.61624  Biso   1.000  Zn
  Zn87     1.0000 0.24644  0.40219  0.57145  Biso   1.000  Zn
  Zn88     1.0000 0.24368  0.43576  0.62026  Biso   1.000  Zn
  O301     1.0000 0.33831  0.25911  0.61698  Biso   1.000  O
  O302     1.0000 0.28185  0.15710  0.62977  Biso   1.000  O
  O303     1.0000 0.24299  0.16534  0.61533  Biso   1.000  O
  O304     1.0000 0.25524  0.34427  0.62396  Biso   1.000  O
  O305     1.0000 0.21670  0.35089  0.60690  Biso   1.000  O
  O306     1.0000 0.16219  0.24729  0.61354  Biso   1.000  O
  O307     1.0000 0.15316  0.28820  0.62040  Biso   1.000  O
  O308     1.0000 0.35969  0.30560  0.59898  Biso   1.000  O
  O309     1.0000 0.36345  0.28346  0.56290  Biso   1.000  O
  O310     1.0000 0.29365  0.37308  0.59793  Biso   1.000  O
  O311     1.0000 0.27680  0.38442  0.56061  Biso   1.000  O
  O312     1.0000 0.28107  0.38525  0.44754  Biso   1.000  O
  O313     1.0000 0.37288  0.31300  0.41878  Biso   1.000  O
  O314     1.0000 0.36070  0.28477  0.44830  Biso   1.000  O
  O315     1.0000 0.40851  0.30306  0.62521  Biso   1.000  O
  O316     1.0000 0.44362  0.27931  0.62207  Biso   1.000  O
  O317     1.0000 0.44078  0.36100  0.72343  Biso   1.000  O
  O318     1.0000 0.40919  0.36974  0.69645  Biso   1.000  O
  O319     1.0000 0.59392  0.30126  0.63562  Biso   1.000  O
  O320     1.0000 0.55812  0.28118  0.62255  Biso   1.000  O
  O321     1.0000 0.55211  0.36254  0.72666  Biso   1.000  O
  O322     1.0000 0.58841  0.36267  0.70561  Biso   1.000  O
  O323     1.0000 0.24330  0.45932  0.59164  Biso   1.000  O
  O324     1.0000 0.24781  0.43654  0.55664  Biso   1.000  O
  O325     1.0000 0.24678  0.54881  0.59218  Biso   1.000  O
  O326     1.0000 0.25155  0.57135  0.55622  Biso   1.000  O
  O327     1.0000 0.24300  0.40179  0.60757  Biso   1.000  O
  O328     1.0000 0.39306  0.25088  0.60599  Biso   1.000  O
  C561     1.0000 0.33172  0.23830  0.62420  Biso   1.000  C
  C562     1.0000 0.30378  0.23170  0.62330  Biso   1.000  C
  C563     1.0000 0.29671  0.20620  0.62420  Biso   1.000  C
  H211     1.0000 0.30930  0.19330  0.62580  Biso   1.000  H
  C564     1.0000 0.27135  0.19974  0.62270  Biso   1.000  C
  C565     1.0000 0.26490  0.17182  0.62220  Biso   1.000  C
  C566     1.0000 0.25301  0.21860  0.62110  Biso   1.000  C
  H212     1.0000 0.23560  0.21400  0.62040  Biso   1.000  H
  C567     1.0000 0.28524  0.25042  0.62120  Biso   1.000  C
  H213     1.0000 0.29020  0.26770  0.62010  Biso   1.000  H
  C568     1.0000 0.25966  0.24427  0.62060  Biso   1.000  C
  C569     1.0000 0.23980  0.26454  0.61950  Biso   1.000  C
  C570     1.0000 0.21433  0.25858  0.61810  Biso   1.000  C
  H214     1.0000 0.20940  0.24120  0.61790  Biso   1.000  H
  C571     1.0000 0.24590  0.29045  0.61930  Biso   1.000  C
  H215     1.0000 0.26320  0.29550  0.62090  Biso   1.000  H
  C572     1.0000 0.22730  0.30893  0.61700  Biso   1.000  C
  C573     1.0000 0.23370  0.33680  0.61660  Biso   1.000  C
  C574     1.0000 0.20260  0.30220  0.61550  Biso   1.000  C
  H216     1.0000 0.18990  0.31490  0.61330  Biso   1.000  H
  C575     1.0000 0.19569  0.27705  0.61700  Biso   1.000  C
  C576     1.0000 0.16802  0.27010  0.61640  Biso   1.000  C
  C577     1.0000 0.35589  0.30218  0.57547  Biso   1.000  C
  C578     1.0000 0.34154  0.32238  0.56134  Biso   1.000  C
  C579     1.0000 0.32584  0.33891  0.57452  Biso   1.000  C
  H217     1.0000 0.32520  0.33860  0.59260  Biso   1.000  H
  C580     1.0000 0.31099  0.35589  0.56073  Biso   1.000  C
  C581     1.0000 0.29229  0.37251  0.57429  Biso   1.000  C
  C582     1.0000 0.31291  0.35711  0.53454  Biso   1.000  C
  H218     1.0000 0.30310  0.36920  0.52540  Biso   1.000  H
  C583     1.0000 0.34303  0.32334  0.53495  Biso   1.000  C
  H219     1.0000 0.35380  0.31180  0.52620  Biso   1.000  H
  C584     1.0000 0.32904  0.34080  0.52150  Biso   1.000  C
  C585     1.0000 0.33082  0.34241  0.49269  Biso   1.000  C
  C586     1.0000 0.31695  0.36021  0.47900  Biso   1.000  C
  H220     1.0000 0.30590  0.37150  0.48780  Biso   1.000  H
  C587     1.0000 0.31887  0.36181  0.45256  Biso   1.000  C
  O329     1.0000 0.31034  0.38830  0.41729  Biso   1.000  O
  C588     1.0000 0.33470  0.34543  0.43961  Biso   1.000  C
  H221     1.0000 0.33680  0.34700  0.42170  Biso   1.000  H
  C589     1.0000 0.34740  0.32680  0.45289  Biso   1.000  C
  C590     1.0000 0.36200  0.30720  0.43880  Biso   1.000  C
  C591     1.0000 0.34530  0.32530  0.47876  Biso   1.000  C
  H222     1.0000 0.35400  0.31210  0.48750  Biso   1.000  H
  C592     1.0000 0.43100  0.29880  0.62950  Biso   1.000  C
  C593     1.0000 0.44510  0.31690  0.64670  Biso   1.000  C
  C594     1.0000 0.43122  0.33220  0.66310  Biso   1.000  C
  H223     1.0000 0.41320  0.33320  0.66190  Biso   1.000  H
  C595     1.0000 0.44433  0.34600  0.68150  Biso   1.000  C
  C596     1.0000 0.43015  0.36050  0.70150  Biso   1.000  C
  C597     1.0000 0.47095  0.34510  0.68210  Biso   1.000  C
  H224     1.0000 0.47970  0.35470  0.69460  Biso   1.000  H
  C598     1.0000 0.47182  0.31620  0.64782  Biso   1.000  C
  H225     1.0000 0.48090  0.30550  0.63650  Biso   1.000  H
  C599     1.0000 0.48495  0.33080  0.66499  Biso   1.000  C
  C600     1.0000 0.51376  0.33030  0.66644  Biso   1.000  C
  C601     1.0000 0.52835  0.31577  0.64978  Biso   1.000  C
  H226     1.0000 0.52000  0.30590  0.63710  Biso   1.000  H
  C602     1.0000 0.55464  0.31528  0.65116  Biso   1.000  C
  C603     1.0000 0.56979  0.29780  0.63485  Biso   1.000  C
  C604     1.0000 0.56715  0.32961  0.66920  Biso   1.000  C
  H227     1.0000 0.58520  0.33000  0.66980  Biso   1.000  H
  C605     1.0000 0.55246  0.34361  0.68662  Biso   1.000  C
  C606     1.0000 0.56586  0.35741  0.70786  Biso   1.000  C
  C607     1.0000 0.52626  0.34350  0.68532  Biso   1.000  C
  H228     1.0000 0.51670  0.35270  0.69760  Biso   1.000  H
  C608     1.0000 0.24630  0.45696  0.56849  Biso   1.000  C
  C609     1.0000 0.24720  0.48134  0.55376  Biso   1.000  C
  C610     1.0000 0.24750  0.50421  0.56686  Biso   1.000  C
  H229     1.0000 0.24660  0.50440  0.58490  Biso   1.000  H
  C611     1.0000 0.24900  0.52643  0.55368  Biso   1.000  C
  C612     1.0000 0.24920  0.55069  0.56838  Biso   1.000  C
  C613     1.0000 0.25000  0.52662  0.52750  Biso   1.000  C
  H230     1.0000 0.25140  0.54230  0.51870  Biso   1.000  H
  C614     1.0000 0.24900  0.50383  0.51402  Biso   1.000  C
  C615     1.0000 0.24840  0.48118  0.52760  Biso   1.000  C
  H231     1.0000 0.24890  0.46540  0.51880  Biso   1.000  H
  O330     1.0000 0.34533  0.22082  0.63293  Biso   1.000  O
  C616     1.0000 0.30220  0.38005  0.43824  Biso   1.000  C
  Zn89     1.0000 0.87599  0.78024  0.12110  Biso   1.000  Zn
  Zn90     1.0000 0.88053  0.72280  0.12563  Biso   1.000  Zn
  Zn91     1.0000 0.87944  0.75101  0.07210  Biso   1.000  Zn
  Zn92     1.0000 0.92958  0.75020  0.10563  Biso   1.000  Zn
  Zn93     1.0000 0.76855  0.88138  0.12687  Biso   1.000  Zn
  Zn94     1.0000 0.70935  0.88776  0.11624  Biso   1.000  Zn
  Zn95     1.0000 0.74644  0.90219  0.07145  Biso   1.000  Zn
  Zn96     1.0000 0.74368  0.93576  0.12026  Biso   1.000  Zn
  O331     1.0000 0.83831  0.75911  0.11698  Biso   1.000  O
  O332     1.0000 0.78185  0.65710  0.12977  Biso   1.000  O
  O333     1.0000 0.74299  0.66534  0.11533  Biso   1.000  O
  O334     1.0000 0.75524  0.84427  0.12396  Biso   1.000  O
  O335     1.0000 0.71670  0.85089  0.10690  Biso   1.000  O
  O336     1.0000 0.66219  0.74729  0.11354  Biso   1.000  O
  O337     1.0000 0.65316  0.78820  0.12040  Biso   1.000  O
  O338     1.0000 0.85969  0.80560  0.09898  Biso   1.000  O
  O339     1.0000 0.86345  0.78346  0.06290  Biso   1.000  O
  O340     1.0000 0.79365  0.87308  0.09793  Biso   1.000  O
  O341     1.0000 0.77680  0.88442  0.06061  Biso   1.000  O
  O342     1.0000 0.78107  0.88525  0.94754  Biso   1.000  O
  O343     1.0000 0.87288  0.81300  0.91878  Biso   1.000  O
  O344     1.0000 0.86070  0.78477  0.94830  Biso   1.000  O
  O345     1.0000 0.90851  0.80306  0.12521  Biso   1.000  O
  O346     1.0000 0.94362  0.77931  0.12207  Biso   1.000  O
  O347     1.0000 0.94078  0.86100  0.22343  Biso   1.000  O
  O348     1.0000 0.90919  0.86974  0.19645  Biso   1.000  O
  O349     1.0000 0.09392  0.80126  0.13562  Biso   1.000  O
  O350     1.0000 0.05812  0.78118  0.12255  Biso   1.000  O
  O351     1.0000 0.05211  0.86254  0.22666  Biso   1.000  O
  O352     1.0000 0.08841  0.86267  0.20561  Biso   1.000  O
  O353     1.0000 0.74330  0.95932  0.09164  Biso   1.000  O
  O354     1.0000 0.74781  0.93654  0.05664  Biso   1.000  O
  O355     1.0000 0.74678  0.04881  0.09218  Biso   1.000  O
  O356     1.0000 0.75155  0.07135  0.05622  Biso   1.000  O
  O357     1.0000 0.74300  0.90179  0.10757  Biso   1.000  O
  O358     1.0000 0.89306  0.75088  0.10599  Biso   1.000  O
  C617     1.0000 0.83172  0.73830  0.12420  Biso   1.000  C
  C618     1.0000 0.80378  0.73170  0.12330  Biso   1.000  C
  C619     1.0000 0.79671  0.70620  0.12420  Biso   1.000  C
  H232     1.0000 0.80930  0.69330  0.12580  Biso   1.000  H
  C620     1.0000 0.77135  0.69974  0.12270  Biso   1.000  C
  C621     1.0000 0.76490  0.67182  0.12220  Biso   1.000  C
  C622     1.0000 0.75301  0.71860  0.12110  Biso   1.000  C
  H233     1.0000 0.73560  0.71400  0.12040  Biso   1.000  H
  C623     1.0000 0.78524  0.75042  0.12120  Biso   1.000  C
  H234     1.0000 0.79020  0.76770  0.12010  Biso   1.000  H
  C624     1.0000 0.75966  0.74427  0.12060  Biso   1.000  C
  C625     1.0000 0.73980  0.76454  0.11950  Biso   1.000  C
  C626     1.0000 0.71433  0.75858  0.11810  Biso   1.000  C
  H235     1.0000 0.70940  0.74120  0.11790  Biso   1.000  H
  C627     1.0000 0.74590  0.79045  0.11930  Biso   1.000  C
  H236     1.0000 0.76320  0.79550  0.12090  Biso   1.000  H
  C628     1.0000 0.72730  0.80893  0.11700  Biso   1.000  C
  C629     1.0000 0.73370  0.83680  0.11660  Biso   1.000  C
  C630     1.0000 0.70260  0.80220  0.11550  Biso   1.000  C
  H237     1.0000 0.68990  0.81490  0.11330  Biso   1.000  H
  C631     1.0000 0.69569  0.77705  0.11700  Biso   1.000  C
  C632     1.0000 0.66802  0.77010  0.11640  Biso   1.000  C
  C633     1.0000 0.85589  0.80218  0.07547  Biso   1.000  C
  C634     1.0000 0.84154  0.82238  0.06134  Biso   1.000  C
  C635     1.0000 0.82584  0.83891  0.07452  Biso   1.000  C
  H238     1.0000 0.82520  0.83860  0.09260  Biso   1.000  H
  C636     1.0000 0.81099  0.85589  0.06073  Biso   1.000  C
  C637     1.0000 0.79229  0.87251  0.07429  Biso   1.000  C
  C638     1.0000 0.81291  0.85711  0.03454  Biso   1.000  C
  H239     1.0000 0.80310  0.86920  0.02540  Biso   1.000  H
  C639     1.0000 0.84303  0.82334  0.03495  Biso   1.000  C
  H240     1.0000 0.85380  0.81180  0.02620  Biso   1.000  H
  C640     1.0000 0.82904  0.84080  0.02150  Biso   1.000  C
  C641     1.0000 0.83082  0.84241  0.99269  Biso   1.000  C
  C642     1.0000 0.81695  0.86021  0.97900  Biso   1.000  C
  H241     1.0000 0.80590  0.87150  0.98780  Biso   1.000  H
  C643     1.0000 0.81887  0.86181  0.95256  Biso   1.000  C
  O359     1.0000 0.81034  0.88830  0.91729  Biso   1.000  O
  C644     1.0000 0.83470  0.84543  0.93961  Biso   1.000  C
  H242     1.0000 0.83680  0.84700  0.92170  Biso   1.000  H
  C645     1.0000 0.84740  0.82680  0.95289  Biso   1.000  C
  C646     1.0000 0.86200  0.80720  0.93880  Biso   1.000  C
  C647     1.0000 0.84530  0.82530  0.97876  Biso   1.000  C
  H243     1.0000 0.85400  0.81210  0.98750  Biso   1.000  H
  C648     1.0000 0.93100  0.79880  0.12950  Biso   1.000  C
  C649     1.0000 0.94510  0.81690  0.14670  Biso   1.000  C
  C650     1.0000 0.93122  0.83220  0.16310  Biso   1.000  C
  H244     1.0000 0.91320  0.83320  0.16190  Biso   1.000  H
  C651     1.0000 0.94433  0.84600  0.18150  Biso   1.000  C
  C652     1.0000 0.93015  0.86050  0.20150  Biso   1.000  C
  C653     1.0000 0.97095  0.84510  0.18210  Biso   1.000  C
  H245     1.0000 0.97970  0.85470  0.19460  Biso   1.000  H
  C654     1.0000 0.97182  0.81620  0.14782  Biso   1.000  C
  H246     1.0000 0.98090  0.80550  0.13650  Biso   1.000  H
  C655     1.0000 0.98495  0.83080  0.16499  Biso   1.000  C
  C656     1.0000 0.01376  0.83030  0.16644  Biso   1.000  C
  C657     1.0000 0.02835  0.81577  0.14978  Biso   1.000  C
  H247     1.0000 0.02000  0.80590  0.13710  Biso   1.000  H
  C658     1.0000 0.05464  0.81528  0.15116  Biso   1.000  C
  C659     1.0000 0.06979  0.79780  0.13485  Biso   1.000  C
  C660     1.0000 0.06715  0.82961  0.16920  Biso   1.000  C
  H248     1.0000 0.08520  0.83000  0.16980  Biso   1.000  H
  C661     1.0000 0.05246  0.84361  0.18662  Biso   1.000  C
  C662     1.0000 0.06586  0.85741  0.20786  Biso   1.000  C
  C663     1.0000 0.02626  0.84350  0.18532  Biso   1.000  C
  H249     1.0000 0.01670  0.85270  0.19760  Biso   1.000  H
  C664     1.0000 0.74630  0.95696  0.06849  Biso   1.000  C
  C665     1.0000 0.74720  0.98134  0.05376  Biso   1.000  C
  C666     1.0000 0.74750  0.00421  0.06686  Biso   1.000  C
  H250     1.0000 0.74660  0.00440  0.08490  Biso   1.000  H
  C667     1.0000 0.74900  0.02643  0.05368  Biso   1.000  C
  C668     1.0000 0.74920  0.05069  0.06838  Biso   1.000  C
  C669     1.0000 0.75000  0.02662  0.02750  Biso   1.000  C
  H251     1.0000 0.75140  0.04230  0.01870  Biso   1.000  H
  C670     1.0000 0.74900  0.00383  0.01402  Biso   1.000  C
  C671     1.0000 0.74840  0.98118  0.02760  Biso   1.000  C
  H252     1.0000 0.74890  0.96540  0.01880  Biso   1.000  H
  O360     1.0000 0.84533  0.72082  0.13293  Biso   1.000  O
  C672     1.0000 0.80220  0.88005  0.93824  Biso   1.000  C
  Zn97     1.0000 0.62401  0.78024  0.87890  Biso   1.000  Zn
  Zn98     1.0000 0.61947  0.72280  0.87437  Biso   1.000  Zn
  Zn99     1.0000 0.62056  0.75101  0.92790  Biso   1.000  Zn
  Zn100    1.0000 0.57042  0.75020  0.89437  Biso   1.000  Zn
  Zn101    1.0000 0.73145  0.88138  0.87313  Biso   1.000  Zn
  Zn102    1.0000 0.79065  0.88776  0.88376  Biso   1.000  Zn
  Zn103    1.0000 0.75356  0.90219  0.92855  Biso   1.000  Zn
  Zn104    1.0000 0.75632  0.93576  0.87974  Biso   1.000  Zn
  O361     1.0000 0.66169  0.75911  0.88302  Biso   1.000  O
  O362     1.0000 0.71815  0.65710  0.87023  Biso   1.000  O
  O363     1.0000 0.75701  0.66534  0.88467  Biso   1.000  O
  O364     1.0000 0.74476  0.84427  0.87604  Biso   1.000  O
  O365     1.0000 0.78330  0.85089  0.89310  Biso   1.000  O
  O366     1.0000 0.83781  0.74729  0.88646  Biso   1.000  O
  O367     1.0000 0.84684  0.78820  0.87960  Biso   1.000  O
  O368     1.0000 0.64031  0.80560  0.90102  Biso   1.000  O
  O369     1.0000 0.63655  0.78346  0.93710  Biso   1.000  O
  O370     1.0000 0.70635  0.87308  0.90207  Biso   1.000  O
  O371     1.0000 0.72320  0.88442  0.93939  Biso   1.000  O
  O372     1.0000 0.71893  0.88525  0.05246  Biso   1.000  O
  O373     1.0000 0.62712  0.81300  0.08122  Biso   1.000  O
  O374     1.0000 0.63930  0.78477  0.05170  Biso   1.000  O
  O375     1.0000 0.59149  0.80306  0.87479  Biso   1.000  O
  O376     1.0000 0.55638  0.77931  0.87793  Biso   1.000  O
  O377     1.0000 0.55922  0.86100  0.77657  Biso   1.000  O
  O378     1.0000 0.59081  0.86974  0.80355  Biso   1.000  O
  O379     1.0000 0.40608  0.80126  0.86438  Biso   1.000  O
  O380     1.0000 0.44188  0.78118  0.87745  Biso   1.000  O
  O381     1.0000 0.44789  0.86254  0.77334  Biso   1.000  O
  O382     1.0000 0.41159  0.86267  0.79439  Biso   1.000  O
  O383     1.0000 0.75670  0.95932  0.90836  Biso   1.000  O
  O384     1.0000 0.75219  0.93654  0.94336  Biso   1.000  O
  O385     1.0000 0.75322  0.04881  0.90782  Biso   1.000  O
  O386     1.0000 0.74845  0.07135  0.94378  Biso   1.000  O
  O387     1.0000 0.75700  0.90179  0.89243  Biso   1.000  O
  O388     1.0000 0.60694  0.75088  0.89401  Biso   1.000  O
  C673     1.0000 0.66828  0.73830  0.87580  Biso   1.000  C
  C674     1.0000 0.69622  0.73170  0.87670  Biso   1.000  C
  C675     1.0000 0.70329  0.70620  0.87580  Biso   1.000  C
  H253     1.0000 0.69070  0.69330  0.87420  Biso   1.000  H
  C676     1.0000 0.72865  0.69974  0.87730  Biso   1.000  C
  C677     1.0000 0.73510  0.67182  0.87780  Biso   1.000  C
  C678     1.0000 0.74699  0.71860  0.87890  Biso   1.000  C
  H254     1.0000 0.76440  0.71400  0.87960  Biso   1.000  H
  C679     1.0000 0.71476  0.75042  0.87880  Biso   1.000  C
  H255     1.0000 0.70980  0.76770  0.87990  Biso   1.000  H
  C680     1.0000 0.74034  0.74427  0.87940  Biso   1.000  C
  C681     1.0000 0.76020  0.76454  0.88050  Biso   1.000  C
  C682     1.0000 0.78567  0.75858  0.88190  Biso   1.000  C
  H256     1.0000 0.79060  0.74120  0.88210  Biso   1.000  H
  C683     1.0000 0.75410  0.79045  0.88070  Biso   1.000  C
  H257     1.0000 0.73680  0.79550  0.87910  Biso   1.000  H
  C684     1.0000 0.77270  0.80893  0.88300  Biso   1.000  C
  C685     1.0000 0.76630  0.83680  0.88340  Biso   1.000  C
  C686     1.0000 0.79740  0.80220  0.88450  Biso   1.000  C
  H258     1.0000 0.81010  0.81490  0.88670  Biso   1.000  H
  C687     1.0000 0.80431  0.77705  0.88300  Biso   1.000  C
  C688     1.0000 0.83198  0.77010  0.88360  Biso   1.000  C
  C689     1.0000 0.64411  0.80218  0.92453  Biso   1.000  C
  C690     1.0000 0.65846  0.82238  0.93866  Biso   1.000  C
  C691     1.0000 0.67416  0.83891  0.92548  Biso   1.000  C
  H259     1.0000 0.67480  0.83860  0.90740  Biso   1.000  H
  C692     1.0000 0.68901  0.85589  0.93927  Biso   1.000  C
  C693     1.0000 0.70771  0.87251  0.92571  Biso   1.000  C
  C694     1.0000 0.68709  0.85711  0.96546  Biso   1.000  C
  H260     1.0000 0.69690  0.86920  0.97460  Biso   1.000  H
  C695     1.0000 0.65697  0.82334  0.96505  Biso   1.000  C
  H261     1.0000 0.64620  0.81180  0.97380  Biso   1.000  H
  C696     1.0000 0.67096  0.84080  0.97850  Biso   1.000  C
  C697     1.0000 0.66918  0.84241  0.00731  Biso   1.000  C
  C698     1.0000 0.68305  0.86021  0.02100  Biso   1.000  C
  H262     1.0000 0.69410  0.87150  0.01220  Biso   1.000  H
  C699     1.0000 0.68113  0.86181  0.04744  Biso   1.000  C
  O389     1.0000 0.68966  0.88830  0.08271  Biso   1.000  O
  C700     1.0000 0.66530  0.84543  0.06039  Biso   1.000  C
  H263     1.0000 0.66320  0.84700  0.07830  Biso   1.000  H
  C701     1.0000 0.65260  0.82680  0.04711  Biso   1.000  C
  C702     1.0000 0.63800  0.80720  0.06120  Biso   1.000  C
  C703     1.0000 0.65470  0.82530  0.02124  Biso   1.000  C
  H264     1.0000 0.64600  0.81210  0.01250  Biso   1.000  H
  C704     1.0000 0.56900  0.79880  0.87050  Biso   1.000  C
  C705     1.0000 0.55490  0.81690  0.85330  Biso   1.000  C
  C706     1.0000 0.56878  0.83220  0.83690  Biso   1.000  C
  H265     1.0000 0.58680  0.83320  0.83810  Biso   1.000  H
  C707     1.0000 0.55567  0.84600  0.81850  Biso   1.000  C
  C708     1.0000 0.56985  0.86050  0.79850  Biso   1.000  C
  C709     1.0000 0.52905  0.84510  0.81790  Biso   1.000  C
  H266     1.0000 0.52030  0.85470  0.80540  Biso   1.000  H
  C710     1.0000 0.52818  0.81620  0.85218  Biso   1.000  C
  H267     1.0000 0.51910  0.80550  0.86350  Biso   1.000  H
  C711     1.0000 0.51505  0.83080  0.83501  Biso   1.000  C
  C712     1.0000 0.48624  0.83030  0.83356  Biso   1.000  C
  C713     1.0000 0.47165  0.81577  0.85022  Biso   1.000  C
  H268     1.0000 0.48000  0.80590  0.86290  Biso   1.000  H
  C714     1.0000 0.44536  0.81528  0.84884  Biso   1.000  C
  C715     1.0000 0.43021  0.79780  0.86515  Biso   1.000  C
  C716     1.0000 0.43285  0.82961  0.83080  Biso   1.000  C
  H269     1.0000 0.41480  0.83000  0.83020  Biso   1.000  H
  C717     1.0000 0.44754  0.84361  0.81338  Biso   1.000  C
  C718     1.0000 0.43414  0.85741  0.79214  Biso   1.000  C
  C719     1.0000 0.47374  0.84350  0.81468  Biso   1.000  C
  H270     1.0000 0.48330  0.85270  0.80240  Biso   1.000  H
  C720     1.0000 0.75370  0.95696  0.93151  Biso   1.000  C
  C721     1.0000 0.75280  0.98134  0.94624  Biso   1.000  C
  C722     1.0000 0.75250  0.00421  0.93314  Biso   1.000  C
  H271     1.0000 0.75340  0.00440  0.91510  Biso   1.000  H
  C723     1.0000 0.75100  0.02643  0.94632  Biso   1.000  C
  C724     1.0000 0.75080  0.05069  0.93162  Biso   1.000  C
  C725     1.0000 0.75000  0.02662  0.97250  Biso   1.000  C
  H272     1.0000 0.74860  0.04230  0.98130  Biso   1.000  H
  C726     1.0000 0.75100  0.00383  0.98598  Biso   1.000  C
  C727     1.0000 0.75160  0.98118  0.97240  Biso   1.000  C
  H273     1.0000 0.75110  0.96540  0.98120  Biso   1.000  H
  O390     1.0000 0.65467  0.72082  0.86707  Biso   1.000  O
  C728     1.0000 0.69780  0.88005  0.06176  Biso   1.000  C
  Zn105    1.0000 0.12401  0.28024  0.37890  Biso   1.000  Zn
  Zn106    1.0000 0.11947  0.22280  0.37437  Biso   1.000  Zn
  Zn107    1.0000 0.12056  0.25101  0.42790  Biso   1.000  Zn
  Zn108    1.0000 0.07042  0.25020  0.39437  Biso   1.000  Zn
  Zn109    1.0000 0.23145  0.38138  0.37313  Biso   1.000  Zn
  Zn110    1.0000 0.29065  0.38776  0.38376  Biso   1.000  Zn
  Zn111    1.0000 0.25356  0.40219  0.42855  Biso   1.000  Zn
  Zn112    1.0000 0.25632  0.43576  0.37974  Biso   1.000  Zn
  O391     1.0000 0.16169  0.25911  0.38302  Biso   1.000  O
  O392     1.0000 0.21815  0.15710  0.37023  Biso   1.000  O
  O393     1.0000 0.25701  0.16534  0.38467  Biso   1.000  O
  O394     1.0000 0.24476  0.34427  0.37604  Biso   1.000  O
  O395     1.0000 0.28330  0.35089  0.39310  Biso   1.000  O
  O396     1.0000 0.33781  0.24729  0.38646  Biso   1.000  O
  O397     1.0000 0.34684  0.28820  0.37960  Biso   1.000  O
  O398     1.0000 0.14031  0.30560  0.40102  Biso   1.000  O
  O399     1.0000 0.13655  0.28346  0.43710  Biso   1.000  O
  O400     1.0000 0.20635  0.37308  0.40207  Biso   1.000  O
  O401     1.0000 0.22320  0.38442  0.43939  Biso   1.000  O
  O402     1.0000 0.21893  0.38525  0.55246  Biso   1.000  O
  O403     1.0000 0.12712  0.31300  0.58122  Biso   1.000  O
  O404     1.0000 0.13930  0.28477  0.55170  Biso   1.000  O
  O405     1.0000 0.09149  0.30306  0.37479  Biso   1.000  O
  O406     1.0000 0.05638  0.27931  0.37793  Biso   1.000  O
  O407     1.0000 0.05922  0.36100  0.27657  Biso   1.000  O
  O408     1.0000 0.09081  0.36974  0.30355  Biso   1.000  O
  O409     1.0000 0.90608  0.30126  0.36438  Biso   1.000  O
  O410     1.0000 0.94188  0.28118  0.37745  Biso   1.000  O
  O411     1.0000 0.94789  0.36254  0.27334  Biso   1.000  O
  O412     1.0000 0.91159  0.36267  0.29439  Biso   1.000  O
  O413     1.0000 0.25670  0.45932  0.40836  Biso   1.000  O
  O414     1.0000 0.25219  0.43654  0.44336  Biso   1.000  O
  O415     1.0000 0.25322  0.54881  0.40782  Biso   1.000  O
  O416     1.0000 0.24845  0.57135  0.44378  Biso   1.000  O
  O417     1.0000 0.25700  0.40179  0.39243  Biso   1.000  O
  O418     1.0000 0.10694  0.25088  0.39401  Biso   1.000  O
  C729     1.0000 0.16828  0.23830  0.37580  Biso   1.000  C
  C730     1.0000 0.19622  0.23170  0.37670  Biso   1.000  C
  C731     1.0000 0.20329  0.20620  0.37580  Biso   1.000  C
  H274     1.0000 0.19070  0.19330  0.37420  Biso   1.000  H
  C732     1.0000 0.22865  0.19974  0.37730  Biso   1.000  C
  C733     1.0000 0.23510  0.17182  0.37780  Biso   1.000  C
  C734     1.0000 0.24699  0.21860  0.37890  Biso   1.000  C
  H275     1.0000 0.26440  0.21400  0.37960  Biso   1.000  H
  C735     1.0000 0.21476  0.25042  0.37880  Biso   1.000  C
  H276     1.0000 0.20980  0.26770  0.37990  Biso   1.000  H
  C736     1.0000 0.24034  0.24427  0.37940  Biso   1.000  C
  C737     1.0000 0.26020  0.26454  0.38050  Biso   1.000  C
  C738     1.0000 0.28567  0.25858  0.38190  Biso   1.000  C
  H277     1.0000 0.29060  0.24120  0.38210  Biso   1.000  H
  C739     1.0000 0.25410  0.29045  0.38070  Biso   1.000  C
  H278     1.0000 0.23680  0.29550  0.37910  Biso   1.000  H
  C740     1.0000 0.27270  0.30893  0.38300  Biso   1.000  C
  C741     1.0000 0.26630  0.33680  0.38340  Biso   1.000  C
  C742     1.0000 0.29740  0.30220  0.38450  Biso   1.000  C
  H279     1.0000 0.31010  0.31490  0.38670  Biso   1.000  H
  C743     1.0000 0.30431  0.27705  0.38300  Biso   1.000  C
  C744     1.0000 0.33198  0.27010  0.38360  Biso   1.000  C
  C745     1.0000 0.14411  0.30218  0.42453  Biso   1.000  C
  C746     1.0000 0.15846  0.32238  0.43866  Biso   1.000  C
  C747     1.0000 0.17416  0.33891  0.42548  Biso   1.000  C
  H280     1.0000 0.17480  0.33860  0.40740  Biso   1.000  H
  C748     1.0000 0.18901  0.35589  0.43927  Biso   1.000  C
  C749     1.0000 0.20771  0.37251  0.42571  Biso   1.000  C
  C750     1.0000 0.18709  0.35711  0.46546  Biso   1.000  C
  H281     1.0000 0.19690  0.36920  0.47460  Biso   1.000  H
  C751     1.0000 0.15697  0.32334  0.46505  Biso   1.000  C
  H282     1.0000 0.14620  0.31180  0.47380  Biso   1.000  H
  C752     1.0000 0.17096  0.34080  0.47850  Biso   1.000  C
  C753     1.0000 0.16918  0.34241  0.50731  Biso   1.000  C
  C754     1.0000 0.18305  0.36021  0.52100  Biso   1.000  C
  H283     1.0000 0.19410  0.37150  0.51220  Biso   1.000  H
  C755     1.0000 0.18113  0.36181  0.54744  Biso   1.000  C
  O419     1.0000 0.18966  0.38830  0.58271  Biso   1.000  O
  C756     1.0000 0.16530  0.34543  0.56039  Biso   1.000  C
  H284     1.0000 0.16320  0.34700  0.57830  Biso   1.000  H
  C757     1.0000 0.15260  0.32680  0.54711  Biso   1.000  C
  C758     1.0000 0.13800  0.30720  0.56120  Biso   1.000  C
  C759     1.0000 0.15470  0.32530  0.52124  Biso   1.000  C
  H285     1.0000 0.14600  0.31210  0.51250  Biso   1.000  H
  C760     1.0000 0.06900  0.29880  0.37050  Biso   1.000  C
  C761     1.0000 0.05490  0.31690  0.35330  Biso   1.000  C
  C762     1.0000 0.06878  0.33220  0.33690  Biso   1.000  C
  H286     1.0000 0.08680  0.33320  0.33810  Biso   1.000  H
  C763     1.0000 0.05567  0.34600  0.31850  Biso   1.000  C
  C764     1.0000 0.06985  0.36050  0.29850  Biso   1.000  C
  C765     1.0000 0.02905  0.34510  0.31790  Biso   1.000  C
  H287     1.0000 0.02030  0.35470  0.30540  Biso   1.000  H
  C766     1.0000 0.02818  0.31620  0.35218  Biso   1.000  C
  H288     1.0000 0.01910  0.30550  0.36350  Biso   1.000  H
  C767     1.0000 0.01505  0.33080  0.33501  Biso   1.000  C
  C768     1.0000 0.98624  0.33030  0.33356  Biso   1.000  C
  C769     1.0000 0.97165  0.31577  0.35022  Biso   1.000  C
  H289     1.0000 0.98000  0.30590  0.36290  Biso   1.000  H
  C770     1.0000 0.94536  0.31528  0.34884  Biso   1.000  C
  C771     1.0000 0.93021  0.29780  0.36515  Biso   1.000  C
  C772     1.0000 0.93285  0.32961  0.33080  Biso   1.000  C
  H290     1.0000 0.91480  0.33000  0.33020  Biso   1.000  H
  C773     1.0000 0.94754  0.34361  0.31338  Biso   1.000  C
  C774     1.0000 0.93414  0.35741  0.29214  Biso   1.000  C
  C775     1.0000 0.97374  0.34350  0.31468  Biso   1.000  C
  H291     1.0000 0.98330  0.35270  0.30240  Biso   1.000  H
  C776     1.0000 0.25370  0.45696  0.43151  Biso   1.000  C
  C777     1.0000 0.25280  0.48134  0.44624  Biso   1.000  C
  C778     1.0000 0.25250  0.50421  0.43314  Biso   1.000  C
  H292     1.0000 0.25340  0.50440  0.41510  Biso   1.000  H
  C779     1.0000 0.25100  0.52643  0.44632  Biso   1.000  C
  C780     1.0000 0.25080  0.55069  0.43162  Biso   1.000  C
  C781     1.0000 0.25000  0.52662  0.47250  Biso   1.000  C
  H293     1.0000 0.24860  0.54230  0.48130  Biso   1.000  H
  C782     1.0000 0.25100  0.50383  0.48598  Biso   1.000  C
  C783     1.0000 0.25160  0.48118  0.47240  Biso   1.000  C
  H294     1.0000 0.25110  0.46540  0.48120  Biso   1.000  H
  O420     1.0000 0.15467  0.22082  0.36707  Biso   1.000  O
  C784     1.0000 0.19780  0.38005  0.56176  Biso   1.000  C
  Zn113    1.0000 0.12401  0.71976  0.12110  Biso   1.000  Zn
  Zn114    1.0000 0.11947  0.77720  0.12563  Biso   1.000  Zn
  Zn115    1.0000 0.12056  0.74899  0.07210  Biso   1.000  Zn
  Zn116    1.0000 0.07042  0.74980  0.10563  Biso   1.000  Zn
  Zn117    1.0000 0.23145  0.61862  0.12687  Biso   1.000  Zn
  Zn118    1.0000 0.29065  0.61224  0.11624  Biso   1.000  Zn
  Zn119    1.0000 0.25356  0.59781  0.07145  Biso   1.000  Zn
  Zn120    1.0000 0.25632  0.56424  0.12026  Biso   1.000  Zn
  O421     1.0000 0.16169  0.74089  0.11698  Biso   1.000  O
  O422     1.0000 0.21815  0.84290  0.12977  Biso   1.000  O
  O423     1.0000 0.25701  0.83466  0.11533  Biso   1.000  O
  O424     1.0000 0.24476  0.65573  0.12396  Biso   1.000  O
  O425     1.0000 0.28330  0.64911  0.10690  Biso   1.000  O
  O426     1.0000 0.33781  0.75271  0.11354  Biso   1.000  O
  O427     1.0000 0.34684  0.71180  0.12040  Biso   1.000  O
  O428     1.0000 0.14031  0.69440  0.09898  Biso   1.000  O
  O429     1.0000 0.13655  0.71654  0.06290  Biso   1.000  O
  O430     1.0000 0.20635  0.62692  0.09793  Biso   1.000  O
  O431     1.0000 0.22320  0.61558  0.06061  Biso   1.000  O
  O432     1.0000 0.21893  0.61475  0.94754  Biso   1.000  O
  O433     1.0000 0.12712  0.68700  0.91878  Biso   1.000  O
  O434     1.0000 0.13930  0.71523  0.94830  Biso   1.000  O
  O435     1.0000 0.09149  0.69694  0.12521  Biso   1.000  O
  O436     1.0000 0.05638  0.72069  0.12207  Biso   1.000  O
  O437     1.0000 0.05922  0.63900  0.22343  Biso   1.000  O
  O438     1.0000 0.09081  0.63026  0.19645  Biso   1.000  O
  O439     1.0000 0.90608  0.69874  0.13562  Biso   1.000  O
  O440     1.0000 0.94188  0.71882  0.12255  Biso   1.000  O
  O441     1.0000 0.94789  0.63746  0.22666  Biso   1.000  O
  O442     1.0000 0.91159  0.63733  0.20561  Biso   1.000  O
  O443     1.0000 0.25670  0.54068  0.09164  Biso   1.000  O
  O444     1.0000 0.25219  0.56346  0.05664  Biso   1.000  O
  O445     1.0000 0.25322  0.45119  0.09218  Biso   1.000  O
  O446     1.0000 0.24845  0.42865  0.05622  Biso   1.000  O
  O447     1.0000 0.25700  0.59821  0.10757  Biso   1.000  O
  O448     1.0000 0.10694  0.74912  0.10599  Biso   1.000  O
  C785     1.0000 0.16828  0.76170  0.12420  Biso   1.000  C
  C786     1.0000 0.19622  0.76830  0.12330  Biso   1.000  C
  C787     1.0000 0.20329  0.79380  0.12420  Biso   1.000  C
  H295     1.0000 0.19070  0.80670  0.12580  Biso   1.000  H
  C788     1.0000 0.22865  0.80026  0.12270  Biso   1.000  C
  C789     1.0000 0.23510  0.82818  0.12220  Biso   1.000  C
  C790     1.0000 0.24699  0.78140  0.12110  Biso   1.000  C
  H296     1.0000 0.26440  0.78600  0.12040  Biso   1.000  H
  C791     1.0000 0.21476  0.74958  0.12120  Biso   1.000  C
  H297     1.0000 0.20980  0.73230  0.12010  Biso   1.000  H
  C792     1.0000 0.24034  0.75573  0.12060  Biso   1.000  C
  C793     1.0000 0.26020  0.73546  0.11950  Biso   1.000  C
  C794     1.0000 0.28567  0.74142  0.11810  Biso   1.000  C
  H298     1.0000 0.29060  0.75880  0.11790  Biso   1.000  H
  C795     1.0000 0.25410  0.70955  0.11930  Biso   1.000  C
  H299     1.0000 0.23680  0.70450  0.12090  Biso   1.000  H
  C796     1.0000 0.27270  0.69107  0.11700  Biso   1.000  C
  C797     1.0000 0.26630  0.66320  0.11660  Biso   1.000  C
  C798     1.0000 0.29740  0.69780  0.11550  Biso   1.000  C
  H300     1.0000 0.31010  0.68510  0.11330  Biso   1.000  H
  C799     1.0000 0.30431  0.72295  0.11700  Biso   1.000  C
  C800     1.0000 0.33198  0.72990  0.11640  Biso   1.000  C
  C801     1.0000 0.14411  0.69782  0.07547  Biso   1.000  C
  C802     1.0000 0.15846  0.67762  0.06134  Biso   1.000  C
  C803     1.0000 0.17416  0.66109  0.07452  Biso   1.000  C
  H301     1.0000 0.17480  0.66140  0.09260  Biso   1.000  H
  C804     1.0000 0.18901  0.64411  0.06073  Biso   1.000  C
  C805     1.0000 0.20771  0.62749  0.07429  Biso   1.000  C
  C806     1.0000 0.18709  0.64289  0.03454  Biso   1.000  C
  H302     1.0000 0.19690  0.63080  0.02540  Biso   1.000  H
  C807     1.0000 0.15697  0.67666  0.03495  Biso   1.000  C
  H303     1.0000 0.14620  0.68820  0.02620  Biso   1.000  H
  C808     1.0000 0.17096  0.65920  0.02150  Biso   1.000  C
  C809     1.0000 0.16918  0.65759  0.99269  Biso   1.000  C
  C810     1.0000 0.18305  0.63979  0.97900  Biso   1.000  C
  H304     1.0000 0.19410  0.62850  0.98780  Biso   1.000  H
  C811     1.0000 0.18113  0.63819  0.95256  Biso   1.000  C
  O449     1.0000 0.18966  0.61170  0.91729  Biso   1.000  O
  C812     1.0000 0.16530  0.65457  0.93961  Biso   1.000  C
  H305     1.0000 0.16320  0.65300  0.92170  Biso   1.000  H
  C813     1.0000 0.15260  0.67320  0.95289  Biso   1.000  C
  C814     1.0000 0.13800  0.69280  0.93880  Biso   1.000  C
  C815     1.0000 0.15470  0.67470  0.97876  Biso   1.000  C
  H306     1.0000 0.14600  0.68790  0.98750  Biso   1.000  H
  C816     1.0000 0.06900  0.70120  0.12950  Biso   1.000  C
  C817     1.0000 0.05490  0.68310  0.14670  Biso   1.000  C
  C818     1.0000 0.06878  0.66780  0.16310  Biso   1.000  C
  H307     1.0000 0.08680  0.66680  0.16190  Biso   1.000  H
  C819     1.0000 0.05567  0.65400  0.18150  Biso   1.000  C
  C820     1.0000 0.06985  0.63950  0.20150  Biso   1.000  C
  C821     1.0000 0.02905  0.65490  0.18210  Biso   1.000  C
  H308     1.0000 0.02030  0.64530  0.19460  Biso   1.000  H
  C822     1.0000 0.02818  0.68380  0.14782  Biso   1.000  C
  H309     1.0000 0.01910  0.69450  0.13650  Biso   1.000  H
  C823     1.0000 0.01505  0.66920  0.16499  Biso   1.000  C
  C824     1.0000 0.98624  0.66970  0.16644  Biso   1.000  C
  C825     1.0000 0.97165  0.68423  0.14978  Biso   1.000  C
  H310     1.0000 0.98000  0.69410  0.13710  Biso   1.000  H
  C826     1.0000 0.94536  0.68472  0.15116  Biso   1.000  C
  C827     1.0000 0.93021  0.70220  0.13485  Biso   1.000  C
  C828     1.0000 0.93285  0.67039  0.16920  Biso   1.000  C
  H311     1.0000 0.91480  0.67000  0.16980  Biso   1.000  H
  C829     1.0000 0.94754  0.65639  0.18662  Biso   1.000  C
  C830     1.0000 0.93414  0.64259  0.20786  Biso   1.000  C
  C831     1.0000 0.97374  0.65650  0.18532  Biso   1.000  C
  H312     1.0000 0.98330  0.64730  0.19760  Biso   1.000  H
  C832     1.0000 0.25370  0.54304  0.06849  Biso   1.000  C
  C833     1.0000 0.25280  0.51866  0.05376  Biso   1.000  C
  C834     1.0000 0.25250  0.49579  0.06686  Biso   1.000  C
  H313     1.0000 0.25340  0.49560  0.08490  Biso   1.000  H
  C835     1.0000 0.25100  0.47357  0.05368  Biso   1.000  C
  C836     1.0000 0.25080  0.44931  0.06838  Biso   1.000  C
  C837     1.0000 0.25000  0.47338  0.02750  Biso   1.000  C
  H314     1.0000 0.24860  0.45770  0.01870  Biso   1.000  H
  C838     1.0000 0.25100  0.49617  0.01402  Biso   1.000  C
  C839     1.0000 0.25160  0.51882  0.02760  Biso   1.000  C
  H315     1.0000 0.25110  0.53460  0.01880  Biso   1.000  H
  O450     1.0000 0.15467  0.77918  0.13293  Biso   1.000  O
  C840     1.0000 0.19780  0.61995  0.93824  Biso   1.000  C
  Zn121    1.0000 0.62401  0.21976  0.62110  Biso   1.000  Zn
  Zn122    1.0000 0.61947  0.27720  0.62563  Biso   1.000  Zn
  Zn123    1.0000 0.62056  0.24899  0.57210  Biso   1.000  Zn
  Zn124    1.0000 0.57042  0.24980  0.60563  Biso   1.000  Zn
  Zn125    1.0000 0.73145  0.11862  0.62687  Biso   1.000  Zn
  Zn126    1.0000 0.79065  0.11224  0.61624  Biso   1.000  Zn
  Zn127    1.0000 0.75356  0.09781  0.57145  Biso   1.000  Zn
  Zn128    1.0000 0.75632  0.06424  0.62026  Biso   1.000  Zn
  O451     1.0000 0.66169  0.24089  0.61698  Biso   1.000  O
  O452     1.0000 0.71815  0.34290  0.62977  Biso   1.000  O
  O453     1.0000 0.75701  0.33466  0.61533  Biso   1.000  O
  O454     1.0000 0.74476  0.15573  0.62396  Biso   1.000  O
  O455     1.0000 0.78330  0.14911  0.60690  Biso   1.000  O
  O456     1.0000 0.83781  0.25271  0.61354  Biso   1.000  O
  O457     1.0000 0.84684  0.21180  0.62040  Biso   1.000  O
  O458     1.0000 0.64031  0.19440  0.59898  Biso   1.000  O
  O459     1.0000 0.63655  0.21654  0.56290  Biso   1.000  O
  O460     1.0000 0.70635  0.12692  0.59793  Biso   1.000  O
  O461     1.0000 0.72320  0.11558  0.56061  Biso   1.000  O
  O462     1.0000 0.71893  0.11475  0.44754  Biso   1.000  O
  O463     1.0000 0.62712  0.18700  0.41878  Biso   1.000  O
  O464     1.0000 0.63930  0.21523  0.44830  Biso   1.000  O
  O465     1.0000 0.59149  0.19694  0.62521  Biso   1.000  O
  O466     1.0000 0.55638  0.22069  0.62207  Biso   1.000  O
  O467     1.0000 0.55922  0.13900  0.72343  Biso   1.000  O
  O468     1.0000 0.59081  0.13026  0.69645  Biso   1.000  O
  O469     1.0000 0.40608  0.19874  0.63562  Biso   1.000  O
  O470     1.0000 0.44188  0.21882  0.62255  Biso   1.000  O
  O471     1.0000 0.44789  0.13746  0.72666  Biso   1.000  O
  O472     1.0000 0.41159  0.13733  0.70561  Biso   1.000  O
  O473     1.0000 0.75670  0.04068  0.59164  Biso   1.000  O
  O474     1.0000 0.75219  0.06346  0.55664  Biso   1.000  O
  O475     1.0000 0.75322  0.95119  0.59218  Biso   1.000  O
  O476     1.0000 0.74845  0.92865  0.55622  Biso   1.000  O
  O477     1.0000 0.75700  0.09821  0.60757  Biso   1.000  O
  O478     1.0000 0.60694  0.24912  0.60599  Biso   1.000  O
  C841     1.0000 0.66828  0.26170  0.62420  Biso   1.000  C
  C842     1.0000 0.69622  0.26830  0.62330  Biso   1.000  C
  C843     1.0000 0.70329  0.29380  0.62420  Biso   1.000  C
  H316     1.0000 0.69070  0.30670  0.62580  Biso   1.000  H
  C844     1.0000 0.72865  0.30026  0.62270  Biso   1.000  C
  C845     1.0000 0.73510  0.32818  0.62220  Biso   1.000  C
  C846     1.0000 0.74699  0.28140  0.62110  Biso   1.000  C
  H317     1.0000 0.76440  0.28600  0.62040  Biso   1.000  H
  C847     1.0000 0.71476  0.24958  0.62120  Biso   1.000  C
  H318     1.0000 0.70980  0.23230  0.62010  Biso   1.000  H
  C848     1.0000 0.74034  0.25573  0.62060  Biso   1.000  C
  C849     1.0000 0.76020  0.23546  0.61950  Biso   1.000  C
  C850     1.0000 0.78567  0.24142  0.61810  Biso   1.000  C
  H319     1.0000 0.79060  0.25880  0.61790  Biso   1.000  H
  C851     1.0000 0.75410  0.20955  0.61930  Biso   1.000  C
  H320     1.0000 0.73680  0.20450  0.62090  Biso   1.000  H
  C852     1.0000 0.77270  0.19107  0.61700  Biso   1.000  C
  C853     1.0000 0.76630  0.16320  0.61660  Biso   1.000  C
  C854     1.0000 0.79740  0.19780  0.61550  Biso   1.000  C
  H321     1.0000 0.81010  0.18510  0.61330  Biso   1.000  H
  C855     1.0000 0.80431  0.22295  0.61700  Biso   1.000  C
  C856     1.0000 0.83198  0.22990  0.61640  Biso   1.000  C
  C857     1.0000 0.64411  0.19782  0.57547  Biso   1.000  C
  C858     1.0000 0.65846  0.17762  0.56134  Biso   1.000  C
  C859     1.0000 0.67416  0.16109  0.57452  Biso   1.000  C
  H322     1.0000 0.67480  0.16140  0.59260  Biso   1.000  H
  C860     1.0000 0.68901  0.14411  0.56073  Biso   1.000  C
  C861     1.0000 0.70771  0.12749  0.57429  Biso   1.000  C
  C862     1.0000 0.68709  0.14289  0.53454  Biso   1.000  C
  H323     1.0000 0.69690  0.13080  0.52540  Biso   1.000  H
  C863     1.0000 0.65697  0.17666  0.53495  Biso   1.000  C
  H324     1.0000 0.64620  0.18820  0.52620  Biso   1.000  H
  C864     1.0000 0.67096  0.15920  0.52150  Biso   1.000  C
  C865     1.0000 0.66918  0.15759  0.49269  Biso   1.000  C
  C866     1.0000 0.68305  0.13979  0.47900  Biso   1.000  C
  H325     1.0000 0.69410  0.12850  0.48780  Biso   1.000  H
  C867     1.0000 0.68113  0.13819  0.45256  Biso   1.000  C
  O479     1.0000 0.68966  0.11170  0.41729  Biso   1.000  O
  C868     1.0000 0.66530  0.15457  0.43961  Biso   1.000  C
  H326     1.0000 0.66320  0.15300  0.42170  Biso   1.000  H
  C869     1.0000 0.65260  0.17320  0.45289  Biso   1.000  C
  C870     1.0000 0.63800  0.19280  0.43880  Biso   1.000  C
  C871     1.0000 0.65470  0.17470  0.47876  Biso   1.000  C
  H327     1.0000 0.64600  0.18790  0.48750  Biso   1.000  H
  C872     1.0000 0.56900  0.20120  0.62950  Biso   1.000  C
  C873     1.0000 0.55490  0.18310  0.64670  Biso   1.000  C
  C874     1.0000 0.56878  0.16780  0.66310  Biso   1.000  C
  H328     1.0000 0.58680  0.16680  0.66190  Biso   1.000  H
  C875     1.0000 0.55567  0.15400  0.68150  Biso   1.000  C
  C876     1.0000 0.56985  0.13950  0.70150  Biso   1.000  C
  C877     1.0000 0.52905  0.15490  0.68210  Biso   1.000  C
  H329     1.0000 0.52030  0.14530  0.69460  Biso   1.000  H
  C878     1.0000 0.52818  0.18380  0.64782  Biso   1.000  C
  H330     1.0000 0.51910  0.19450  0.63650  Biso   1.000  H
  C879     1.0000 0.51505  0.16920  0.66499  Biso   1.000  C
  C880     1.0000 0.48624  0.16970  0.66644  Biso   1.000  C
  C881     1.0000 0.47165  0.18423  0.64978  Biso   1.000  C
  H331     1.0000 0.48000  0.19410  0.63710  Biso   1.000  H
  C882     1.0000 0.44536  0.18472  0.65116  Biso   1.000  C
  C883     1.0000 0.43021  0.20220  0.63485  Biso   1.000  C
  C884     1.0000 0.43285  0.17039  0.66920  Biso   1.000  C
  H332     1.0000 0.41480  0.17000  0.66980  Biso   1.000  H
  C885     1.0000 0.44754  0.15639  0.68662  Biso   1.000  C
  C886     1.0000 0.43414  0.14259  0.70786  Biso   1.000  C
  C887     1.0000 0.47374  0.15650  0.68532  Biso   1.000  C
  H333     1.0000 0.48330  0.14730  0.69760  Biso   1.000  H
  C888     1.0000 0.75370  0.04304  0.56849  Biso   1.000  C
  C889     1.0000 0.75280  0.01866  0.55376  Biso   1.000  C
  C890     1.0000 0.75250  0.99579  0.56686  Biso   1.000  C
  H334     1.0000 0.75340  0.99560  0.58490  Biso   1.000  H
  C891     1.0000 0.75100  0.97357  0.55368  Biso   1.000  C
  C892     1.0000 0.75080  0.94931  0.56838  Biso   1.000  C
  C893     1.0000 0.75000  0.97338  0.52750  Biso   1.000  C
  H335     1.0000 0.74860  0.95770  0.51870  Biso   1.000  H
  C894     1.0000 0.75100  0.99617  0.51402  Biso   1.000  C
  C895     1.0000 0.75160  0.01882  0.52760  Biso   1.000  C
  H336     1.0000 0.75110  0.03460  0.51880  Biso   1.000  H
  O480     1.0000 0.65467  0.27918  0.63293  Biso   1.000  O
  C896     1.0000 0.69780  0.11995  0.43824  Biso   1.000  C
  Zn129    1.0000 0.37890  0.87599  0.21976  Biso   1.000  Zn
  Zn130    1.0000 0.37437  0.88053  0.27720  Biso   1.000  Zn
  Zn131    1.0000 0.42790  0.87944  0.24899  Biso   1.000  Zn
  Zn132    1.0000 0.39437  0.92958  0.24980  Biso   1.000  Zn
  Zn133    1.0000 0.37313  0.76855  0.11862  Biso   1.000  Zn
  Zn134    1.0000 0.38376  0.70935  0.11224  Biso   1.000  Zn
  Zn135    1.0000 0.42855  0.74644  0.09781  Biso   1.000  Zn
  Zn136    1.0000 0.37974  0.74368  0.06424  Biso   1.000  Zn
  O481     1.0000 0.38302  0.83831  0.24089  Biso   1.000  O
  O482     1.0000 0.37023  0.78185  0.34290  Biso   1.000  O
  O483     1.0000 0.38467  0.74299  0.33466  Biso   1.000  O
  O484     1.0000 0.37604  0.75524  0.15573  Biso   1.000  O
  O485     1.0000 0.39310  0.71670  0.14911  Biso   1.000  O
  O486     1.0000 0.38646  0.66219  0.25271  Biso   1.000  O
  O487     1.0000 0.37960  0.65316  0.21180  Biso   1.000  O
  O488     1.0000 0.40102  0.85969  0.19440  Biso   1.000  O
  O489     1.0000 0.43710  0.86345  0.21654  Biso   1.000  O
  O490     1.0000 0.40207  0.79365  0.12692  Biso   1.000  O
  O491     1.0000 0.43939  0.77680  0.11558  Biso   1.000  O
  O492     1.0000 0.55246  0.78107  0.11475  Biso   1.000  O
  O493     1.0000 0.58122  0.87288  0.18700  Biso   1.000  O
  O494     1.0000 0.55170  0.86070  0.21523  Biso   1.000  O
  O495     1.0000 0.37479  0.90851  0.19694  Biso   1.000  O
  O496     1.0000 0.37793  0.94362  0.22069  Biso   1.000  O
  O497     1.0000 0.27657  0.94078  0.13900  Biso   1.000  O
  O498     1.0000 0.30355  0.90919  0.13026  Biso   1.000  O
  O499     1.0000 0.36438  0.09392  0.19874  Biso   1.000  O
  O500     1.0000 0.37745  0.05812  0.21882  Biso   1.000  O
  O501     1.0000 0.27334  0.05211  0.13746  Biso   1.000  O
  O502     1.0000 0.29439  0.08841  0.13733  Biso   1.000  O
  O503     1.0000 0.40836  0.74330  0.04068  Biso   1.000  O
  O504     1.0000 0.44336  0.74781  0.06346  Biso   1.000  O
  O505     1.0000 0.40782  0.74678  0.95119  Biso   1.000  O
  O506     1.0000 0.44378  0.75155  0.92865  Biso   1.000  O
  O507     1.0000 0.39243  0.74300  0.09821  Biso   1.000  O
  O508     1.0000 0.39401  0.89306  0.24912  Biso   1.000  O
  C897     1.0000 0.37580  0.83172  0.26170  Biso   1.000  C
  C898     1.0000 0.37670  0.80378  0.26830  Biso   1.000  C
  C899     1.0000 0.37580  0.79671  0.29380  Biso   1.000  C
  H337     1.0000 0.37420  0.80930  0.30670  Biso   1.000  H
  C900     1.0000 0.37730  0.77135  0.30026  Biso   1.000  C
  C901     1.0000 0.37780  0.76490  0.32818  Biso   1.000  C
  C902     1.0000 0.37890  0.75301  0.28140  Biso   1.000  C
  H338     1.0000 0.37960  0.73560  0.28600  Biso   1.000  H
  C903     1.0000 0.37880  0.78524  0.24958  Biso   1.000  C
  H339     1.0000 0.37990  0.79020  0.23230  Biso   1.000  H
  C904     1.0000 0.37940  0.75966  0.25573  Biso   1.000  C
  C905     1.0000 0.38050  0.73980  0.23546  Biso   1.000  C
  C906     1.0000 0.38190  0.71433  0.24142  Biso   1.000  C
  H340     1.0000 0.38210  0.70940  0.25880  Biso   1.000  H
  C907     1.0000 0.38070  0.74590  0.20955  Biso   1.000  C
  H341     1.0000 0.37910  0.76320  0.20450  Biso   1.000  H
  C908     1.0000 0.38300  0.72730  0.19107  Biso   1.000  C
  C909     1.0000 0.38340  0.73370  0.16320  Biso   1.000  C
  C910     1.0000 0.38450  0.70260  0.19780  Biso   1.000  C
  H342     1.0000 0.38670  0.68990  0.18510  Biso   1.000  H
  C911     1.0000 0.38300  0.69569  0.22295  Biso   1.000  C
  C912     1.0000 0.38360  0.66802  0.22990  Biso   1.000  C
  C913     1.0000 0.42453  0.85589  0.19782  Biso   1.000  C
  C914     1.0000 0.43866  0.84154  0.17762  Biso   1.000  C
  C915     1.0000 0.42548  0.82584  0.16109  Biso   1.000  C
  H343     1.0000 0.40740  0.82520  0.16140  Biso   1.000  H
  C916     1.0000 0.43927  0.81099  0.14411  Biso   1.000  C
  C917     1.0000 0.42571  0.79229  0.12749  Biso   1.000  C
  C918     1.0000 0.46546  0.81291  0.14289  Biso   1.000  C
  H344     1.0000 0.47460  0.80310  0.13080  Biso   1.000  H
  C919     1.0000 0.46505  0.84303  0.17666  Biso   1.000  C
  H345     1.0000 0.47380  0.85380  0.18820  Biso   1.000  H
  C920     1.0000 0.47850  0.82904  0.15920  Biso   1.000  C
  C921     1.0000 0.50731  0.83082  0.15759  Biso   1.000  C
  C922     1.0000 0.52100  0.81695  0.13979  Biso   1.000  C
  H346     1.0000 0.51220  0.80590  0.12850  Biso   1.000  H
  C923     1.0000 0.54744  0.81887  0.13819  Biso   1.000  C
  O509     1.0000 0.58271  0.81034  0.11170  Biso   1.000  O
  C924     1.0000 0.56039  0.83470  0.15457  Biso   1.000  C
  H347     1.0000 0.57830  0.83680  0.15300  Biso   1.000  H
  C925     1.0000 0.54711  0.84740  0.17320  Biso   1.000  C
  C926     1.0000 0.56120  0.86200  0.19280  Biso   1.000  C
  C927     1.0000 0.52124  0.84530  0.17470  Biso   1.000  C
  H348     1.0000 0.51250  0.85400  0.18790  Biso   1.000  H
  C928     1.0000 0.37050  0.93100  0.20120  Biso   1.000  C
  C929     1.0000 0.35330  0.94510  0.18310  Biso   1.000  C
  C930     1.0000 0.33690  0.93122  0.16780  Biso   1.000  C
  H349     1.0000 0.33810  0.91320  0.16680  Biso   1.000  H
  C931     1.0000 0.31850  0.94433  0.15400  Biso   1.000  C
  C932     1.0000 0.29850  0.93015  0.13950  Biso   1.000  C
  C933     1.0000 0.31790  0.97095  0.15490  Biso   1.000  C
  H350     1.0000 0.30540  0.97970  0.14530  Biso   1.000  H
  C934     1.0000 0.35218  0.97182  0.18380  Biso   1.000  C
  H351     1.0000 0.36350  0.98090  0.19450  Biso   1.000  H
  C935     1.0000 0.33501  0.98495  0.16920  Biso   1.000  C
  C936     1.0000 0.33356  0.01376  0.16970  Biso   1.000  C
  C937     1.0000 0.35022  0.02835  0.18423  Biso   1.000  C
  H352     1.0000 0.36290  0.02000  0.19410  Biso   1.000  H
  C938     1.0000 0.34884  0.05464  0.18472  Biso   1.000  C
  C939     1.0000 0.36515  0.06979  0.20220  Biso   1.000  C
  C940     1.0000 0.33080  0.06715  0.17039  Biso   1.000  C
  H353     1.0000 0.33020  0.08520  0.17000  Biso   1.000  H
  C941     1.0000 0.31338  0.05246  0.15639  Biso   1.000  C
  C942     1.0000 0.29214  0.06586  0.14259  Biso   1.000  C
  C943     1.0000 0.31468  0.02626  0.15650  Biso   1.000  C
  H354     1.0000 0.30240  0.01670  0.14730  Biso   1.000  H
  C944     1.0000 0.43151  0.74630  0.04304  Biso   1.000  C
  C945     1.0000 0.44624  0.74720  0.01866  Biso   1.000  C
  C946     1.0000 0.43314  0.74750  0.99579  Biso   1.000  C
  H355     1.0000 0.41510  0.74660  0.99560  Biso   1.000  H
  C947     1.0000 0.44632  0.74900  0.97357  Biso   1.000  C
  C948     1.0000 0.43162  0.74920  0.94931  Biso   1.000  C
  C949     1.0000 0.47250  0.75000  0.97338  Biso   1.000  C
  H356     1.0000 0.48130  0.75140  0.95770  Biso   1.000  H
  C950     1.0000 0.48598  0.74900  0.99617  Biso   1.000  C
  C951     1.0000 0.47240  0.74840  0.01882  Biso   1.000  C
  H357     1.0000 0.48120  0.74890  0.03460  Biso   1.000  H
  O510     1.0000 0.36707  0.84533  0.27918  Biso   1.000  O
  C952     1.0000 0.56176  0.80220  0.11995  Biso   1.000  C
  Zn137    1.0000 0.87890  0.37599  0.71976  Biso   1.000  Zn
  Zn138    1.0000 0.87437  0.38053  0.77720  Biso   1.000  Zn
  Zn139    1.0000 0.92790  0.37944  0.74899  Biso   1.000  Zn
  Zn140    1.0000 0.89437  0.42958  0.74980  Biso   1.000  Zn
  Zn141    1.0000 0.87313  0.26855  0.61862  Biso   1.000  Zn
  Zn142    1.0000 0.88376  0.20935  0.61224  Biso   1.000  Zn
  Zn143    1.0000 0.92855  0.24644  0.59781  Biso   1.000  Zn
  Zn144    1.0000 0.87974  0.24368  0.56424  Biso   1.000  Zn
  O511     1.0000 0.88302  0.33831  0.74089  Biso   1.000  O
  O512     1.0000 0.87023  0.28185  0.84290  Biso   1.000  O
  O513     1.0000 0.88467  0.24299  0.83466  Biso   1.000  O
  O514     1.0000 0.87604  0.25524  0.65573  Biso   1.000  O
  O515     1.0000 0.89310  0.21670  0.64911  Biso   1.000  O
  O516     1.0000 0.88646  0.16219  0.75271  Biso   1.000  O
  O517     1.0000 0.87960  0.15316  0.71180  Biso   1.000  O
  O518     1.0000 0.90102  0.35969  0.69440  Biso   1.000  O
  O519     1.0000 0.93710  0.36345  0.71654  Biso   1.000  O
  O520     1.0000 0.90207  0.29365  0.62692  Biso   1.000  O
  O521     1.0000 0.93939  0.27680  0.61558  Biso   1.000  O
  O522     1.0000 0.05246  0.28107  0.61475  Biso   1.000  O
  O523     1.0000 0.08122  0.37288  0.68700  Biso   1.000  O
  O524     1.0000 0.05170  0.36070  0.71523  Biso   1.000  O
  O525     1.0000 0.87479  0.40851  0.69694  Biso   1.000  O
  O526     1.0000 0.87793  0.44362  0.72069  Biso   1.000  O
  O527     1.0000 0.77657  0.44078  0.63900  Biso   1.000  O
  O528     1.0000 0.80355  0.40919  0.63026  Biso   1.000  O
  O529     1.0000 0.86438  0.59392  0.69874  Biso   1.000  O
  O530     1.0000 0.87745  0.55812  0.71882  Biso   1.000  O
  O531     1.0000 0.77334  0.55211  0.63746  Biso   1.000  O
  O532     1.0000 0.79439  0.58841  0.63733  Biso   1.000  O
  O533     1.0000 0.90836  0.24330  0.54068  Biso   1.000  O
  O534     1.0000 0.94336  0.24781  0.56346  Biso   1.000  O
  O535     1.0000 0.90782  0.24678  0.45119  Biso   1.000  O
  O536     1.0000 0.94378  0.25155  0.42865  Biso   1.000  O
  O537     1.0000 0.89243  0.24300  0.59821  Biso   1.000  O
  O538     1.0000 0.89401  0.39306  0.74912  Biso   1.000  O
  C953     1.0000 0.87580  0.33172  0.76170  Biso   1.000  C
  C954     1.0000 0.87670  0.30378  0.76830  Biso   1.000  C
  C955     1.0000 0.87580  0.29671  0.79380  Biso   1.000  C
  H358     1.0000 0.87420  0.30930  0.80670  Biso   1.000  H
  C956     1.0000 0.87730  0.27135  0.80026  Biso   1.000  C
  C957     1.0000 0.87780  0.26490  0.82818  Biso   1.000  C
  C958     1.0000 0.87890  0.25301  0.78140  Biso   1.000  C
  H359     1.0000 0.87960  0.23560  0.78600  Biso   1.000  H
  C959     1.0000 0.87880  0.28524  0.74958  Biso   1.000  C
  H360     1.0000 0.87990  0.29020  0.73230  Biso   1.000  H
  C960     1.0000 0.87940  0.25966  0.75573  Biso   1.000  C
  C961     1.0000 0.88050  0.23980  0.73546  Biso   1.000  C
  C962     1.0000 0.88190  0.21433  0.74142  Biso   1.000  C
  H361     1.0000 0.88210  0.20940  0.75880  Biso   1.000  H
  C963     1.0000 0.88070  0.24590  0.70955  Biso   1.000  C
  H362     1.0000 0.87910  0.26320  0.70450  Biso   1.000  H
  C964     1.0000 0.88300  0.22730  0.69107  Biso   1.000  C
  C965     1.0000 0.88340  0.23370  0.66320  Biso   1.000  C
  C966     1.0000 0.88450  0.20260  0.69780  Biso   1.000  C
  H363     1.0000 0.88670  0.18990  0.68510  Biso   1.000  H
  C967     1.0000 0.88300  0.19569  0.72295  Biso   1.000  C
  C968     1.0000 0.88360  0.16802  0.72990  Biso   1.000  C
  C969     1.0000 0.92453  0.35589  0.69782  Biso   1.000  C
  C970     1.0000 0.93866  0.34154  0.67762  Biso   1.000  C
  C971     1.0000 0.92548  0.32584  0.66109  Biso   1.000  C
  H364     1.0000 0.90740  0.32520  0.66140  Biso   1.000  H
  C972     1.0000 0.93927  0.31099  0.64411  Biso   1.000  C
  C973     1.0000 0.92571  0.29229  0.62749  Biso   1.000  C
  C974     1.0000 0.96546  0.31291  0.64289  Biso   1.000  C
  H365     1.0000 0.97460  0.30310  0.63080  Biso   1.000  H
  C975     1.0000 0.96505  0.34303  0.67666  Biso   1.000  C
  H366     1.0000 0.97380  0.35380  0.68820  Biso   1.000  H
  C976     1.0000 0.97850  0.32904  0.65920  Biso   1.000  C
  C977     1.0000 0.00731  0.33082  0.65759  Biso   1.000  C
  C978     1.0000 0.02100  0.31695  0.63979  Biso   1.000  C
  H367     1.0000 0.01220  0.30590  0.62850  Biso   1.000  H
  C979     1.0000 0.04744  0.31887  0.63819  Biso   1.000  C
  O539     1.0000 0.08271  0.31034  0.61170  Biso   1.000  O
  C980     1.0000 0.06039  0.33470  0.65457  Biso   1.000  C
  H368     1.0000 0.07830  0.33680  0.65300  Biso   1.000  H
  C981     1.0000 0.04711  0.34740  0.67320  Biso   1.000  C
  C982     1.0000 0.06120  0.36200  0.69280  Biso   1.000  C
  C983     1.0000 0.02124  0.34530  0.67470  Biso   1.000  C
  H369     1.0000 0.01250  0.35400  0.68790  Biso   1.000  H
  C984     1.0000 0.87050  0.43100  0.70120  Biso   1.000  C
  C985     1.0000 0.85330  0.44510  0.68310  Biso   1.000  C
  C986     1.0000 0.83690  0.43122  0.66780  Biso   1.000  C
  H370     1.0000 0.83810  0.41320  0.66680  Biso   1.000  H
  C987     1.0000 0.81850  0.44433  0.65400  Biso   1.000  C
  C988     1.0000 0.79850  0.43015  0.63950  Biso   1.000  C
  C989     1.0000 0.81790  0.47095  0.65490  Biso   1.000  C
  H371     1.0000 0.80540  0.47970  0.64530  Biso   1.000  H
  C990     1.0000 0.85218  0.47182  0.68380  Biso   1.000  C
  H372     1.0000 0.86350  0.48090  0.69450  Biso   1.000  H
  C991     1.0000 0.83501  0.48495  0.66920  Biso   1.000  C
  C992     1.0000 0.83356  0.51376  0.66970  Biso   1.000  C
  C993     1.0000 0.85022  0.52835  0.68423  Biso   1.000  C
  H373     1.0000 0.86290  0.52000  0.69410  Biso   1.000  H
  C994     1.0000 0.84884  0.55464  0.68472  Biso   1.000  C
  C995     1.0000 0.86515  0.56979  0.70220  Biso   1.000  C
  C996     1.0000 0.83080  0.56715  0.67039  Biso   1.000  C
  H374     1.0000 0.83020  0.58520  0.67000  Biso   1.000  H
  C997     1.0000 0.81338  0.55246  0.65639  Biso   1.000  C
  C998     1.0000 0.79214  0.56586  0.64259  Biso   1.000  C
  C999     1.0000 0.81468  0.52626  0.65650  Biso   1.000  C
  H375     1.0000 0.80240  0.51670  0.64730  Biso   1.000  H
  C1000    1.0000 0.93151  0.24630  0.54304  Biso   1.000  C
  C1001    1.0000 0.94624  0.24720  0.51866  Biso   1.000  C
  C1002    1.0000 0.93314  0.24750  0.49579  Biso   1.000  C
  H376     1.0000 0.91510  0.24660  0.49560  Biso   1.000  H
  C1003    1.0000 0.94632  0.24900  0.47357  Biso   1.000  C
  C1004    1.0000 0.93162  0.24920  0.44931  Biso   1.000  C
  C1005    1.0000 0.97250  0.25000  0.47338  Biso   1.000  C
  H377     1.0000 0.98130  0.25140  0.45770  Biso   1.000  H
  C1006    1.0000 0.98598  0.24900  0.49617  Biso   1.000  C
  C1007    1.0000 0.97240  0.24840  0.51882  Biso   1.000  C
  H378     1.0000 0.98120  0.24890  0.53460  Biso   1.000  H
  O540     1.0000 0.86707  0.34533  0.77918  Biso   1.000  O
  C1008    1.0000 0.06176  0.30220  0.61995  Biso   1.000  C
  Zn145    1.0000 0.62110  0.37599  0.28024  Biso   1.000  Zn
  Zn146    1.0000 0.62563  0.38053  0.22280  Biso   1.000  Zn
  Zn147    1.0000 0.57210  0.37944  0.25101  Biso   1.000  Zn
  Zn148    1.0000 0.60563  0.42958  0.25020  Biso   1.000  Zn
  Zn149    1.0000 0.62687  0.26855  0.38138  Biso   1.000  Zn
  Zn150    1.0000 0.61624  0.20935  0.38776  Biso   1.000  Zn
  Zn151    1.0000 0.57145  0.24644  0.40219  Biso   1.000  Zn
  Zn152    1.0000 0.62026  0.24368  0.43576  Biso   1.000  Zn
  O541     1.0000 0.61698  0.33831  0.25911  Biso   1.000  O
  O542     1.0000 0.62977  0.28185  0.15710  Biso   1.000  O
  O543     1.0000 0.61533  0.24299  0.16534  Biso   1.000  O
  O544     1.0000 0.62396  0.25524  0.34427  Biso   1.000  O
  O545     1.0000 0.60690  0.21670  0.35089  Biso   1.000  O
  O546     1.0000 0.61354  0.16219  0.24729  Biso   1.000  O
  O547     1.0000 0.62040  0.15316  0.28820  Biso   1.000  O
  O548     1.0000 0.59898  0.35969  0.30560  Biso   1.000  O
  O549     1.0000 0.56290  0.36345  0.28346  Biso   1.000  O
  O550     1.0000 0.59793  0.29365  0.37308  Biso   1.000  O
  O551     1.0000 0.56061  0.27680  0.38442  Biso   1.000  O
  O552     1.0000 0.44754  0.28107  0.38525  Biso   1.000  O
  O553     1.0000 0.41878  0.37288  0.31300  Biso   1.000  O
  O554     1.0000 0.44830  0.36070  0.28477  Biso   1.000  O
  O555     1.0000 0.62521  0.40851  0.30306  Biso   1.000  O
  O556     1.0000 0.62207  0.44362  0.27931  Biso   1.000  O
  O557     1.0000 0.72343  0.44078  0.36100  Biso   1.000  O
  O558     1.0000 0.69645  0.40919  0.36974  Biso   1.000  O
  O559     1.0000 0.63562  0.59392  0.30126  Biso   1.000  O
  O560     1.0000 0.62255  0.55812  0.28118  Biso   1.000  O
  O561     1.0000 0.72666  0.55211  0.36254  Biso   1.000  O
  O562     1.0000 0.70561  0.58841  0.36267  Biso   1.000  O
  O563     1.0000 0.59164  0.24330  0.45932  Biso   1.000  O
  O564     1.0000 0.55664  0.24781  0.43654  Biso   1.000  O
  O565     1.0000 0.59218  0.24678  0.54881  Biso   1.000  O
  O566     1.0000 0.55622  0.25155  0.57135  Biso   1.000  O
  O567     1.0000 0.60757  0.24300  0.40179  Biso   1.000  O
  O568     1.0000 0.60599  0.39306  0.25088  Biso   1.000  O
  C1009    1.0000 0.62420  0.33172  0.23830  Biso   1.000  C
  C1010    1.0000 0.62330  0.30378  0.23170  Biso   1.000  C
  C1011    1.0000 0.62420  0.29671  0.20620  Biso   1.000  C
  H379     1.0000 0.62580  0.30930  0.19330  Biso   1.000  H
  C1012    1.0000 0.62270  0.27135  0.19974  Biso   1.000  C
  C1013    1.0000 0.62220  0.26490  0.17182  Biso   1.000  C
  C1014    1.0000 0.62110  0.25301  0.21860  Biso   1.000  C
  H380     1.0000 0.62040  0.23560  0.21400  Biso   1.000  H
  C1015    1.0000 0.62120  0.28524  0.25042  Biso   1.000  C
  H381     1.0000 0.62010  0.29020  0.26770  Biso   1.000  H
  C1016    1.0000 0.62060  0.25966  0.24427  Biso   1.000  C
  C1017    1.0000 0.61950  0.23980  0.26454  Biso   1.000  C
  C1018    1.0000 0.61810  0.21433  0.25858  Biso   1.000  C
  H382     1.0000 0.61790  0.20940  0.24120  Biso   1.000  H
  C1019    1.0000 0.61930  0.24590  0.29045  Biso   1.000  C
  H383     1.0000 0.62090  0.26320  0.29550  Biso   1.000  H
  C1020    1.0000 0.61700  0.22730  0.30893  Biso   1.000  C
  C1021    1.0000 0.61660  0.23370  0.33680  Biso   1.000  C
  C1022    1.0000 0.61550  0.20260  0.30220  Biso   1.000  C
  H384     1.0000 0.61330  0.18990  0.31490  Biso   1.000  H
  C1023    1.0000 0.61700  0.19569  0.27705  Biso   1.000  C
  C1024    1.0000 0.61640  0.16802  0.27010  Biso   1.000  C
  C1025    1.0000 0.57547  0.35589  0.30218  Biso   1.000  C
  C1026    1.0000 0.56134  0.34154  0.32238  Biso   1.000  C
  C1027    1.0000 0.57452  0.32584  0.33891  Biso   1.000  C
  H385     1.0000 0.59260  0.32520  0.33860  Biso   1.000  H
  C1028    1.0000 0.56073  0.31099  0.35589  Biso   1.000  C
  C1029    1.0000 0.57429  0.29229  0.37251  Biso   1.000  C
  C1030    1.0000 0.53454  0.31291  0.35711  Biso   1.000  C
  H386     1.0000 0.52540  0.30310  0.36920  Biso   1.000  H
  C1031    1.0000 0.53495  0.34303  0.32334  Biso   1.000  C
  H387     1.0000 0.52620  0.35380  0.31180  Biso   1.000  H
  C1032    1.0000 0.52150  0.32904  0.34080  Biso   1.000  C
  C1033    1.0000 0.49269  0.33082  0.34241  Biso   1.000  C
  C1034    1.0000 0.47900  0.31695  0.36021  Biso   1.000  C
  H388     1.0000 0.48780  0.30590  0.37150  Biso   1.000  H
  C1035    1.0000 0.45256  0.31887  0.36181  Biso   1.000  C
  O569     1.0000 0.41729  0.31034  0.38830  Biso   1.000  O
  C1036    1.0000 0.43961  0.33470  0.34543  Biso   1.000  C
  H389     1.0000 0.42170  0.33680  0.34700  Biso   1.000  H
  C1037    1.0000 0.45289  0.34740  0.32680  Biso   1.000  C
  C1038    1.0000 0.43880  0.36200  0.30720  Biso   1.000  C
  C1039    1.0000 0.47876  0.34530  0.32530  Biso   1.000  C
  H390     1.0000 0.48750  0.35400  0.31210  Biso   1.000  H
  C1040    1.0000 0.62950  0.43100  0.29880  Biso   1.000  C
  C1041    1.0000 0.64670  0.44510  0.31690  Biso   1.000  C
  C1042    1.0000 0.66310  0.43122  0.33220  Biso   1.000  C
  H391     1.0000 0.66190  0.41320  0.33320  Biso   1.000  H
  C1043    1.0000 0.68150  0.44433  0.34600  Biso   1.000  C
  C1044    1.0000 0.70150  0.43015  0.36050  Biso   1.000  C
  C1045    1.0000 0.68210  0.47095  0.34510  Biso   1.000  C
  H392     1.0000 0.69460  0.47970  0.35470  Biso   1.000  H
  C1046    1.0000 0.64782  0.47182  0.31620  Biso   1.000  C
  H393     1.0000 0.63650  0.48090  0.30550  Biso   1.000  H
  C1047    1.0000 0.66499  0.48495  0.33080  Biso   1.000  C
  C1048    1.0000 0.66644  0.51376  0.33030  Biso   1.000  C
  C1049    1.0000 0.64978  0.52835  0.31577  Biso   1.000  C
  H394     1.0000 0.63710  0.52000  0.30590  Biso   1.000  H
  C1050    1.0000 0.65116  0.55464  0.31528  Biso   1.000  C
  C1051    1.0000 0.63485  0.56979  0.29780  Biso   1.000  C
  C1052    1.0000 0.66920  0.56715  0.32961  Biso   1.000  C
  H395     1.0000 0.66980  0.58520  0.33000  Biso   1.000  H
  C1053    1.0000 0.68662  0.55246  0.34361  Biso   1.000  C
  C1054    1.0000 0.70786  0.56586  0.35741  Biso   1.000  C
  C1055    1.0000 0.68532  0.52626  0.34350  Biso   1.000  C
  H396     1.0000 0.69760  0.51670  0.35270  Biso   1.000  H
  C1056    1.0000 0.56849  0.24630  0.45696  Biso   1.000  C
  C1057    1.0000 0.55376  0.24720  0.48134  Biso   1.000  C
  C1058    1.0000 0.56686  0.24750  0.50421  Biso   1.000  C
  H397     1.0000 0.58490  0.24660  0.50440  Biso   1.000  H
  C1059    1.0000 0.55368  0.24900  0.52643  Biso   1.000  C
  C1060    1.0000 0.56838  0.24920  0.55069  Biso   1.000  C
  C1061    1.0000 0.52750  0.25000  0.52662  Biso   1.000  C
  H398     1.0000 0.51870  0.25140  0.54230  Biso   1.000  H
  C1062    1.0000 0.51402  0.24900  0.50383  Biso   1.000  C
  C1063    1.0000 0.52760  0.24840  0.48118  Biso   1.000  C
  H399     1.0000 0.51880  0.24890  0.46540  Biso   1.000  H
  O570     1.0000 0.63293  0.34533  0.22082  Biso   1.000  O
  C1064    1.0000 0.43824  0.30220  0.38005  Biso   1.000  C
  Zn153    1.0000 0.12110  0.87599  0.78024  Biso   1.000  Zn
  Zn154    1.0000 0.12563  0.88053  0.72280  Biso   1.000  Zn
  Zn155    1.0000 0.07210  0.87944  0.75101  Biso   1.000  Zn
  Zn156    1.0000 0.10563  0.92958  0.75020  Biso   1.000  Zn
  Zn157    1.0000 0.12687  0.76855  0.88138  Biso   1.000  Zn
  Zn158    1.0000 0.11624  0.70935  0.88776  Biso   1.000  Zn
  Zn159    1.0000 0.07145  0.74644  0.90219  Biso   1.000  Zn
  Zn160    1.0000 0.12026  0.74368  0.93576  Biso   1.000  Zn
  O571     1.0000 0.11698  0.83831  0.75911  Biso   1.000  O
  O572     1.0000 0.12977  0.78185  0.65710  Biso   1.000  O
  O573     1.0000 0.11533  0.74299  0.66534  Biso   1.000  O
  O574     1.0000 0.12396  0.75524  0.84427  Biso   1.000  O
  O575     1.0000 0.10690  0.71670  0.85089  Biso   1.000  O
  O576     1.0000 0.11354  0.66219  0.74729  Biso   1.000  O
  O577     1.0000 0.12040  0.65316  0.78820  Biso   1.000  O
  O578     1.0000 0.09898  0.85969  0.80560  Biso   1.000  O
  O579     1.0000 0.06290  0.86345  0.78346  Biso   1.000  O
  O580     1.0000 0.09793  0.79365  0.87308  Biso   1.000  O
  O581     1.0000 0.06061  0.77680  0.88442  Biso   1.000  O
  O582     1.0000 0.94754  0.78107  0.88525  Biso   1.000  O
  O583     1.0000 0.91878  0.87288  0.81300  Biso   1.000  O
  O584     1.0000 0.94830  0.86070  0.78477  Biso   1.000  O
  O585     1.0000 0.12521  0.90851  0.80306  Biso   1.000  O
  O586     1.0000 0.12207  0.94362  0.77931  Biso   1.000  O
  O587     1.0000 0.22343  0.94078  0.86100  Biso   1.000  O
  O588     1.0000 0.19645  0.90919  0.86974  Biso   1.000  O
  O589     1.0000 0.13562  0.09392  0.80126  Biso   1.000  O
  O590     1.0000 0.12255  0.05812  0.78118  Biso   1.000  O
  O591     1.0000 0.22666  0.05211  0.86254  Biso   1.000  O
  O592     1.0000 0.20561  0.08841  0.86267  Biso   1.000  O
  O593     1.0000 0.09164  0.74330  0.95932  Biso   1.000  O
  O594     1.0000 0.05664  0.74781  0.93654  Biso   1.000  O
  O595     1.0000 0.09218  0.74678  0.04881  Biso   1.000  O
  O596     1.0000 0.05622  0.75155  0.07135  Biso   1.000  O
  O597     1.0000 0.10757  0.74300  0.90179  Biso   1.000  O
  O598     1.0000 0.10599  0.89306  0.75088  Biso   1.000  O
  C1065    1.0000 0.12420  0.83172  0.73830  Biso   1.000  C
  C1066    1.0000 0.12330  0.80378  0.73170  Biso   1.000  C
  C1067    1.0000 0.12420  0.79671  0.70620  Biso   1.000  C
  H400     1.0000 0.12580  0.80930  0.69330  Biso   1.000  H
  C1068    1.0000 0.12270  0.77135  0.69974  Biso   1.000  C
  C1069    1.0000 0.12220  0.76490  0.67182  Biso   1.000  C
  C1070    1.0000 0.12110  0.75301  0.71860  Biso   1.000  C
  H401     1.0000 0.12040  0.73560  0.71400  Biso   1.000  H
  C1071    1.0000 0.12120  0.78524  0.75042  Biso   1.000  C
  H402     1.0000 0.12010  0.79020  0.76770  Biso   1.000  H
  C1072    1.0000 0.12060  0.75966  0.74427  Biso   1.000  C
  C1073    1.0000 0.11950  0.73980  0.76454  Biso   1.000  C
  C1074    1.0000 0.11810  0.71433  0.75858  Biso   1.000  C
  H403     1.0000 0.11790  0.70940  0.74120  Biso   1.000  H
  C1075    1.0000 0.11930  0.74590  0.79045  Biso   1.000  C
  H404     1.0000 0.12090  0.76320  0.79550  Biso   1.000  H
  C1076    1.0000 0.11700  0.72730  0.80893  Biso   1.000  C
  C1077    1.0000 0.11660  0.73370  0.83680  Biso   1.000  C
  C1078    1.0000 0.11550  0.70260  0.80220  Biso   1.000  C
  H405     1.0000 0.11330  0.68990  0.81490  Biso   1.000  H
  C1079    1.0000 0.11700  0.69569  0.77705  Biso   1.000  C
  C1080    1.0000 0.11640  0.66802  0.77010  Biso   1.000  C
  C1081    1.0000 0.07547  0.85589  0.80218  Biso   1.000  C
  C1082    1.0000 0.06134  0.84154  0.82238  Biso   1.000  C
  C1083    1.0000 0.07452  0.82584  0.83891  Biso   1.000  C
  H406     1.0000 0.09260  0.82520  0.83860  Biso   1.000  H
  C1084    1.0000 0.06073  0.81099  0.85589  Biso   1.000  C
  C1085    1.0000 0.07429  0.79229  0.87251  Biso   1.000  C
  C1086    1.0000 0.03454  0.81291  0.85711  Biso   1.000  C
  H407     1.0000 0.02540  0.80310  0.86920  Biso   1.000  H
  C1087    1.0000 0.03495  0.84303  0.82334  Biso   1.000  C
  H408     1.0000 0.02620  0.85380  0.81180  Biso   1.000  H
  C1088    1.0000 0.02150  0.82904  0.84080  Biso   1.000  C
  C1089    1.0000 0.99269  0.83082  0.84241  Biso   1.000  C
  C1090    1.0000 0.97900  0.81695  0.86021  Biso   1.000  C
  H409     1.0000 0.98780  0.80590  0.87150  Biso   1.000  H
  C1091    1.0000 0.95256  0.81887  0.86181  Biso   1.000  C
  O599     1.0000 0.91729  0.81034  0.88830  Biso   1.000  O
  C1092    1.0000 0.93961  0.83470  0.84543  Biso   1.000  C
  H410     1.0000 0.92170  0.83680  0.84700  Biso   1.000  H
  C1093    1.0000 0.95289  0.84740  0.82680  Biso   1.000  C
  C1094    1.0000 0.93880  0.86200  0.80720  Biso   1.000  C
  C1095    1.0000 0.97876  0.84530  0.82530  Biso   1.000  C
  H411     1.0000 0.98750  0.85400  0.81210  Biso   1.000  H
  C1096    1.0000 0.12950  0.93100  0.79880  Biso   1.000  C
  C1097    1.0000 0.14670  0.94510  0.81690  Biso   1.000  C
  C1098    1.0000 0.16310  0.93122  0.83220  Biso   1.000  C
  H412     1.0000 0.16190  0.91320  0.83320  Biso   1.000  H
  C1099    1.0000 0.18150  0.94433  0.84600  Biso   1.000  C
  C1100    1.0000 0.20150  0.93015  0.86050  Biso   1.000  C
  C1101    1.0000 0.18210  0.97095  0.84510  Biso   1.000  C
  H413     1.0000 0.19460  0.97970  0.85470  Biso   1.000  H
  C1102    1.0000 0.14782  0.97182  0.81620  Biso   1.000  C
  H414     1.0000 0.13650  0.98090  0.80550  Biso   1.000  H
  C1103    1.0000 0.16499  0.98495  0.83080  Biso   1.000  C
  C1104    1.0000 0.16644  0.01376  0.83030  Biso   1.000  C
  C1105    1.0000 0.14978  0.02835  0.81577  Biso   1.000  C
  H415     1.0000 0.13710  0.02000  0.80590  Biso   1.000  H
  C1106    1.0000 0.15116  0.05464  0.81528  Biso   1.000  C
  C1107    1.0000 0.13485  0.06979  0.79780  Biso   1.000  C
  C1108    1.0000 0.16920  0.06715  0.82961  Biso   1.000  C
  H416     1.0000 0.16980  0.08520  0.83000  Biso   1.000  H
  C1109    1.0000 0.18662  0.05246  0.84361  Biso   1.000  C
  C1110    1.0000 0.20786  0.06586  0.85741  Biso   1.000  C
  C1111    1.0000 0.18532  0.02626  0.84350  Biso   1.000  C
  H417     1.0000 0.19760  0.01670  0.85270  Biso   1.000  H
  C1112    1.0000 0.06849  0.74630  0.95696  Biso   1.000  C
  C1113    1.0000 0.05376  0.74720  0.98134  Biso   1.000  C
  C1114    1.0000 0.06686  0.74750  0.00421  Biso   1.000  C
  H418     1.0000 0.08490  0.74660  0.00440  Biso   1.000  H
  C1115    1.0000 0.05368  0.74900  0.02643  Biso   1.000  C
  C1116    1.0000 0.06838  0.74920  0.05069  Biso   1.000  C
  C1117    1.0000 0.02750  0.75000  0.02662  Biso   1.000  C
  H419     1.0000 0.01870  0.75140  0.04230  Biso   1.000  H
  C1118    1.0000 0.01402  0.74900  0.00383  Biso   1.000  C
  C1119    1.0000 0.02760  0.74840  0.98118  Biso   1.000  C
  H420     1.0000 0.01880  0.74890  0.96540  Biso   1.000  H
  O600     1.0000 0.13293  0.84533  0.72082  Biso   1.000  O
  C1120    1.0000 0.93824  0.80220  0.88005  Biso   1.000  C
  Zn161    1.0000 0.87890  0.62401  0.78024  Biso   1.000  Zn
  Zn162    1.0000 0.87437  0.61947  0.72280  Biso   1.000  Zn
  Zn163    1.0000 0.92790  0.62056  0.75101  Biso   1.000  Zn
  Zn164    1.0000 0.89437  0.57042  0.75020  Biso   1.000  Zn
  Zn165    1.0000 0.87313  0.73145  0.88138  Biso   1.000  Zn
  Zn166    1.0000 0.88376  0.79065  0.88776  Biso   1.000  Zn
  Zn167    1.0000 0.92855  0.75356  0.90219  Biso   1.000  Zn
  Zn168    1.0000 0.87974  0.75632  0.93576  Biso   1.000  Zn
  O601     1.0000 0.88302  0.66169  0.75911  Biso   1.000  O
  O602     1.0000 0.87023  0.71815  0.65710  Biso   1.000  O
  O603     1.0000 0.88467  0.75701  0.66534  Biso   1.000  O
  O604     1.0000 0.87604  0.74476  0.84427  Biso   1.000  O
  O605     1.0000 0.89310  0.78330  0.85089  Biso   1.000  O
  O606     1.0000 0.88646  0.83781  0.74729  Biso   1.000  O
  O607     1.0000 0.87960  0.84684  0.78820  Biso   1.000  O
  O608     1.0000 0.90102  0.64031  0.80560  Biso   1.000  O
  O609     1.0000 0.93710  0.63655  0.78346  Biso   1.000  O
  O610     1.0000 0.90207  0.70635  0.87308  Biso   1.000  O
  O611     1.0000 0.93939  0.72320  0.88442  Biso   1.000  O
  O612     1.0000 0.05246  0.71893  0.88525  Biso   1.000  O
  O613     1.0000 0.08122  0.62712  0.81300  Biso   1.000  O
  O614     1.0000 0.05170  0.63930  0.78477  Biso   1.000  O
  O615     1.0000 0.87479  0.59149  0.80306  Biso   1.000  O
  O616     1.0000 0.87793  0.55638  0.77931  Biso   1.000  O
  O617     1.0000 0.77657  0.55922  0.86100  Biso   1.000  O
  O618     1.0000 0.80355  0.59081  0.86974  Biso   1.000  O
  O619     1.0000 0.86438  0.40608  0.80126  Biso   1.000  O
  O620     1.0000 0.87745  0.44188  0.78118  Biso   1.000  O
  O621     1.0000 0.77334  0.44789  0.86254  Biso   1.000  O
  O622     1.0000 0.79439  0.41159  0.86267  Biso   1.000  O
  O623     1.0000 0.90836  0.75670  0.95932  Biso   1.000  O
  O624     1.0000 0.94336  0.75219  0.93654  Biso   1.000  O
  O625     1.0000 0.90782  0.75322  0.04881  Biso   1.000  O
  O626     1.0000 0.94378  0.74845  0.07135  Biso   1.000  O
  O627     1.0000 0.89243  0.75700  0.90179  Biso   1.000  O
  O628     1.0000 0.89401  0.60694  0.75088  Biso   1.000  O
  C1121    1.0000 0.87580  0.66828  0.73830  Biso   1.000  C
  C1122    1.0000 0.87670  0.69622  0.73170  Biso   1.000  C
  C1123    1.0000 0.87580  0.70329  0.70620  Biso   1.000  C
  H421     1.0000 0.87420  0.69070  0.69330  Biso   1.000  H
  C1124    1.0000 0.87730  0.72865  0.69974  Biso   1.000  C
  C1125    1.0000 0.87780  0.73510  0.67182  Biso   1.000  C
  C1126    1.0000 0.87890  0.74699  0.71860  Biso   1.000  C
  H422     1.0000 0.87960  0.76440  0.71400  Biso   1.000  H
  C1127    1.0000 0.87880  0.71476  0.75042  Biso   1.000  C
  H423     1.0000 0.87990  0.70980  0.76770  Biso   1.000  H
  C1128    1.0000 0.87940  0.74034  0.74427  Biso   1.000  C
  C1129    1.0000 0.88050  0.76020  0.76454  Biso   1.000  C
  C1130    1.0000 0.88190  0.78567  0.75858  Biso   1.000  C
  H424     1.0000 0.88210  0.79060  0.74120  Biso   1.000  H
  C1131    1.0000 0.88070  0.75410  0.79045  Biso   1.000  C
  H425     1.0000 0.87910  0.73680  0.79550  Biso   1.000  H
  C1132    1.0000 0.88300  0.77270  0.80893  Biso   1.000  C
  C1133    1.0000 0.88340  0.76630  0.83680  Biso   1.000  C
  C1134    1.0000 0.88450  0.79740  0.80220  Biso   1.000  C
  H426     1.0000 0.88670  0.81010  0.81490  Biso   1.000  H
  C1135    1.0000 0.88300  0.80431  0.77705  Biso   1.000  C
  C1136    1.0000 0.88360  0.83198  0.77010  Biso   1.000  C
  C1137    1.0000 0.92453  0.64411  0.80218  Biso   1.000  C
  C1138    1.0000 0.93866  0.65846  0.82238  Biso   1.000  C
  C1139    1.0000 0.92548  0.67416  0.83891  Biso   1.000  C
  H427     1.0000 0.90740  0.67480  0.83860  Biso   1.000  H
  C1140    1.0000 0.93927  0.68901  0.85589  Biso   1.000  C
  C1141    1.0000 0.92571  0.70771  0.87251  Biso   1.000  C
  C1142    1.0000 0.96546  0.68709  0.85711  Biso   1.000  C
  H428     1.0000 0.97460  0.69690  0.86920  Biso   1.000  H
  C1143    1.0000 0.96505  0.65697  0.82334  Biso   1.000  C
  H429     1.0000 0.97380  0.64620  0.81180  Biso   1.000  H
  C1144    1.0000 0.97850  0.67096  0.84080  Biso   1.000  C
  C1145    1.0000 0.00731  0.66918  0.84241  Biso   1.000  C
  C1146    1.0000 0.02100  0.68305  0.86021  Biso   1.000  C
  H430     1.0000 0.01220  0.69410  0.87150  Biso   1.000  H
  C1147    1.0000 0.04744  0.68113  0.86181  Biso   1.000  C
  O629     1.0000 0.08271  0.68966  0.88830  Biso   1.000  O
  C1148    1.0000 0.06039  0.66530  0.84543  Biso   1.000  C
  H431     1.0000 0.07830  0.66320  0.84700  Biso   1.000  H
  C1149    1.0000 0.04711  0.65260  0.82680  Biso   1.000  C
  C1150    1.0000 0.06120  0.63800  0.80720  Biso   1.000  C
  C1151    1.0000 0.02124  0.65470  0.82530  Biso   1.000  C
  H432     1.0000 0.01250  0.64600  0.81210  Biso   1.000  H
  C1152    1.0000 0.87050  0.56900  0.79880  Biso   1.000  C
  C1153    1.0000 0.85330  0.55490  0.81690  Biso   1.000  C
  C1154    1.0000 0.83690  0.56878  0.83220  Biso   1.000  C
  H433     1.0000 0.83810  0.58680  0.83320  Biso   1.000  H
  C1155    1.0000 0.81850  0.55567  0.84600  Biso   1.000  C
  C1156    1.0000 0.79850  0.56985  0.86050  Biso   1.000  C
  C1157    1.0000 0.81790  0.52905  0.84510  Biso   1.000  C
  H434     1.0000 0.80540  0.52030  0.85470  Biso   1.000  H
  C1158    1.0000 0.85218  0.52818  0.81620  Biso   1.000  C
  H435     1.0000 0.86350  0.51910  0.80550  Biso   1.000  H
  C1159    1.0000 0.83501  0.51505  0.83080  Biso   1.000  C
  C1160    1.0000 0.83356  0.48624  0.83030  Biso   1.000  C
  C1161    1.0000 0.85022  0.47165  0.81577  Biso   1.000  C
  H436     1.0000 0.86290  0.48000  0.80590  Biso   1.000  H
  C1162    1.0000 0.84884  0.44536  0.81528  Biso   1.000  C
  C1163    1.0000 0.86515  0.43021  0.79780  Biso   1.000  C
  C1164    1.0000 0.83080  0.43285  0.82961  Biso   1.000  C
  H437     1.0000 0.83020  0.41480  0.83000  Biso   1.000  H
  C1165    1.0000 0.81338  0.44754  0.84361  Biso   1.000  C
  C1166    1.0000 0.79214  0.43414  0.85741  Biso   1.000  C
  C1167    1.0000 0.81468  0.47374  0.84350  Biso   1.000  C
  H438     1.0000 0.80240  0.48330  0.85270  Biso   1.000  H
  C1168    1.0000 0.93151  0.75370  0.95696  Biso   1.000  C
  C1169    1.0000 0.94624  0.75280  0.98134  Biso   1.000  C
  C1170    1.0000 0.93314  0.75250  0.00421  Biso   1.000  C
  H439     1.0000 0.91510  0.75340  0.00440  Biso   1.000  H
  C1171    1.0000 0.94632  0.75100  0.02643  Biso   1.000  C
  C1172    1.0000 0.93162  0.75080  0.05069  Biso   1.000  C
  C1173    1.0000 0.97250  0.75000  0.02662  Biso   1.000  C
  H440     1.0000 0.98130  0.74860  0.04230  Biso   1.000  H
  C1174    1.0000 0.98598  0.75100  0.00383  Biso   1.000  C
  C1175    1.0000 0.97240  0.75160  0.98118  Biso   1.000  C
  H441     1.0000 0.98120  0.75110  0.96540  Biso   1.000  H
  O630     1.0000 0.86707  0.65467  0.72082  Biso   1.000  O
  C1176    1.0000 0.06176  0.69780  0.88005  Biso   1.000  C
  Zn169    1.0000 0.37890  0.12401  0.28024  Biso   1.000  Zn
  Zn170    1.0000 0.37437  0.11947  0.22280  Biso   1.000  Zn
  Zn171    1.0000 0.42790  0.12056  0.25101  Biso   1.000  Zn
  Zn172    1.0000 0.39437  0.07042  0.25020  Biso   1.000  Zn
  Zn173    1.0000 0.37313  0.23145  0.38138  Biso   1.000  Zn
  Zn174    1.0000 0.38376  0.29065  0.38776  Biso   1.000  Zn
  Zn175    1.0000 0.42855  0.25356  0.40219  Biso   1.000  Zn
  Zn176    1.0000 0.37974  0.25632  0.43576  Biso   1.000  Zn
  O631     1.0000 0.38302  0.16169  0.25911  Biso   1.000  O
  O632     1.0000 0.37023  0.21815  0.15710  Biso   1.000  O
  O633     1.0000 0.38467  0.25701  0.16534  Biso   1.000  O
  O634     1.0000 0.37604  0.24476  0.34427  Biso   1.000  O
  O635     1.0000 0.39310  0.28330  0.35089  Biso   1.000  O
  O636     1.0000 0.38646  0.33781  0.24729  Biso   1.000  O
  O637     1.0000 0.37960  0.34684  0.28820  Biso   1.000  O
  O638     1.0000 0.40102  0.14031  0.30560  Biso   1.000  O
  O639     1.0000 0.43710  0.13655  0.28346  Biso   1.000  O
  O640     1.0000 0.40207  0.20635  0.37308  Biso   1.000  O
  O641     1.0000 0.43939  0.22320  0.38442  Biso   1.000  O
  O642     1.0000 0.55246  0.21893  0.38525  Biso   1.000  O
  O643     1.0000 0.58122  0.12712  0.31300  Biso   1.000  O
  O644     1.0000 0.55170  0.13930  0.28477  Biso   1.000  O
  O645     1.0000 0.37479  0.09149  0.30306  Biso   1.000  O
  O646     1.0000 0.37793  0.05638  0.27931  Biso   1.000  O
  O647     1.0000 0.27657  0.05922  0.36100  Biso   1.000  O
  O648     1.0000 0.30355  0.09081  0.36974  Biso   1.000  O
  O649     1.0000 0.36438  0.90608  0.30126  Biso   1.000  O
  O650     1.0000 0.37745  0.94188  0.28118  Biso   1.000  O
  O651     1.0000 0.27334  0.94789  0.36254  Biso   1.000  O
  O652     1.0000 0.29439  0.91159  0.36267  Biso   1.000  O
  O653     1.0000 0.40836  0.25670  0.45932  Biso   1.000  O
  O654     1.0000 0.44336  0.25219  0.43654  Biso   1.000  O
  O655     1.0000 0.40782  0.25322  0.54881  Biso   1.000  O
  O656     1.0000 0.44378  0.24845  0.57135  Biso   1.000  O
  O657     1.0000 0.39243  0.25700  0.40179  Biso   1.000  O
  O658     1.0000 0.39401  0.10694  0.25088  Biso   1.000  O
  C1177    1.0000 0.37580  0.16828  0.23830  Biso   1.000  C
  C1178    1.0000 0.37670  0.19622  0.23170  Biso   1.000  C
  C1179    1.0000 0.37580  0.20329  0.20620  Biso   1.000  C
  H442     1.0000 0.37420  0.19070  0.19330  Biso   1.000  H
  C1180    1.0000 0.37730  0.22865  0.19974  Biso   1.000  C
  C1181    1.0000 0.37780  0.23510  0.17182  Biso   1.000  C
  C1182    1.0000 0.37890  0.24699  0.21860  Biso   1.000  C
  H443     1.0000 0.37960  0.26440  0.21400  Biso   1.000  H
  C1183    1.0000 0.37880  0.21476  0.25042  Biso   1.000  C
  H444     1.0000 0.37990  0.20980  0.26770  Biso   1.000  H
  C1184    1.0000 0.37940  0.24034  0.24427  Biso   1.000  C
  C1185    1.0000 0.38050  0.26020  0.26454  Biso   1.000  C
  C1186    1.0000 0.38190  0.28567  0.25858  Biso   1.000  C
  H445     1.0000 0.38210  0.29060  0.24120  Biso   1.000  H
  C1187    1.0000 0.38070  0.25410  0.29045  Biso   1.000  C
  H446     1.0000 0.37910  0.23680  0.29550  Biso   1.000  H
  C1188    1.0000 0.38300  0.27270  0.30893  Biso   1.000  C
  C1189    1.0000 0.38340  0.26630  0.33680  Biso   1.000  C
  C1190    1.0000 0.38450  0.29740  0.30220  Biso   1.000  C
  H447     1.0000 0.38670  0.31010  0.31490  Biso   1.000  H
  C1191    1.0000 0.38300  0.30431  0.27705  Biso   1.000  C
  C1192    1.0000 0.38360  0.33198  0.27010  Biso   1.000  C
  C1193    1.0000 0.42453  0.14411  0.30218  Biso   1.000  C
  C1194    1.0000 0.43866  0.15846  0.32238  Biso   1.000  C
  C1195    1.0000 0.42548  0.17416  0.33891  Biso   1.000  C
  H448     1.0000 0.40740  0.17480  0.33860  Biso   1.000  H
  C1196    1.0000 0.43927  0.18901  0.35589  Biso   1.000  C
  C1197    1.0000 0.42571  0.20771  0.37251  Biso   1.000  C
  C1198    1.0000 0.46546  0.18709  0.35711  Biso   1.000  C
  H449     1.0000 0.47460  0.19690  0.36920  Biso   1.000  H
  C1199    1.0000 0.46505  0.15697  0.32334  Biso   1.000  C
  H450     1.0000 0.47380  0.14620  0.31180  Biso   1.000  H
  C1200    1.0000 0.47850  0.17096  0.34080  Biso   1.000  C
  C1201    1.0000 0.50731  0.16918  0.34241  Biso   1.000  C
  C1202    1.0000 0.52100  0.18305  0.36021  Biso   1.000  C
  H451     1.0000 0.51220  0.19410  0.37150  Biso   1.000  H
  C1203    1.0000 0.54744  0.18113  0.36181  Biso   1.000  C
  O659     1.0000 0.58271  0.18966  0.38830  Biso   1.000  O
  C1204    1.0000 0.56039  0.16530  0.34543  Biso   1.000  C
  H452     1.0000 0.57830  0.16320  0.34700  Biso   1.000  H
  C1205    1.0000 0.54711  0.15260  0.32680  Biso   1.000  C
  C1206    1.0000 0.56120  0.13800  0.30720  Biso   1.000  C
  C1207    1.0000 0.52124  0.15470  0.32530  Biso   1.000  C
  H453     1.0000 0.51250  0.14600  0.31210  Biso   1.000  H
  C1208    1.0000 0.37050  0.06900  0.29880  Biso   1.000  C
  C1209    1.0000 0.35330  0.05490  0.31690  Biso   1.000  C
  C1210    1.0000 0.33690  0.06878  0.33220  Biso   1.000  C
  H454     1.0000 0.33810  0.08680  0.33320  Biso   1.000  H
  C1211    1.0000 0.31850  0.05567  0.34600  Biso   1.000  C
  C1212    1.0000 0.29850  0.06985  0.36050  Biso   1.000  C
  C1213    1.0000 0.31790  0.02905  0.34510  Biso   1.000  C
  H455     1.0000 0.30540  0.02030  0.35470  Biso   1.000  H
  C1214    1.0000 0.35218  0.02818  0.31620  Biso   1.000  C
  H456     1.0000 0.36350  0.01910  0.30550  Biso   1.000  H
  C1215    1.0000 0.33501  0.01505  0.33080  Biso   1.000  C
  C1216    1.0000 0.33356  0.98624  0.33030  Biso   1.000  C
  C1217    1.0000 0.35022  0.97165  0.31577  Biso   1.000  C
  H457     1.0000 0.36290  0.98000  0.30590  Biso   1.000  H
  C1218    1.0000 0.34884  0.94536  0.31528  Biso   1.000  C
  C1219    1.0000 0.36515  0.93021  0.29780  Biso   1.000  C
  C1220    1.0000 0.33080  0.93285  0.32961  Biso   1.000  C
  H458     1.0000 0.33020  0.91480  0.33000  Biso   1.000  H
  C1221    1.0000 0.31338  0.94754  0.34361  Biso   1.000  C
  C1222    1.0000 0.29214  0.93414  0.35741  Biso   1.000  C
  C1223    1.0000 0.31468  0.97374  0.34350  Biso   1.000  C
  H459     1.0000 0.30240  0.98330  0.35270  Biso   1.000  H
  C1224    1.0000 0.43151  0.25370  0.45696  Biso   1.000  C
  C1225    1.0000 0.44624  0.25280  0.48134  Biso   1.000  C
  C1226    1.0000 0.43314  0.25250  0.50421  Biso   1.000  C
  H460     1.0000 0.41510  0.25340  0.50440  Biso   1.000  H
  C1227    1.0000 0.44632  0.25100  0.52643  Biso   1.000  C
  C1228    1.0000 0.43162  0.25080  0.55069  Biso   1.000  C
  C1229    1.0000 0.47250  0.25000  0.52662  Biso   1.000  C
  H461     1.0000 0.48130  0.24860  0.54230  Biso   1.000  H
  C1230    1.0000 0.48598  0.25100  0.50383  Biso   1.000  C
  C1231    1.0000 0.47240  0.25160  0.48118  Biso   1.000  C
  H462     1.0000 0.48120  0.25110  0.46540  Biso   1.000  H
  O660     1.0000 0.36707  0.15467  0.22082  Biso   1.000  O
  C1232    1.0000 0.56176  0.19780  0.38005  Biso   1.000  C
  Zn177    1.0000 0.12110  0.12401  0.71976  Biso   1.000  Zn
  Zn178    1.0000 0.12563  0.11947  0.77720  Biso   1.000  Zn
  Zn179    1.0000 0.07210  0.12056  0.74899  Biso   1.000  Zn
  Zn180    1.0000 0.10563  0.07042  0.74980  Biso   1.000  Zn
  Zn181    1.0000 0.12687  0.23145  0.61862  Biso   1.000  Zn
  Zn182    1.0000 0.11624  0.29065  0.61224  Biso   1.000  Zn
  Zn183    1.0000 0.07145  0.25356  0.59781  Biso   1.000  Zn
  Zn184    1.0000 0.12026  0.25632  0.56424  Biso   1.000  Zn
  O661     1.0000 0.11698  0.16169  0.74089  Biso   1.000  O
  O662     1.0000 0.12977  0.21815  0.84290  Biso   1.000  O
  O663     1.0000 0.11533  0.25701  0.83466  Biso   1.000  O
  O664     1.0000 0.12396  0.24476  0.65573  Biso   1.000  O
  O665     1.0000 0.10690  0.28330  0.64911  Biso   1.000  O
  O666     1.0000 0.11354  0.33781  0.75271  Biso   1.000  O
  O667     1.0000 0.12040  0.34684  0.71180  Biso   1.000  O
  O668     1.0000 0.09898  0.14031  0.69440  Biso   1.000  O
  O669     1.0000 0.06290  0.13655  0.71654  Biso   1.000  O
  O670     1.0000 0.09793  0.20635  0.62692  Biso   1.000  O
  O671     1.0000 0.06061  0.22320  0.61558  Biso   1.000  O
  O672     1.0000 0.94754  0.21893  0.61475  Biso   1.000  O
  O673     1.0000 0.91878  0.12712  0.68700  Biso   1.000  O
  O674     1.0000 0.94830  0.13930  0.71523  Biso   1.000  O
  O675     1.0000 0.12521  0.09149  0.69694  Biso   1.000  O
  O676     1.0000 0.12207  0.05638  0.72069  Biso   1.000  O
  O677     1.0000 0.22343  0.05922  0.63900  Biso   1.000  O
  O678     1.0000 0.19645  0.09081  0.63026  Biso   1.000  O
  O679     1.0000 0.13562  0.90608  0.69874  Biso   1.000  O
  O680     1.0000 0.12255  0.94188  0.71882  Biso   1.000  O
  O681     1.0000 0.22666  0.94789  0.63746  Biso   1.000  O
  O682     1.0000 0.20561  0.91159  0.63733  Biso   1.000  O
  O683     1.0000 0.09164  0.25670  0.54068  Biso   1.000  O
  O684     1.0000 0.05664  0.25219  0.56346  Biso   1.000  O
  O685     1.0000 0.09218  0.25322  0.45119  Biso   1.000  O
  O686     1.0000 0.05622  0.24845  0.42865  Biso   1.000  O
  O687     1.0000 0.10757  0.25700  0.59821  Biso   1.000  O
  O688     1.0000 0.10599  0.10694  0.74912  Biso   1.000  O
  C1233    1.0000 0.12420  0.16828  0.76170  Biso   1.000  C
  C1234    1.0000 0.12330  0.19622  0.76830  Biso   1.000  C
  C1235    1.0000 0.12420  0.20329  0.79380  Biso   1.000  C
  H463     1.0000 0.12580  0.19070  0.80670  Biso   1.000  H
  C1236    1.0000 0.12270  0.22865  0.80026  Biso   1.000  C
  C1237    1.0000 0.12220  0.23510  0.82818  Biso   1.000  C
  C1238    1.0000 0.12110  0.24699  0.78140  Biso   1.000  C
  H464     1.0000 0.12040  0.26440  0.78600  Biso   1.000  H
  C1239    1.0000 0.12120  0.21476  0.74958  Biso   1.000  C
  H465     1.0000 0.12010  0.20980  0.73230  Biso   1.000  H
  C1240    1.0000 0.12060  0.24034  0.75573  Biso   1.000  C
  C1241    1.0000 0.11950  0.26020  0.73546  Biso   1.000  C
  C1242    1.0000 0.11810  0.28567  0.74142  Biso   1.000  C
  H466     1.0000 0.11790  0.29060  0.75880  Biso   1.000  H
  C1243    1.0000 0.11930  0.25410  0.70955  Biso   1.000  C
  H467     1.0000 0.12090  0.23680  0.70450  Biso   1.000  H
  C1244    1.0000 0.11700  0.27270  0.69107  Biso   1.000  C
  C1245    1.0000 0.11660  0.26630  0.66320  Biso   1.000  C
  C1246    1.0000 0.11550  0.29740  0.69780  Biso   1.000  C
  H468     1.0000 0.11330  0.31010  0.68510  Biso   1.000  H
  C1247    1.0000 0.11700  0.30431  0.72295  Biso   1.000  C
  C1248    1.0000 0.11640  0.33198  0.72990  Biso   1.000  C
  C1249    1.0000 0.07547  0.14411  0.69782  Biso   1.000  C
  C1250    1.0000 0.06134  0.15846  0.67762  Biso   1.000  C
  C1251    1.0000 0.07452  0.17416  0.66109  Biso   1.000  C
  H469     1.0000 0.09260  0.17480  0.66140  Biso   1.000  H
  C1252    1.0000 0.06073  0.18901  0.64411  Biso   1.000  C
  C1253    1.0000 0.07429  0.20771  0.62749  Biso   1.000  C
  C1254    1.0000 0.03454  0.18709  0.64289  Biso   1.000  C
  H470     1.0000 0.02540  0.19690  0.63080  Biso   1.000  H
  C1255    1.0000 0.03495  0.15697  0.67666  Biso   1.000  C
  H471     1.0000 0.02620  0.14620  0.68820  Biso   1.000  H
  C1256    1.0000 0.02150  0.17096  0.65920  Biso   1.000  C
  C1257    1.0000 0.99269  0.16918  0.65759  Biso   1.000  C
  C1258    1.0000 0.97900  0.18305  0.63979  Biso   1.000  C
  H472     1.0000 0.98780  0.19410  0.62850  Biso   1.000  H
  C1259    1.0000 0.95256  0.18113  0.63819  Biso   1.000  C
  O689     1.0000 0.91729  0.18966  0.61170  Biso   1.000  O
  C1260    1.0000 0.93961  0.16530  0.65457  Biso   1.000  C
  H473     1.0000 0.92170  0.16320  0.65300  Biso   1.000  H
  C1261    1.0000 0.95289  0.15260  0.67320  Biso   1.000  C
  C1262    1.0000 0.93880  0.13800  0.69280  Biso   1.000  C
  C1263    1.0000 0.97876  0.15470  0.67470  Biso   1.000  C
  H474     1.0000 0.98750  0.14600  0.68790  Biso   1.000  H
  C1264    1.0000 0.12950  0.06900  0.70120  Biso   1.000  C
  C1265    1.0000 0.14670  0.05490  0.68310  Biso   1.000  C
  C1266    1.0000 0.16310  0.06878  0.66780  Biso   1.000  C
  H475     1.0000 0.16190  0.08680  0.66680  Biso   1.000  H
  C1267    1.0000 0.18150  0.05567  0.65400  Biso   1.000  C
  C1268    1.0000 0.20150  0.06985  0.63950  Biso   1.000  C
  C1269    1.0000 0.18210  0.02905  0.65490  Biso   1.000  C
  H476     1.0000 0.19460  0.02030  0.64530  Biso   1.000  H
  C1270    1.0000 0.14782  0.02818  0.68380  Biso   1.000  C
  H477     1.0000 0.13650  0.01910  0.69450  Biso   1.000  H
  C1271    1.0000 0.16499  0.01505  0.66920  Biso   1.000  C
  C1272    1.0000 0.16644  0.98624  0.66970  Biso   1.000  C
  C1273    1.0000 0.14978  0.97165  0.68423  Biso   1.000  C
  H478     1.0000 0.13710  0.98000  0.69410  Biso   1.000  H
  C1274    1.0000 0.15116  0.94536  0.68472  Biso   1.000  C
  C1275    1.0000 0.13485  0.93021  0.70220  Biso   1.000  C
  C1276    1.0000 0.16920  0.93285  0.67039  Biso   1.000  C
  H479     1.0000 0.16980  0.91480  0.67000  Biso   1.000  H
  C1277    1.0000 0.18662  0.94754  0.65639  Biso   1.000  C
  C1278    1.0000 0.20786  0.93414  0.64259  Biso   1.000  C
  C1279    1.0000 0.18532  0.97374  0.65650  Biso   1.000  C
  H480     1.0000 0.19760  0.98330  0.64730  Biso   1.000  H
  C1280    1.0000 0.06849  0.25370  0.54304  Biso   1.000  C
  C1281    1.0000 0.05376  0.25280  0.51866  Biso   1.000  C
  C1282    1.0000 0.06686  0.25250  0.49579  Biso   1.000  C
  H481     1.0000 0.08490  0.25340  0.49560  Biso   1.000  H
  C1283    1.0000 0.05368  0.25100  0.47357  Biso   1.000  C
  C1284    1.0000 0.06838  0.25080  0.44931  Biso   1.000  C
  C1285    1.0000 0.02750  0.25000  0.47338  Biso   1.000  C
  H482     1.0000 0.01870  0.24860  0.45770  Biso   1.000  H
  C1286    1.0000 0.01402  0.25100  0.49617  Biso   1.000  C
  C1287    1.0000 0.02760  0.25160  0.51882  Biso   1.000  C
  H483     1.0000 0.01880  0.25110  0.53460  Biso   1.000  H
  O690     1.0000 0.13293  0.15467  0.77918  Biso   1.000  O
  C1288    1.0000 0.93824  0.19780  0.61995  Biso   1.000  C
  Zn185    1.0000 0.62110  0.62401  0.21976  Biso   1.000  Zn
  Zn186    1.0000 0.62563  0.61947  0.27720  Biso   1.000  Zn
  Zn187    1.0000 0.57210  0.62056  0.24899  Biso   1.000  Zn
  Zn188    1.0000 0.60563  0.57042  0.24980  Biso   1.000  Zn
  Zn189    1.0000 0.62687  0.73145  0.11862  Biso   1.000  Zn
  Zn190    1.0000 0.61624  0.79065  0.11224  Biso   1.000  Zn
  Zn191    1.0000 0.57145  0.75356  0.09781  Biso   1.000  Zn
  Zn192    1.0000 0.62026  0.75632  0.06424  Biso   1.000  Zn
  O691     1.0000 0.61698  0.66169  0.24089  Biso   1.000  O
  O692     1.0000 0.62977  0.71815  0.34290  Biso   1.000  O
  O693     1.0000 0.61533  0.75701  0.33466  Biso   1.000  O
  O694     1.0000 0.62396  0.74476  0.15573  Biso   1.000  O
  O695     1.0000 0.60690  0.78330  0.14911  Biso   1.000  O
  O696     1.0000 0.61354  0.83781  0.25271  Biso   1.000  O
  O697     1.0000 0.62040  0.84684  0.21180  Biso   1.000  O
  O698     1.0000 0.59898  0.64031  0.19440  Biso   1.000  O
  O699     1.0000 0.56290  0.63655  0.21654  Biso   1.000  O
  O700     1.0000 0.59793  0.70635  0.12692  Biso   1.000  O
  O701     1.0000 0.56061  0.72320  0.11558  Biso   1.000  O
  O702     1.0000 0.44754  0.71893  0.11475  Biso   1.000  O
  O703     1.0000 0.41878  0.62712  0.18700  Biso   1.000  O
  O704     1.0000 0.44830  0.63930  0.21523  Biso   1.000  O
  O705     1.0000 0.62521  0.59149  0.19694  Biso   1.000  O
  O706     1.0000 0.62207  0.55638  0.22069  Biso   1.000  O
  O707     1.0000 0.72343  0.55922  0.13900  Biso   1.000  O
  O708     1.0000 0.69645  0.59081  0.13026  Biso   1.000  O
  O709     1.0000 0.63562  0.40608  0.19874  Biso   1.000  O
  O710     1.0000 0.62255  0.44188  0.21882  Biso   1.000  O
  O711     1.0000 0.72666  0.44789  0.13746  Biso   1.000  O
  O712     1.0000 0.70561  0.41159  0.13733  Biso   1.000  O
  O713     1.0000 0.59164  0.75670  0.04068  Biso   1.000  O
  O714     1.0000 0.55664  0.75219  0.06346  Biso   1.000  O
  O715     1.0000 0.59218  0.75322  0.95119  Biso   1.000  O
  O716     1.0000 0.55622  0.74845  0.92865  Biso   1.000  O
  O717     1.0000 0.60757  0.75700  0.09821  Biso   1.000  O
  O718     1.0000 0.60599  0.60694  0.24912  Biso   1.000  O
  C1289    1.0000 0.62420  0.66828  0.26170  Biso   1.000  C
  C1290    1.0000 0.62330  0.69622  0.26830  Biso   1.000  C
  C1291    1.0000 0.62420  0.70329  0.29380  Biso   1.000  C
  H484     1.0000 0.62580  0.69070  0.30670  Biso   1.000  H
  C1292    1.0000 0.62270  0.72865  0.30026  Biso   1.000  C
  C1293    1.0000 0.62220  0.73510  0.32818  Biso   1.000  C
  C1294    1.0000 0.62110  0.74699  0.28140  Biso   1.000  C
  H485     1.0000 0.62040  0.76440  0.28600  Biso   1.000  H
  C1295    1.0000 0.62120  0.71476  0.24958  Biso   1.000  C
  H486     1.0000 0.62010  0.70980  0.23230  Biso   1.000  H
  C1296    1.0000 0.62060  0.74034  0.25573  Biso   1.000  C
  C1297    1.0000 0.61950  0.76020  0.23546  Biso   1.000  C
  C1298    1.0000 0.61810  0.78567  0.24142  Biso   1.000  C
  H487     1.0000 0.61790  0.79060  0.25880  Biso   1.000  H
  C1299    1.0000 0.61930  0.75410  0.20955  Biso   1.000  C
  H488     1.0000 0.62090  0.73680  0.20450  Biso   1.000  H
  C1300    1.0000 0.61700  0.77270  0.19107  Biso   1.000  C
  C1301    1.0000 0.61660  0.76630  0.16320  Biso   1.000  C
  C1302    1.0000 0.61550  0.79740  0.19780  Biso   1.000  C
  H489     1.0000 0.61330  0.81010  0.18510  Biso   1.000  H
  C1303    1.0000 0.61700  0.80431  0.22295  Biso   1.000  C
  C1304    1.0000 0.61640  0.83198  0.22990  Biso   1.000  C
  C1305    1.0000 0.57547  0.64411  0.19782  Biso   1.000  C
  C1306    1.0000 0.56134  0.65846  0.17762  Biso   1.000  C
  C1307    1.0000 0.57452  0.67416  0.16109  Biso   1.000  C
  H490     1.0000 0.59260  0.67480  0.16140  Biso   1.000  H
  C1308    1.0000 0.56073  0.68901  0.14411  Biso   1.000  C
  C1309    1.0000 0.57429  0.70771  0.12749  Biso   1.000  C
  C1310    1.0000 0.53454  0.68709  0.14289  Biso   1.000  C
  H491     1.0000 0.52540  0.69690  0.13080  Biso   1.000  H
  C1311    1.0000 0.53495  0.65697  0.17666  Biso   1.000  C
  H492     1.0000 0.52620  0.64620  0.18820  Biso   1.000  H
  C1312    1.0000 0.52150  0.67096  0.15920  Biso   1.000  C
  C1313    1.0000 0.49269  0.66918  0.15759  Biso   1.000  C
  C1314    1.0000 0.47900  0.68305  0.13979  Biso   1.000  C
  H493     1.0000 0.48780  0.69410  0.12850  Biso   1.000  H
  C1315    1.0000 0.45256  0.68113  0.13819  Biso   1.000  C
  O719     1.0000 0.41729  0.68966  0.11170  Biso   1.000  O
  C1316    1.0000 0.43961  0.66530  0.15457  Biso   1.000  C
  H494     1.0000 0.42170  0.66320  0.15300  Biso   1.000  H
  C1317    1.0000 0.45289  0.65260  0.17320  Biso   1.000  C
  C1318    1.0000 0.43880  0.63800  0.19280  Biso   1.000  C
  C1319    1.0000 0.47876  0.65470  0.17470  Biso   1.000  C
  H495     1.0000 0.48750  0.64600  0.18790  Biso   1.000  H
  C1320    1.0000 0.62950  0.56900  0.20120  Biso   1.000  C
  C1321    1.0000 0.64670  0.55490  0.18310  Biso   1.000  C
  C1322    1.0000 0.66310  0.56878  0.16780  Biso   1.000  C
  H496     1.0000 0.66190  0.58680  0.16680  Biso   1.000  H
  C1323    1.0000 0.68150  0.55567  0.15400  Biso   1.000  C
  C1324    1.0000 0.70150  0.56985  0.13950  Biso   1.000  C
  C1325    1.0000 0.68210  0.52905  0.15490  Biso   1.000  C
  H497     1.0000 0.69460  0.52030  0.14530  Biso   1.000  H
  C1326    1.0000 0.64782  0.52818  0.18380  Biso   1.000  C
  H498     1.0000 0.63650  0.51910  0.19450  Biso   1.000  H
  C1327    1.0000 0.66499  0.51505  0.16920  Biso   1.000  C
  C1328    1.0000 0.66644  0.48624  0.16970  Biso   1.000  C
  C1329    1.0000 0.64978  0.47165  0.18423  Biso   1.000  C
  H499     1.0000 0.63710  0.48000  0.19410  Biso   1.000  H
  C1330    1.0000 0.65116  0.44536  0.18472  Biso   1.000  C
  C1331    1.0000 0.63485  0.43021  0.20220  Biso   1.000  C
  C1332    1.0000 0.66920  0.43285  0.17039  Biso   1.000  C
  H500     1.0000 0.66980  0.41480  0.17000  Biso   1.000  H
  C1333    1.0000 0.68662  0.44754  0.15639  Biso   1.000  C
  C1334    1.0000 0.70786  0.43414  0.14259  Biso   1.000  C
  C1335    1.0000 0.68532  0.47374  0.15650  Biso   1.000  C
  H501     1.0000 0.69760  0.48330  0.14730  Biso   1.000  H
  C1336    1.0000 0.56849  0.75370  0.04304  Biso   1.000  C
  C1337    1.0000 0.55376  0.75280  0.01866  Biso   1.000  C
  C1338    1.0000 0.56686  0.75250  0.99579  Biso   1.000  C
  H502     1.0000 0.58490  0.75340  0.99560  Biso   1.000  H
  C1339    1.0000 0.55368  0.75100  0.97357  Biso   1.000  C
  C1340    1.0000 0.56838  0.75080  0.94931  Biso   1.000  C
  C1341    1.0000 0.52750  0.75000  0.97338  Biso   1.000  C
  H503     1.0000 0.51870  0.74860  0.95770  Biso   1.000  H
  C1342    1.0000 0.51402  0.75100  0.99617  Biso   1.000  C
  C1343    1.0000 0.52760  0.75160  0.01882  Biso   1.000  C
  H504     1.0000 0.51880  0.75110  0.03460  Biso   1.000  H
  O720     1.0000 0.63293  0.65467  0.27918  Biso   1.000  O
  C1344    1.0000 0.43824  0.69780  0.11995  Biso   1.000  C
  Zn193    1.0000 0.78024  0.62110  0.12401  Biso   1.000  Zn
  Zn194    1.0000 0.72280  0.62563  0.11947  Biso   1.000  Zn
  Zn195    1.0000 0.75101  0.57210  0.12056  Biso   1.000  Zn
  Zn196    1.0000 0.75020  0.60563  0.07042  Biso   1.000  Zn
  Zn197    1.0000 0.88138  0.62687  0.23145  Biso   1.000  Zn
  Zn198    1.0000 0.88776  0.61624  0.29065  Biso   1.000  Zn
  Zn199    1.0000 0.90219  0.57145  0.25356  Biso   1.000  Zn
  Zn200    1.0000 0.93576  0.62026  0.25632  Biso   1.000  Zn
  O721     1.0000 0.75911  0.61698  0.16169  Biso   1.000  O
  O722     1.0000 0.65710  0.62977  0.21815  Biso   1.000  O
  O723     1.0000 0.66534  0.61533  0.25701  Biso   1.000  O
  O724     1.0000 0.84427  0.62396  0.24476  Biso   1.000  O
  O725     1.0000 0.85089  0.60690  0.28330  Biso   1.000  O
  O726     1.0000 0.74729  0.61354  0.33781  Biso   1.000  O
  O727     1.0000 0.78820  0.62040  0.34684  Biso   1.000  O
  O728     1.0000 0.80560  0.59898  0.14031  Biso   1.000  O
  O729     1.0000 0.78346  0.56290  0.13655  Biso   1.000  O
  O730     1.0000 0.87308  0.59793  0.20635  Biso   1.000  O
  O731     1.0000 0.88442  0.56061  0.22320  Biso   1.000  O
  O732     1.0000 0.88525  0.44754  0.21893  Biso   1.000  O
  O733     1.0000 0.81300  0.41878  0.12712  Biso   1.000  O
  O734     1.0000 0.78477  0.44830  0.13930  Biso   1.000  O
  O735     1.0000 0.80306  0.62521  0.09149  Biso   1.000  O
  O736     1.0000 0.77931  0.62207  0.05638  Biso   1.000  O
  O737     1.0000 0.86100  0.72343  0.05922  Biso   1.000  O
  O738     1.0000 0.86974  0.69645  0.09081  Biso   1.000  O
  O739     1.0000 0.80126  0.63562  0.90608  Biso   1.000  O
  O740     1.0000 0.78118  0.62255  0.94188  Biso   1.000  O
  O741     1.0000 0.86254  0.72666  0.94789  Biso   1.000  O
  O742     1.0000 0.86267  0.70561  0.91159  Biso   1.000  O
  O743     1.0000 0.95932  0.59164  0.25670  Biso   1.000  O
  O744     1.0000 0.93654  0.55664  0.25219  Biso   1.000  O
  O745     1.0000 0.04881  0.59218  0.25322  Biso   1.000  O
  O746     1.0000 0.07135  0.55622  0.24845  Biso   1.000  O
  O747     1.0000 0.90179  0.60757  0.25700  Biso   1.000  O
  O748     1.0000 0.75088  0.60599  0.10694  Biso   1.000  O
  C1345    1.0000 0.73830  0.62420  0.16828  Biso   1.000  C
  C1346    1.0000 0.73170  0.62330  0.19622  Biso   1.000  C
  C1347    1.0000 0.70620  0.62420  0.20329  Biso   1.000  C
  H505     1.0000 0.69330  0.62580  0.19070  Biso   1.000  H
  C1348    1.0000 0.69974  0.62270  0.22865  Biso   1.000  C
  C1349    1.0000 0.67182  0.62220  0.23510  Biso   1.000  C
  C1350    1.0000 0.71860  0.62110  0.24699  Biso   1.000  C
  H506     1.0000 0.71400  0.62040  0.26440  Biso   1.000  H
  C1351    1.0000 0.75042  0.62120  0.21476  Biso   1.000  C
  H507     1.0000 0.76770  0.62010  0.20980  Biso   1.000  H
  C1352    1.0000 0.74427  0.62060  0.24034  Biso   1.000  C
  C1353    1.0000 0.76454  0.61950  0.26020  Biso   1.000  C
  C1354    1.0000 0.75858  0.61810  0.28567  Biso   1.000  C
  H508     1.0000 0.74120  0.61790  0.29060  Biso   1.000  H
  C1355    1.0000 0.79045  0.61930  0.25410  Biso   1.000  C
  H509     1.0000 0.79550  0.62090  0.23680  Biso   1.000  H
  C1356    1.0000 0.80893  0.61700  0.27270  Biso   1.000  C
  C1357    1.0000 0.83680  0.61660  0.26630  Biso   1.000  C
  C1358    1.0000 0.80220  0.61550  0.29740  Biso   1.000  C
  H510     1.0000 0.81490  0.61330  0.31010  Biso   1.000  H
  C1359    1.0000 0.77705  0.61700  0.30431  Biso   1.000  C
  C1360    1.0000 0.77010  0.61640  0.33198  Biso   1.000  C
  C1361    1.0000 0.80218  0.57547  0.14411  Biso   1.000  C
  C1362    1.0000 0.82238  0.56134  0.15846  Biso   1.000  C
  C1363    1.0000 0.83891  0.57452  0.17416  Biso   1.000  C
  H511     1.0000 0.83860  0.59260  0.17480  Biso   1.000  H
  C1364    1.0000 0.85589  0.56073  0.18901  Biso   1.000  C
  C1365    1.0000 0.87251  0.57429  0.20771  Biso   1.000  C
  C1366    1.0000 0.85711  0.53454  0.18709  Biso   1.000  C
  H512     1.0000 0.86920  0.52540  0.19690  Biso   1.000  H
  C1367    1.0000 0.82334  0.53495  0.15697  Biso   1.000  C
  H513     1.0000 0.81180  0.52620  0.14620  Biso   1.000  H
  C1368    1.0000 0.84080  0.52150  0.17096  Biso   1.000  C
  C1369    1.0000 0.84241  0.49269  0.16918  Biso   1.000  C
  C1370    1.0000 0.86021  0.47900  0.18305  Biso   1.000  C
  H514     1.0000 0.87150  0.48780  0.19410  Biso   1.000  H
  C1371    1.0000 0.86181  0.45256  0.18113  Biso   1.000  C
  O749     1.0000 0.88830  0.41729  0.18966  Biso   1.000  O
  C1372    1.0000 0.84543  0.43961  0.16530  Biso   1.000  C
  H515     1.0000 0.84700  0.42170  0.16320  Biso   1.000  H
  C1373    1.0000 0.82680  0.45289  0.15260  Biso   1.000  C
  C1374    1.0000 0.80720  0.43880  0.13800  Biso   1.000  C
  C1375    1.0000 0.82530  0.47876  0.15470  Biso   1.000  C
  H516     1.0000 0.81210  0.48750  0.14600  Biso   1.000  H
  C1376    1.0000 0.79880  0.62950  0.06900  Biso   1.000  C
  C1377    1.0000 0.81690  0.64670  0.05490  Biso   1.000  C
  C1378    1.0000 0.83220  0.66310  0.06878  Biso   1.000  C
  H517     1.0000 0.83320  0.66190  0.08680  Biso   1.000  H
  C1379    1.0000 0.84600  0.68150  0.05567  Biso   1.000  C
  C1380    1.0000 0.86050  0.70150  0.06985  Biso   1.000  C
  C1381    1.0000 0.84510  0.68210  0.02905  Biso   1.000  C
  H518     1.0000 0.85470  0.69460  0.02030  Biso   1.000  H
  C1382    1.0000 0.81620  0.64782  0.02818  Biso   1.000  C
  H519     1.0000 0.80550  0.63650  0.01910  Biso   1.000  H
  C1383    1.0000 0.83080  0.66499  0.01505  Biso   1.000  C
  C1384    1.0000 0.83030  0.66644  0.98624  Biso   1.000  C
  C1385    1.0000 0.81577  0.64978  0.97165  Biso   1.000  C
  H520     1.0000 0.80590  0.63710  0.98000  Biso   1.000  H
  C1386    1.0000 0.81528  0.65116  0.94536  Biso   1.000  C
  C1387    1.0000 0.79780  0.63485  0.93021  Biso   1.000  C
  C1388    1.0000 0.82961  0.66920  0.93285  Biso   1.000  C
  H521     1.0000 0.83000  0.66980  0.91480  Biso   1.000  H
  C1389    1.0000 0.84361  0.68662  0.94754  Biso   1.000  C
  C1390    1.0000 0.85741  0.70786  0.93414  Biso   1.000  C
  C1391    1.0000 0.84350  0.68532  0.97374  Biso   1.000  C
  H522     1.0000 0.85270  0.69760  0.98330  Biso   1.000  H
  C1392    1.0000 0.95696  0.56849  0.25370  Biso   1.000  C
  C1393    1.0000 0.98134  0.55376  0.25280  Biso   1.000  C
  C1394    1.0000 0.00421  0.56686  0.25250  Biso   1.000  C
  H523     1.0000 0.00440  0.58490  0.25340  Biso   1.000  H
  C1395    1.0000 0.02643  0.55368  0.25100  Biso   1.000  C
  C1396    1.0000 0.05069  0.56838  0.25080  Biso   1.000  C
  C1397    1.0000 0.02662  0.52750  0.25000  Biso   1.000  C
  H524     1.0000 0.04230  0.51870  0.24860  Biso   1.000  H
  C1398    1.0000 0.00383  0.51402  0.25100  Biso   1.000  C
  C1399    1.0000 0.98118  0.52760  0.25160  Biso   1.000  C
  H525     1.0000 0.96540  0.51880  0.25110  Biso   1.000  H
  O750     1.0000 0.72082  0.63293  0.15467  Biso   1.000  O
  C1400    1.0000 0.88005  0.43824  0.19780  Biso   1.000  C
  Zn201    1.0000 0.28024  0.12110  0.62401  Biso   1.000  Zn
  Zn202    1.0000 0.22280  0.12563  0.61947  Biso   1.000  Zn
  Zn203    1.0000 0.25101  0.07210  0.62056  Biso   1.000  Zn
  Zn204    1.0000 0.25020  0.10563  0.57042  Biso   1.000  Zn
  Zn205    1.0000 0.38138  0.12687  0.73145  Biso   1.000  Zn
  Zn206    1.0000 0.38776  0.11624  0.79065  Biso   1.000  Zn
  Zn207    1.0000 0.40219  0.07145  0.75356  Biso   1.000  Zn
  Zn208    1.0000 0.43576  0.12026  0.75632  Biso   1.000  Zn
  O751     1.0000 0.25911  0.11698  0.66169  Biso   1.000  O
  O752     1.0000 0.15710  0.12977  0.71815  Biso   1.000  O
  O753     1.0000 0.16534  0.11533  0.75701  Biso   1.000  O
  O754     1.0000 0.34427  0.12396  0.74476  Biso   1.000  O
  O755     1.0000 0.35089  0.10690  0.78330  Biso   1.000  O
  O756     1.0000 0.24729  0.11354  0.83781  Biso   1.000  O
  O757     1.0000 0.28820  0.12040  0.84684  Biso   1.000  O
  O758     1.0000 0.30560  0.09898  0.64031  Biso   1.000  O
  O759     1.0000 0.28346  0.06290  0.63655  Biso   1.000  O
  O760     1.0000 0.37308  0.09793  0.70635  Biso   1.000  O
  O761     1.0000 0.38442  0.06061  0.72320  Biso   1.000  O
  O762     1.0000 0.38525  0.94754  0.71893  Biso   1.000  O
  O763     1.0000 0.31300  0.91878  0.62712  Biso   1.000  O
  O764     1.0000 0.28477  0.94830  0.63930  Biso   1.000  O
  O765     1.0000 0.30306  0.12521  0.59149  Biso   1.000  O
  O766     1.0000 0.27931  0.12207  0.55638  Biso   1.000  O
  O767     1.0000 0.36100  0.22343  0.55922  Biso   1.000  O
  O768     1.0000 0.36974  0.19645  0.59081  Biso   1.000  O
  O769     1.0000 0.30126  0.13562  0.40608  Biso   1.000  O
  O770     1.0000 0.28118  0.12255  0.44188  Biso   1.000  O
  O771     1.0000 0.36254  0.22666  0.44789  Biso   1.000  O
  O772     1.0000 0.36267  0.20561  0.41159  Biso   1.000  O
  O773     1.0000 0.45932  0.09164  0.75670  Biso   1.000  O
  O774     1.0000 0.43654  0.05664  0.75219  Biso   1.000  O
  O775     1.0000 0.54881  0.09218  0.75322  Biso   1.000  O
  O776     1.0000 0.57135  0.05622  0.74845  Biso   1.000  O
  O777     1.0000 0.40179  0.10757  0.75700  Biso   1.000  O
  O778     1.0000 0.25088  0.10599  0.60694  Biso   1.000  O
  C1401    1.0000 0.23830  0.12420  0.66828  Biso   1.000  C
  C1402    1.0000 0.23170  0.12330  0.69622  Biso   1.000  C
  C1403    1.0000 0.20620  0.12420  0.70329  Biso   1.000  C
  H526     1.0000 0.19330  0.12580  0.69070  Biso   1.000  H
  C1404    1.0000 0.19974  0.12270  0.72865  Biso   1.000  C
  C1405    1.0000 0.17182  0.12220  0.73510  Biso   1.000  C
  C1406    1.0000 0.21860  0.12110  0.74699  Biso   1.000  C
  H527     1.0000 0.21400  0.12040  0.76440  Biso   1.000  H
  C1407    1.0000 0.25042  0.12120  0.71476  Biso   1.000  C
  H528     1.0000 0.26770  0.12010  0.70980  Biso   1.000  H
  C1408    1.0000 0.24427  0.12060  0.74034  Biso   1.000  C
  C1409    1.0000 0.26454  0.11950  0.76020  Biso   1.000  C
  C1410    1.0000 0.25858  0.11810  0.78567  Biso   1.000  C
  H529     1.0000 0.24120  0.11790  0.79060  Biso   1.000  H
  C1411    1.0000 0.29045  0.11930  0.75410  Biso   1.000  C
  H530     1.0000 0.29550  0.12090  0.73680  Biso   1.000  H
  C1412    1.0000 0.30893  0.11700  0.77270  Biso   1.000  C
  C1413    1.0000 0.33680  0.11660  0.76630  Biso   1.000  C
  C1414    1.0000 0.30220  0.11550  0.79740  Biso   1.000  C
  H531     1.0000 0.31490  0.11330  0.81010  Biso   1.000  H
  C1415    1.0000 0.27705  0.11700  0.80431  Biso   1.000  C
  C1416    1.0000 0.27010  0.11640  0.83198  Biso   1.000  C
  C1417    1.0000 0.30218  0.07547  0.64411  Biso   1.000  C
  C1418    1.0000 0.32238  0.06134  0.65846  Biso   1.000  C
  C1419    1.0000 0.33891  0.07452  0.67416  Biso   1.000  C
  H532     1.0000 0.33860  0.09260  0.67480  Biso   1.000  H
  C1420    1.0000 0.35589  0.06073  0.68901  Biso   1.000  C
  C1421    1.0000 0.37251  0.07429  0.70771  Biso   1.000  C
  C1422    1.0000 0.35711  0.03454  0.68709  Biso   1.000  C
  H533     1.0000 0.36920  0.02540  0.69690  Biso   1.000  H
  C1423    1.0000 0.32334  0.03495  0.65697  Biso   1.000  C
  H534     1.0000 0.31180  0.02620  0.64620  Biso   1.000  H
  C1424    1.0000 0.34080  0.02150  0.67096  Biso   1.000  C
  C1425    1.0000 0.34241  0.99269  0.66918  Biso   1.000  C
  C1426    1.0000 0.36021  0.97900  0.68305  Biso   1.000  C
  H535     1.0000 0.37150  0.98780  0.69410  Biso   1.000  H
  C1427    1.0000 0.36181  0.95256  0.68113  Biso   1.000  C
  O779     1.0000 0.38830  0.91729  0.68966  Biso   1.000  O
  C1428    1.0000 0.34543  0.93961  0.66530  Biso   1.000  C
  H536     1.0000 0.34700  0.92170  0.66320  Biso   1.000  H
  C1429    1.0000 0.32680  0.95289  0.65260  Biso   1.000  C
  C1430    1.0000 0.30720  0.93880  0.63800  Biso   1.000  C
  C1431    1.0000 0.32530  0.97876  0.65470  Biso   1.000  C
  H537     1.0000 0.31210  0.98750  0.64600  Biso   1.000  H
  C1432    1.0000 0.29880  0.12950  0.56900  Biso   1.000  C
  C1433    1.0000 0.31690  0.14670  0.55490  Biso   1.000  C
  C1434    1.0000 0.33220  0.16310  0.56878  Biso   1.000  C
  H538     1.0000 0.33320  0.16190  0.58680  Biso   1.000  H
  C1435    1.0000 0.34600  0.18150  0.55567  Biso   1.000  C
  C1436    1.0000 0.36050  0.20150  0.56985  Biso   1.000  C
  C1437    1.0000 0.34510  0.18210  0.52905  Biso   1.000  C
  H539     1.0000 0.35470  0.19460  0.52030  Biso   1.000  H
  C1438    1.0000 0.31620  0.14782  0.52818  Biso   1.000  C
  H540     1.0000 0.30550  0.13650  0.51910  Biso   1.000  H
  C1439    1.0000 0.33080  0.16499  0.51505  Biso   1.000  C
  C1440    1.0000 0.33030  0.16644  0.48624  Biso   1.000  C
  C1441    1.0000 0.31577  0.14978  0.47165  Biso   1.000  C
  H541     1.0000 0.30590  0.13710  0.48000  Biso   1.000  H
  C1442    1.0000 0.31528  0.15116  0.44536  Biso   1.000  C
  C1443    1.0000 0.29780  0.13485  0.43021  Biso   1.000  C
  C1444    1.0000 0.32961  0.16920  0.43285  Biso   1.000  C
  H542     1.0000 0.33000  0.16980  0.41480  Biso   1.000  H
  C1445    1.0000 0.34361  0.18662  0.44754  Biso   1.000  C
  C1446    1.0000 0.35741  0.20786  0.43414  Biso   1.000  C
  C1447    1.0000 0.34350  0.18532  0.47374  Biso   1.000  C
  H543     1.0000 0.35270  0.19760  0.48330  Biso   1.000  H
  C1448    1.0000 0.45696  0.06849  0.75370  Biso   1.000  C
  C1449    1.0000 0.48134  0.05376  0.75280  Biso   1.000  C
  C1450    1.0000 0.50421  0.06686  0.75250  Biso   1.000  C
  H544     1.0000 0.50440  0.08490  0.75340  Biso   1.000  H
  C1451    1.0000 0.52643  0.05368  0.75100  Biso   1.000  C
  C1452    1.0000 0.55069  0.06838  0.75080  Biso   1.000  C
  C1453    1.0000 0.52662  0.02750  0.75000  Biso   1.000  C
  H545     1.0000 0.54230  0.01870  0.74860  Biso   1.000  H
  C1454    1.0000 0.50383  0.01402  0.75100  Biso   1.000  C
  C1455    1.0000 0.48118  0.02760  0.75160  Biso   1.000  C
  H546     1.0000 0.46540  0.01880  0.75110  Biso   1.000  H
  O780     1.0000 0.22082  0.13293  0.65467  Biso   1.000  O
  C1456    1.0000 0.38005  0.93824  0.69780  Biso   1.000  C
  Zn209    1.0000 0.71976  0.37890  0.62401  Biso   1.000  Zn
  Zn210    1.0000 0.77720  0.37437  0.61947  Biso   1.000  Zn
  Zn211    1.0000 0.74899  0.42790  0.62056  Biso   1.000  Zn
  Zn212    1.0000 0.74980  0.39437  0.57042  Biso   1.000  Zn
  Zn213    1.0000 0.61862  0.37313  0.73145  Biso   1.000  Zn
  Zn214    1.0000 0.61224  0.38376  0.79065  Biso   1.000  Zn
  Zn215    1.0000 0.59781  0.42855  0.75356  Biso   1.000  Zn
  Zn216    1.0000 0.56424  0.37974  0.75632  Biso   1.000  Zn
  O781     1.0000 0.74089  0.38302  0.66169  Biso   1.000  O
  O782     1.0000 0.84290  0.37023  0.71815  Biso   1.000  O
  O783     1.0000 0.83466  0.38467  0.75701  Biso   1.000  O
  O784     1.0000 0.65573  0.37604  0.74476  Biso   1.000  O
  O785     1.0000 0.64911  0.39310  0.78330  Biso   1.000  O
  O786     1.0000 0.75271  0.38646  0.83781  Biso   1.000  O
  O787     1.0000 0.71180  0.37960  0.84684  Biso   1.000  O
  O788     1.0000 0.69440  0.40102  0.64031  Biso   1.000  O
  O789     1.0000 0.71654  0.43710  0.63655  Biso   1.000  O
  O790     1.0000 0.62692  0.40207  0.70635  Biso   1.000  O
  O791     1.0000 0.61558  0.43939  0.72320  Biso   1.000  O
  O792     1.0000 0.61475  0.55246  0.71893  Biso   1.000  O
  O793     1.0000 0.68700  0.58122  0.62712  Biso   1.000  O
  O794     1.0000 0.71523  0.55170  0.63930  Biso   1.000  O
  O795     1.0000 0.69694  0.37479  0.59149  Biso   1.000  O
  O796     1.0000 0.72069  0.37793  0.55638  Biso   1.000  O
  O797     1.0000 0.63900  0.27657  0.55922  Biso   1.000  O
  O798     1.0000 0.63026  0.30355  0.59081  Biso   1.000  O
  O799     1.0000 0.69874  0.36438  0.40608  Biso   1.000  O
  O800     1.0000 0.71882  0.37745  0.44188  Biso   1.000  O
  O801     1.0000 0.63746  0.27334  0.44789  Biso   1.000  O
  O802     1.0000 0.63733  0.29439  0.41159  Biso   1.000  O
  O803     1.0000 0.54068  0.40836  0.75670  Biso   1.000  O
  O804     1.0000 0.56346  0.44336  0.75219  Biso   1.000  O
  O805     1.0000 0.45119  0.40782  0.75322  Biso   1.000  O
  O806     1.0000 0.42865  0.44378  0.74845  Biso   1.000  O
  O807     1.0000 0.59821  0.39243  0.75700  Biso   1.000  O
  O808     1.0000 0.74912  0.39401  0.60694  Biso   1.000  O
  C1457    1.0000 0.76170  0.37580  0.66828  Biso   1.000  C
  C1458    1.0000 0.76830  0.37670  0.69622  Biso   1.000  C
  C1459    1.0000 0.79380  0.37580  0.70329  Biso   1.000  C
  H547     1.0000 0.80670  0.37420  0.69070  Biso   1.000  H
  C1460    1.0000 0.80026  0.37730  0.72865  Biso   1.000  C
  C1461    1.0000 0.82818  0.37780  0.73510  Biso   1.000  C
  C1462    1.0000 0.78140  0.37890  0.74699  Biso   1.000  C
  H548     1.0000 0.78600  0.37960  0.76440  Biso   1.000  H
  C1463    1.0000 0.74958  0.37880  0.71476  Biso   1.000  C
  H549     1.0000 0.73230  0.37990  0.70980  Biso   1.000  H
  C1464    1.0000 0.75573  0.37940  0.74034  Biso   1.000  C
  C1465    1.0000 0.73546  0.38050  0.76020  Biso   1.000  C
  C1466    1.0000 0.74142  0.38190  0.78567  Biso   1.000  C
  H550     1.0000 0.75880  0.38210  0.79060  Biso   1.000  H
  C1467    1.0000 0.70955  0.38070  0.75410  Biso   1.000  C
  H551     1.0000 0.70450  0.37910  0.73680  Biso   1.000  H
  C1468    1.0000 0.69107  0.38300  0.77270  Biso   1.000  C
  C1469    1.0000 0.66320  0.38340  0.76630  Biso   1.000  C
  C1470    1.0000 0.69780  0.38450  0.79740  Biso   1.000  C
  H552     1.0000 0.68510  0.38670  0.81010  Biso   1.000  H
  C1471    1.0000 0.72295  0.38300  0.80431  Biso   1.000  C
  C1472    1.0000 0.72990  0.38360  0.83198  Biso   1.000  C
  C1473    1.0000 0.69782  0.42453  0.64411  Biso   1.000  C
  C1474    1.0000 0.67762  0.43866  0.65846  Biso   1.000  C
  C1475    1.0000 0.66109  0.42548  0.67416  Biso   1.000  C
  H553     1.0000 0.66140  0.40740  0.67480  Biso   1.000  H
  C1476    1.0000 0.64411  0.43927  0.68901  Biso   1.000  C
  C1477    1.0000 0.62749  0.42571  0.70771  Biso   1.000  C
  C1478    1.0000 0.64289  0.46546  0.68709  Biso   1.000  C
  H554     1.0000 0.63080  0.47460  0.69690  Biso   1.000  H
  C1479    1.0000 0.67666  0.46505  0.65697  Biso   1.000  C
  H555     1.0000 0.68820  0.47380  0.64620  Biso   1.000  H
  C1480    1.0000 0.65920  0.47850  0.67096  Biso   1.000  C
  C1481    1.0000 0.65759  0.50731  0.66918  Biso   1.000  C
  C1482    1.0000 0.63979  0.52100  0.68305  Biso   1.000  C
  H556     1.0000 0.62850  0.51220  0.69410  Biso   1.000  H
  C1483    1.0000 0.63819  0.54744  0.68113  Biso   1.000  C
  O809     1.0000 0.61170  0.58271  0.68966  Biso   1.000  O
  C1484    1.0000 0.65457  0.56039  0.66530  Biso   1.000  C
  H557     1.0000 0.65300  0.57830  0.66320  Biso   1.000  H
  C1485    1.0000 0.67320  0.54711  0.65260  Biso   1.000  C
  C1486    1.0000 0.69280  0.56120  0.63800  Biso   1.000  C
  C1487    1.0000 0.67470  0.52124  0.65470  Biso   1.000  C
  H558     1.0000 0.68790  0.51250  0.64600  Biso   1.000  H
  C1488    1.0000 0.70120  0.37050  0.56900  Biso   1.000  C
  C1489    1.0000 0.68310  0.35330  0.55490  Biso   1.000  C
  C1490    1.0000 0.66780  0.33690  0.56878  Biso   1.000  C
  H559     1.0000 0.66680  0.33810  0.58680  Biso   1.000  H
  C1491    1.0000 0.65400  0.31850  0.55567  Biso   1.000  C
  C1492    1.0000 0.63950  0.29850  0.56985  Biso   1.000  C
  C1493    1.0000 0.65490  0.31790  0.52905  Biso   1.000  C
  H560     1.0000 0.64530  0.30540  0.52030  Biso   1.000  H
  C1494    1.0000 0.68380  0.35218  0.52818  Biso   1.000  C
  H561     1.0000 0.69450  0.36350  0.51910  Biso   1.000  H
  C1495    1.0000 0.66920  0.33501  0.51505  Biso   1.000  C
  C1496    1.0000 0.66970  0.33356  0.48624  Biso   1.000  C
  C1497    1.0000 0.68423  0.35022  0.47165  Biso   1.000  C
  H562     1.0000 0.69410  0.36290  0.48000  Biso   1.000  H
  C1498    1.0000 0.68472  0.34884  0.44536  Biso   1.000  C
  C1499    1.0000 0.70220  0.36515  0.43021  Biso   1.000  C
  C1500    1.0000 0.67039  0.33080  0.43285  Biso   1.000  C
  H563     1.0000 0.67000  0.33020  0.41480  Biso   1.000  H
  C1501    1.0000 0.65639  0.31338  0.44754  Biso   1.000  C
  C1502    1.0000 0.64259  0.29214  0.43414  Biso   1.000  C
  C1503    1.0000 0.65650  0.31468  0.47374  Biso   1.000  C
  H564     1.0000 0.64730  0.30240  0.48330  Biso   1.000  H
  C1504    1.0000 0.54304  0.43151  0.75370  Biso   1.000  C
  C1505    1.0000 0.51866  0.44624  0.75280  Biso   1.000  C
  C1506    1.0000 0.49579  0.43314  0.75250  Biso   1.000  C
  H565     1.0000 0.49560  0.41510  0.75340  Biso   1.000  H
  C1507    1.0000 0.47357  0.44632  0.75100  Biso   1.000  C
  C1508    1.0000 0.44931  0.43162  0.75080  Biso   1.000  C
  C1509    1.0000 0.47338  0.47250  0.75000  Biso   1.000  C
  H566     1.0000 0.45770  0.48130  0.74860  Biso   1.000  H
  C1510    1.0000 0.49617  0.48598  0.75100  Biso   1.000  C
  C1511    1.0000 0.51882  0.47240  0.75160  Biso   1.000  C
  H567     1.0000 0.53460  0.48120  0.75110  Biso   1.000  H
  O810     1.0000 0.77918  0.36707  0.65467  Biso   1.000  O
  C1512    1.0000 0.61995  0.56176  0.69780  Biso   1.000  C
  Zn217    1.0000 0.21976  0.87890  0.12401  Biso   1.000  Zn
  Zn218    1.0000 0.27720  0.87437  0.11947  Biso   1.000  Zn
  Zn219    1.0000 0.24899  0.92790  0.12056  Biso   1.000  Zn
  Zn220    1.0000 0.24980  0.89437  0.07042  Biso   1.000  Zn
  Zn221    1.0000 0.11862  0.87313  0.23145  Biso   1.000  Zn
  Zn222    1.0000 0.11224  0.88376  0.29065  Biso   1.000  Zn
  Zn223    1.0000 0.09781  0.92855  0.25356  Biso   1.000  Zn
  Zn224    1.0000 0.06424  0.87974  0.25632  Biso   1.000  Zn
  O811     1.0000 0.24089  0.88302  0.16169  Biso   1.000  O
  O812     1.0000 0.34290  0.87023  0.21815  Biso   1.000  O
  O813     1.0000 0.33466  0.88467  0.25701  Biso   1.000  O
  O814     1.0000 0.15573  0.87604  0.24476  Biso   1.000  O
  O815     1.0000 0.14911  0.89310  0.28330  Biso   1.000  O
  O816     1.0000 0.25271  0.88646  0.33781  Biso   1.000  O
  O817     1.0000 0.21180  0.87960  0.34684  Biso   1.000  O
  O818     1.0000 0.19440  0.90102  0.14031  Biso   1.000  O
  O819     1.0000 0.21654  0.93710  0.13655  Biso   1.000  O
  O820     1.0000 0.12692  0.90207  0.20635  Biso   1.000  O
  O821     1.0000 0.11558  0.93939  0.22320  Biso   1.000  O
  O822     1.0000 0.11475  0.05246  0.21893  Biso   1.000  O
  O823     1.0000 0.18700  0.08122  0.12712  Biso   1.000  O
  O824     1.0000 0.21523  0.05170  0.13930  Biso   1.000  O
  O825     1.0000 0.19694  0.87479  0.09149  Biso   1.000  O
  O826     1.0000 0.22069  0.87793  0.05638  Biso   1.000  O
  O827     1.0000 0.13900  0.77657  0.05922  Biso   1.000  O
  O828     1.0000 0.13026  0.80355  0.09081  Biso   1.000  O
  O829     1.0000 0.19874  0.86438  0.90608  Biso   1.000  O
  O830     1.0000 0.21882  0.87745  0.94188  Biso   1.000  O
  O831     1.0000 0.13746  0.77334  0.94789  Biso   1.000  O
  O832     1.0000 0.13733  0.79439  0.91159  Biso   1.000  O
  O833     1.0000 0.04068  0.90836  0.25670  Biso   1.000  O
  O834     1.0000 0.06346  0.94336  0.25219  Biso   1.000  O
  O835     1.0000 0.95119  0.90782  0.25322  Biso   1.000  O
  O836     1.0000 0.92865  0.94378  0.24845  Biso   1.000  O
  O837     1.0000 0.09821  0.89243  0.25700  Biso   1.000  O
  O838     1.0000 0.24912  0.89401  0.10694  Biso   1.000  O
  C1513    1.0000 0.26170  0.87580  0.16828  Biso   1.000  C
  C1514    1.0000 0.26830  0.87670  0.19622  Biso   1.000  C
  C1515    1.0000 0.29380  0.87580  0.20329  Biso   1.000  C
  H568     1.0000 0.30670  0.87420  0.19070  Biso   1.000  H
  C1516    1.0000 0.30026  0.87730  0.22865  Biso   1.000  C
  C1517    1.0000 0.32818  0.87780  0.23510  Biso   1.000  C
  C1518    1.0000 0.28140  0.87890  0.24699  Biso   1.000  C
  H569     1.0000 0.28600  0.87960  0.26440  Biso   1.000  H
  C1519    1.0000 0.24958  0.87880  0.21476  Biso   1.000  C
  H570     1.0000 0.23230  0.87990  0.20980  Biso   1.000  H
  C1520    1.0000 0.25573  0.87940  0.24034  Biso   1.000  C
  C1521    1.0000 0.23546  0.88050  0.26020  Biso   1.000  C
  C1522    1.0000 0.24142  0.88190  0.28567  Biso   1.000  C
  H571     1.0000 0.25880  0.88210  0.29060  Biso   1.000  H
  C1523    1.0000 0.20955  0.88070  0.25410  Biso   1.000  C
  H572     1.0000 0.20450  0.87910  0.23680  Biso   1.000  H
  C1524    1.0000 0.19107  0.88300  0.27270  Biso   1.000  C
  C1525    1.0000 0.16320  0.88340  0.26630  Biso   1.000  C
  C1526    1.0000 0.19780  0.88450  0.29740  Biso   1.000  C
  H573     1.0000 0.18510  0.88670  0.31010  Biso   1.000  H
  C1527    1.0000 0.22295  0.88300  0.30431  Biso   1.000  C
  C1528    1.0000 0.22990  0.88360  0.33198  Biso   1.000  C
  C1529    1.0000 0.19782  0.92453  0.14411  Biso   1.000  C
  C1530    1.0000 0.17762  0.93866  0.15846  Biso   1.000  C
  C1531    1.0000 0.16109  0.92548  0.17416  Biso   1.000  C
  H574     1.0000 0.16140  0.90740  0.17480  Biso   1.000  H
  C1532    1.0000 0.14411  0.93927  0.18901  Biso   1.000  C
  C1533    1.0000 0.12749  0.92571  0.20771  Biso   1.000  C
  C1534    1.0000 0.14289  0.96546  0.18709  Biso   1.000  C
  H575     1.0000 0.13080  0.97460  0.19690  Biso   1.000  H
  C1535    1.0000 0.17666  0.96505  0.15697  Biso   1.000  C
  H576     1.0000 0.18820  0.97380  0.14620  Biso   1.000  H
  C1536    1.0000 0.15920  0.97850  0.17096  Biso   1.000  C
  C1537    1.0000 0.15759  0.00731  0.16918  Biso   1.000  C
  C1538    1.0000 0.13979  0.02100  0.18305  Biso   1.000  C
  H577     1.0000 0.12850  0.01220  0.19410  Biso   1.000  H
  C1539    1.0000 0.13819  0.04744  0.18113  Biso   1.000  C
  O839     1.0000 0.11170  0.08271  0.18966  Biso   1.000  O
  C1540    1.0000 0.15457  0.06039  0.16530  Biso   1.000  C
  H578     1.0000 0.15300  0.07830  0.16320  Biso   1.000  H
  C1541    1.0000 0.17320  0.04711  0.15260  Biso   1.000  C
  C1542    1.0000 0.19280  0.06120  0.13800  Biso   1.000  C
  C1543    1.0000 0.17470  0.02124  0.15470  Biso   1.000  C
  H579     1.0000 0.18790  0.01250  0.14600  Biso   1.000  H
  C1544    1.0000 0.20120  0.87050  0.06900  Biso   1.000  C
  C1545    1.0000 0.18310  0.85330  0.05490  Biso   1.000  C
  C1546    1.0000 0.16780  0.83690  0.06878  Biso   1.000  C
  H580     1.0000 0.16680  0.83810  0.08680  Biso   1.000  H
  C1547    1.0000 0.15400  0.81850  0.05567  Biso   1.000  C
  C1548    1.0000 0.13950  0.79850  0.06985  Biso   1.000  C
  C1549    1.0000 0.15490  0.81790  0.02905  Biso   1.000  C
  H581     1.0000 0.14530  0.80540  0.02030  Biso   1.000  H
  C1550    1.0000 0.18380  0.85218  0.02818  Biso   1.000  C
  H582     1.0000 0.19450  0.86350  0.01910  Biso   1.000  H
  C1551    1.0000 0.16920  0.83501  0.01505  Biso   1.000  C
  C1552    1.0000 0.16970  0.83356  0.98624  Biso   1.000  C
  C1553    1.0000 0.18423  0.85022  0.97165  Biso   1.000  C
  H583     1.0000 0.19410  0.86290  0.98000  Biso   1.000  H
  C1554    1.0000 0.18472  0.84884  0.94536  Biso   1.000  C
  C1555    1.0000 0.20220  0.86515  0.93021  Biso   1.000  C
  C1556    1.0000 0.17039  0.83080  0.93285  Biso   1.000  C
  H584     1.0000 0.17000  0.83020  0.91480  Biso   1.000  H
  C1557    1.0000 0.15639  0.81338  0.94754  Biso   1.000  C
  C1558    1.0000 0.14259  0.79214  0.93414  Biso   1.000  C
  C1559    1.0000 0.15650  0.81468  0.97374  Biso   1.000  C
  H585     1.0000 0.14730  0.80240  0.98330  Biso   1.000  H
  C1560    1.0000 0.04304  0.93151  0.25370  Biso   1.000  C
  C1561    1.0000 0.01866  0.94624  0.25280  Biso   1.000  C
  C1562    1.0000 0.99579  0.93314  0.25250  Biso   1.000  C
  H586     1.0000 0.99560  0.91510  0.25340  Biso   1.000  H
  C1563    1.0000 0.97357  0.94632  0.25100  Biso   1.000  C
  C1564    1.0000 0.94931  0.93162  0.25080  Biso   1.000  C
  C1565    1.0000 0.97338  0.97250  0.25000  Biso   1.000  C
  H587     1.0000 0.95770  0.98130  0.24860  Biso   1.000  H
  C1566    1.0000 0.99617  0.98598  0.25100  Biso   1.000  C
  C1567    1.0000 0.01882  0.97240  0.25160  Biso   1.000  C
  H588     1.0000 0.03460  0.98120  0.25110  Biso   1.000  H
  O840     1.0000 0.27918  0.86707  0.15467  Biso   1.000  O
  C1568    1.0000 0.11995  0.06176  0.19780  Biso   1.000  C
  Zn225    1.0000 0.21976  0.12110  0.37599  Biso   1.000  Zn
  Zn226    1.0000 0.27720  0.12563  0.38053  Biso   1.000  Zn
  Zn227    1.0000 0.24899  0.07210  0.37944  Biso   1.000  Zn
  Zn228    1.0000 0.24980  0.10563  0.42958  Biso   1.000  Zn
  Zn229    1.0000 0.11862  0.12687  0.26855  Biso   1.000  Zn
  Zn230    1.0000 0.11224  0.11624  0.20935  Biso   1.000  Zn
  Zn231    1.0000 0.09781  0.07145  0.24644  Biso   1.000  Zn
  Zn232    1.0000 0.06424  0.12026  0.24368  Biso   1.000  Zn
  O841     1.0000 0.24089  0.11698  0.33831  Biso   1.000  O
  O842     1.0000 0.34290  0.12977  0.28185  Biso   1.000  O
  O843     1.0000 0.33466  0.11533  0.24299  Biso   1.000  O
  O844     1.0000 0.15573  0.12396  0.25524  Biso   1.000  O
  O845     1.0000 0.14911  0.10690  0.21670  Biso   1.000  O
  O846     1.0000 0.25271  0.11354  0.16219  Biso   1.000  O
  O847     1.0000 0.21180  0.12040  0.15316  Biso   1.000  O
  O848     1.0000 0.19440  0.09898  0.35969  Biso   1.000  O
  O849     1.0000 0.21654  0.06290  0.36345  Biso   1.000  O
  O850     1.0000 0.12692  0.09793  0.29365  Biso   1.000  O
  O851     1.0000 0.11558  0.06061  0.27680  Biso   1.000  O
  O852     1.0000 0.11475  0.94754  0.28107  Biso   1.000  O
  O853     1.0000 0.18700  0.91878  0.37288  Biso   1.000  O
  O854     1.0000 0.21523  0.94830  0.36070  Biso   1.000  O
  O855     1.0000 0.19694  0.12521  0.40851  Biso   1.000  O
  O856     1.0000 0.22069  0.12207  0.44362  Biso   1.000  O
  O857     1.0000 0.13900  0.22343  0.44078  Biso   1.000  O
  O858     1.0000 0.13026  0.19645  0.40919  Biso   1.000  O
  O859     1.0000 0.19874  0.13562  0.59392  Biso   1.000  O
  O860     1.0000 0.21882  0.12255  0.55812  Biso   1.000  O
  O861     1.0000 0.13746  0.22666  0.55211  Biso   1.000  O
  O862     1.0000 0.13733  0.20561  0.58841  Biso   1.000  O
  O863     1.0000 0.04068  0.09164  0.24330  Biso   1.000  O
  O864     1.0000 0.06346  0.05664  0.24781  Biso   1.000  O
  O865     1.0000 0.95119  0.09218  0.24678  Biso   1.000  O
  O866     1.0000 0.92865  0.05622  0.25155  Biso   1.000  O
  O867     1.0000 0.09821  0.10757  0.24300  Biso   1.000  O
  O868     1.0000 0.24912  0.10599  0.39306  Biso   1.000  O
  C1569    1.0000 0.26170  0.12420  0.33172  Biso   1.000  C
  C1570    1.0000 0.26830  0.12330  0.30378  Biso   1.000  C
  C1571    1.0000 0.29380  0.12420  0.29671  Biso   1.000  C
  H589     1.0000 0.30670  0.12580  0.30930  Biso   1.000  H
  C1572    1.0000 0.30026  0.12270  0.27135  Biso   1.000  C
  C1573    1.0000 0.32818  0.12220  0.26490  Biso   1.000  C
  C1574    1.0000 0.28140  0.12110  0.25301  Biso   1.000  C
  H590     1.0000 0.28600  0.12040  0.23560  Biso   1.000  H
  C1575    1.0000 0.24958  0.12120  0.28524  Biso   1.000  C
  H591     1.0000 0.23230  0.12010  0.29020  Biso   1.000  H
  C1576    1.0000 0.25573  0.12060  0.25966  Biso   1.000  C
  C1577    1.0000 0.23546  0.11950  0.23980  Biso   1.000  C
  C1578    1.0000 0.24142  0.11810  0.21433  Biso   1.000  C
  H592     1.0000 0.25880  0.11790  0.20940  Biso   1.000  H
  C1579    1.0000 0.20955  0.11930  0.24590  Biso   1.000  C
  H593     1.0000 0.20450  0.12090  0.26320  Biso   1.000  H
  C1580    1.0000 0.19107  0.11700  0.22730  Biso   1.000  C
  C1581    1.0000 0.16320  0.11660  0.23370  Biso   1.000  C
  C1582    1.0000 0.19780  0.11550  0.20260  Biso   1.000  C
  H594     1.0000 0.18510  0.11330  0.18990  Biso   1.000  H
  C1583    1.0000 0.22295  0.11700  0.19569  Biso   1.000  C
  C1584    1.0000 0.22990  0.11640  0.16802  Biso   1.000  C
  C1585    1.0000 0.19782  0.07547  0.35589  Biso   1.000  C
  C1586    1.0000 0.17762  0.06134  0.34154  Biso   1.000  C
  C1587    1.0000 0.16109  0.07452  0.32584  Biso   1.000  C
  H595     1.0000 0.16140  0.09260  0.32520  Biso   1.000  H
  C1588    1.0000 0.14411  0.06073  0.31099  Biso   1.000  C
  C1589    1.0000 0.12749  0.07429  0.29229  Biso   1.000  C
  C1590    1.0000 0.14289  0.03454  0.31291  Biso   1.000  C
  H596     1.0000 0.13080  0.02540  0.30310  Biso   1.000  H
  C1591    1.0000 0.17666  0.03495  0.34303  Biso   1.000  C
  H597     1.0000 0.18820  0.02620  0.35380  Biso   1.000  H
  C1592    1.0000 0.15920  0.02150  0.32904  Biso   1.000  C
  C1593    1.0000 0.15759  0.99269  0.33082  Biso   1.000  C
  C1594    1.0000 0.13979  0.97900  0.31695  Biso   1.000  C
  H598     1.0000 0.12850  0.98780  0.30590  Biso   1.000  H
  C1595    1.0000 0.13819  0.95256  0.31887  Biso   1.000  C
  O869     1.0000 0.11170  0.91729  0.31034  Biso   1.000  O
  C1596    1.0000 0.15457  0.93961  0.33470  Biso   1.000  C
  H599     1.0000 0.15300  0.92170  0.33680  Biso   1.000  H
  C1597    1.0000 0.17320  0.95289  0.34740  Biso   1.000  C
  C1598    1.0000 0.19280  0.93880  0.36200  Biso   1.000  C
  C1599    1.0000 0.17470  0.97876  0.34530  Biso   1.000  C
  H600     1.0000 0.18790  0.98750  0.35400  Biso   1.000  H
  C1600    1.0000 0.20120  0.12950  0.43100  Biso   1.000  C
  C1601    1.0000 0.18310  0.14670  0.44510  Biso   1.000  C
  C1602    1.0000 0.16780  0.16310  0.43122  Biso   1.000  C
  H601     1.0000 0.16680  0.16190  0.41320  Biso   1.000  H
  C1603    1.0000 0.15400  0.18150  0.44433  Biso   1.000  C
  C1604    1.0000 0.13950  0.20150  0.43015  Biso   1.000  C
  C1605    1.0000 0.15490  0.18210  0.47095  Biso   1.000  C
  H602     1.0000 0.14530  0.19460  0.47970  Biso   1.000  H
  C1606    1.0000 0.18380  0.14782  0.47182  Biso   1.000  C
  H603     1.0000 0.19450  0.13650  0.48090  Biso   1.000  H
  C1607    1.0000 0.16920  0.16499  0.48495  Biso   1.000  C
  C1608    1.0000 0.16970  0.16644  0.51376  Biso   1.000  C
  C1609    1.0000 0.18423  0.14978  0.52835  Biso   1.000  C
  H604     1.0000 0.19410  0.13710  0.52000  Biso   1.000  H
  C1610    1.0000 0.18472  0.15116  0.55464  Biso   1.000  C
  C1611    1.0000 0.20220  0.13485  0.56979  Biso   1.000  C
  C1612    1.0000 0.17039  0.16920  0.56715  Biso   1.000  C
  H605     1.0000 0.17000  0.16980  0.58520  Biso   1.000  H
  C1613    1.0000 0.15639  0.18662  0.55246  Biso   1.000  C
  C1614    1.0000 0.14259  0.20786  0.56586  Biso   1.000  C
  C1615    1.0000 0.15650  0.18532  0.52626  Biso   1.000  C
  H606     1.0000 0.14730  0.19760  0.51670  Biso   1.000  H
  C1616    1.0000 0.04304  0.06849  0.24630  Biso   1.000  C
  C1617    1.0000 0.01866  0.05376  0.24720  Biso   1.000  C
  C1618    1.0000 0.99579  0.06686  0.24750  Biso   1.000  C
  H607     1.0000 0.99560  0.08490  0.24660  Biso   1.000  H
  C1619    1.0000 0.97357  0.05368  0.24900  Biso   1.000  C
  C1620    1.0000 0.94931  0.06838  0.24920  Biso   1.000  C
  C1621    1.0000 0.97338  0.02750  0.25000  Biso   1.000  C
  H608     1.0000 0.95770  0.01870  0.25140  Biso   1.000  H
  C1622    1.0000 0.99617  0.01402  0.24900  Biso   1.000  C
  C1623    1.0000 0.01882  0.02760  0.24840  Biso   1.000  C
  H609     1.0000 0.03460  0.01880  0.24890  Biso   1.000  H
  O870     1.0000 0.27918  0.13293  0.34533  Biso   1.000  O
  C1624    1.0000 0.11995  0.93824  0.30220  Biso   1.000  C
  Zn233    1.0000 0.71976  0.62110  0.87599  Biso   1.000  Zn
  Zn234    1.0000 0.77720  0.62563  0.88053  Biso   1.000  Zn
  Zn235    1.0000 0.74899  0.57210  0.87944  Biso   1.000  Zn
  Zn236    1.0000 0.74980  0.60563  0.92958  Biso   1.000  Zn
  Zn237    1.0000 0.61862  0.62687  0.76855  Biso   1.000  Zn
  Zn238    1.0000 0.61224  0.61624  0.70935  Biso   1.000  Zn
  Zn239    1.0000 0.59781  0.57145  0.74644  Biso   1.000  Zn
  Zn240    1.0000 0.56424  0.62026  0.74368  Biso   1.000  Zn
  O871     1.0000 0.74089  0.61698  0.83831  Biso   1.000  O
  O872     1.0000 0.84290  0.62977  0.78185  Biso   1.000  O
  O873     1.0000 0.83466  0.61533  0.74299  Biso   1.000  O
  O874     1.0000 0.65573  0.62396  0.75524  Biso   1.000  O
  O875     1.0000 0.64911  0.60690  0.71670  Biso   1.000  O
  O876     1.0000 0.75271  0.61354  0.66219  Biso   1.000  O
  O877     1.0000 0.71180  0.62040  0.65316  Biso   1.000  O
  O878     1.0000 0.69440  0.59898  0.85969  Biso   1.000  O
  O879     1.0000 0.71654  0.56290  0.86345  Biso   1.000  O
  O880     1.0000 0.62692  0.59793  0.79365  Biso   1.000  O
  O881     1.0000 0.61558  0.56061  0.77680  Biso   1.000  O
  O882     1.0000 0.61475  0.44754  0.78107  Biso   1.000  O
  O883     1.0000 0.68700  0.41878  0.87288  Biso   1.000  O
  O884     1.0000 0.71523  0.44830  0.86070  Biso   1.000  O
  O885     1.0000 0.69694  0.62521  0.90851  Biso   1.000  O
  O886     1.0000 0.72069  0.62207  0.94362  Biso   1.000  O
  O887     1.0000 0.63900  0.72343  0.94078  Biso   1.000  O
  O888     1.0000 0.63026  0.69645  0.90919  Biso   1.000  O
  O889     1.0000 0.69874  0.63562  0.09392  Biso   1.000  O
  O890     1.0000 0.71882  0.62255  0.05812  Biso   1.000  O
  O891     1.0000 0.63746  0.72666  0.05211  Biso   1.000  O
  O892     1.0000 0.63733  0.70561  0.08841  Biso   1.000  O
  O893     1.0000 0.54068  0.59164  0.74330  Biso   1.000  O
  O894     1.0000 0.56346  0.55664  0.74781  Biso   1.000  O
  O895     1.0000 0.45119  0.59218  0.74678  Biso   1.000  O
  O896     1.0000 0.42865  0.55622  0.75155  Biso   1.000  O
  O897     1.0000 0.59821  0.60757  0.74300  Biso   1.000  O
  O898     1.0000 0.74912  0.60599  0.89306  Biso   1.000  O
  C1625    1.0000 0.76170  0.62420  0.83172  Biso   1.000  C
  C1626    1.0000 0.76830  0.62330  0.80378  Biso   1.000  C
  C1627    1.0000 0.79380  0.62420  0.79671  Biso   1.000  C
  H610     1.0000 0.80670  0.62580  0.80930  Biso   1.000  H
  C1628    1.0000 0.80026  0.62270  0.77135  Biso   1.000  C
  C1629    1.0000 0.82818  0.62220  0.76490  Biso   1.000  C
  C1630    1.0000 0.78140  0.62110  0.75301  Biso   1.000  C
  H611     1.0000 0.78600  0.62040  0.73560  Biso   1.000  H
  C1631    1.0000 0.74958  0.62120  0.78524  Biso   1.000  C
  H612     1.0000 0.73230  0.62010  0.79020  Biso   1.000  H
  C1632    1.0000 0.75573  0.62060  0.75966  Biso   1.000  C
  C1633    1.0000 0.73546  0.61950  0.73980  Biso   1.000  C
  C1634    1.0000 0.74142  0.61810  0.71433  Biso   1.000  C
  H613     1.0000 0.75880  0.61790  0.70940  Biso   1.000  H
  C1635    1.0000 0.70955  0.61930  0.74590  Biso   1.000  C
  H614     1.0000 0.70450  0.62090  0.76320  Biso   1.000  H
  C1636    1.0000 0.69107  0.61700  0.72730  Biso   1.000  C
  C1637    1.0000 0.66320  0.61660  0.73370  Biso   1.000  C
  C1638    1.0000 0.69780  0.61550  0.70260  Biso   1.000  C
  H615     1.0000 0.68510  0.61330  0.68990  Biso   1.000  H
  C1639    1.0000 0.72295  0.61700  0.69569  Biso   1.000  C
  C1640    1.0000 0.72990  0.61640  0.66802  Biso   1.000  C
  C1641    1.0000 0.69782  0.57547  0.85589  Biso   1.000  C
  C1642    1.0000 0.67762  0.56134  0.84154  Biso   1.000  C
  C1643    1.0000 0.66109  0.57452  0.82584  Biso   1.000  C
  H616     1.0000 0.66140  0.59260  0.82520  Biso   1.000  H
  C1644    1.0000 0.64411  0.56073  0.81099  Biso   1.000  C
  C1645    1.0000 0.62749  0.57429  0.79229  Biso   1.000  C
  C1646    1.0000 0.64289  0.53454  0.81291  Biso   1.000  C
  H617     1.0000 0.63080  0.52540  0.80310  Biso   1.000  H
  C1647    1.0000 0.67666  0.53495  0.84303  Biso   1.000  C
  H618     1.0000 0.68820  0.52620  0.85380  Biso   1.000  H
  C1648    1.0000 0.65920  0.52150  0.82904  Biso   1.000  C
  C1649    1.0000 0.65759  0.49269  0.83082  Biso   1.000  C
  C1650    1.0000 0.63979  0.47900  0.81695  Biso   1.000  C
  H619     1.0000 0.62850  0.48780  0.80590  Biso   1.000  H
  C1651    1.0000 0.63819  0.45256  0.81887  Biso   1.000  C
  O899     1.0000 0.61170  0.41729  0.81034  Biso   1.000  O
  C1652    1.0000 0.65457  0.43961  0.83470  Biso   1.000  C
  H620     1.0000 0.65300  0.42170  0.83680  Biso   1.000  H
  C1653    1.0000 0.67320  0.45289  0.84740  Biso   1.000  C
  C1654    1.0000 0.69280  0.43880  0.86200  Biso   1.000  C
  C1655    1.0000 0.67470  0.47876  0.84530  Biso   1.000  C
  H621     1.0000 0.68790  0.48750  0.85400  Biso   1.000  H
  C1656    1.0000 0.70120  0.62950  0.93100  Biso   1.000  C
  C1657    1.0000 0.68310  0.64670  0.94510  Biso   1.000  C
  C1658    1.0000 0.66780  0.66310  0.93122  Biso   1.000  C
  H622     1.0000 0.66680  0.66190  0.91320  Biso   1.000  H
  C1659    1.0000 0.65400  0.68150  0.94433  Biso   1.000  C
  C1660    1.0000 0.63950  0.70150  0.93015  Biso   1.000  C
  C1661    1.0000 0.65490  0.68210  0.97095  Biso   1.000  C
  H623     1.0000 0.64530  0.69460  0.97970  Biso   1.000  H
  C1662    1.0000 0.68380  0.64782  0.97182  Biso   1.000  C
  H624     1.0000 0.69450  0.63650  0.98090  Biso   1.000  H
  C1663    1.0000 0.66920  0.66499  0.98495  Biso   1.000  C
  C1664    1.0000 0.66970  0.66644  0.01376  Biso   1.000  C
  C1665    1.0000 0.68423  0.64978  0.02835  Biso   1.000  C
  H625     1.0000 0.69410  0.63710  0.02000  Biso   1.000  H
  C1666    1.0000 0.68472  0.65116  0.05464  Biso   1.000  C
  C1667    1.0000 0.70220  0.63485  0.06979  Biso   1.000  C
  C1668    1.0000 0.67039  0.66920  0.06715  Biso   1.000  C
  H626     1.0000 0.67000  0.66980  0.08520  Biso   1.000  H
  C1669    1.0000 0.65639  0.68662  0.05246  Biso   1.000  C
  C1670    1.0000 0.64259  0.70786  0.06586  Biso   1.000  C
  C1671    1.0000 0.65650  0.68532  0.02626  Biso   1.000  C
  H627     1.0000 0.64730  0.69760  0.01670  Biso   1.000  H
  C1672    1.0000 0.54304  0.56849  0.74630  Biso   1.000  C
  C1673    1.0000 0.51866  0.55376  0.74720  Biso   1.000  C
  C1674    1.0000 0.49579  0.56686  0.74750  Biso   1.000  C
  H628     1.0000 0.49560  0.58490  0.74660  Biso   1.000  H
  C1675    1.0000 0.47357  0.55368  0.74900  Biso   1.000  C
  C1676    1.0000 0.44931  0.56838  0.74920  Biso   1.000  C
  C1677    1.0000 0.47338  0.52750  0.75000  Biso   1.000  C
  H629     1.0000 0.45770  0.51870  0.75140  Biso   1.000  H
  C1678    1.0000 0.49617  0.51402  0.74900  Biso   1.000  C
  C1679    1.0000 0.51882  0.52760  0.74840  Biso   1.000  C
  H630     1.0000 0.53460  0.51880  0.74890  Biso   1.000  H
  O900     1.0000 0.77918  0.63293  0.84533  Biso   1.000  O
  C1680    1.0000 0.61995  0.43824  0.80220  Biso   1.000  C
  Zn241    1.0000 0.28024  0.87890  0.87599  Biso   1.000  Zn
  Zn242    1.0000 0.22280  0.87437  0.88053  Biso   1.000  Zn
  Zn243    1.0000 0.25101  0.92790  0.87944  Biso   1.000  Zn
  Zn244    1.0000 0.25020  0.89437  0.92958  Biso   1.000  Zn
  Zn245    1.0000 0.38138  0.87313  0.76855  Biso   1.000  Zn
  Zn246    1.0000 0.38776  0.88376  0.70935  Biso   1.000  Zn
  Zn247    1.0000 0.40219  0.92855  0.74644  Biso   1.000  Zn
  Zn248    1.0000 0.43576  0.87974  0.74368  Biso   1.000  Zn
  O901     1.0000 0.25911  0.88302  0.83831  Biso   1.000  O
  O902     1.0000 0.15710  0.87023  0.78185  Biso   1.000  O
  O903     1.0000 0.16534  0.88467  0.74299  Biso   1.000  O
  O904     1.0000 0.34427  0.87604  0.75524  Biso   1.000  O
  O905     1.0000 0.35089  0.89310  0.71670  Biso   1.000  O
  O906     1.0000 0.24729  0.88646  0.66219  Biso   1.000  O
  O907     1.0000 0.28820  0.87960  0.65316  Biso   1.000  O
  O908     1.0000 0.30560  0.90102  0.85969  Biso   1.000  O
  O909     1.0000 0.28346  0.93710  0.86345  Biso   1.000  O
  O910     1.0000 0.37308  0.90207  0.79365  Biso   1.000  O
  O911     1.0000 0.38442  0.93939  0.77680  Biso   1.000  O
  O912     1.0000 0.38525  0.05246  0.78107  Biso   1.000  O
  O913     1.0000 0.31300  0.08122  0.87288  Biso   1.000  O
  O914     1.0000 0.28477  0.05170  0.86070  Biso   1.000  O
  O915     1.0000 0.30306  0.87479  0.90851  Biso   1.000  O
  O916     1.0000 0.27931  0.87793  0.94362  Biso   1.000  O
  O917     1.0000 0.36100  0.77657  0.94078  Biso   1.000  O
  O918     1.0000 0.36974  0.80355  0.90919  Biso   1.000  O
  O919     1.0000 0.30126  0.86438  0.09392  Biso   1.000  O
  O920     1.0000 0.28118  0.87745  0.05812  Biso   1.000  O
  O921     1.0000 0.36254  0.77334  0.05211  Biso   1.000  O
  O922     1.0000 0.36267  0.79439  0.08841  Biso   1.000  O
  O923     1.0000 0.45932  0.90836  0.74330  Biso   1.000  O
  O924     1.0000 0.43654  0.94336  0.74781  Biso   1.000  O
  O925     1.0000 0.54881  0.90782  0.74678  Biso   1.000  O
  O926     1.0000 0.57135  0.94378  0.75155  Biso   1.000  O
  O927     1.0000 0.40179  0.89243  0.74300  Biso   1.000  O
  O928     1.0000 0.25088  0.89401  0.89306  Biso   1.000  O
  C1681    1.0000 0.23830  0.87580  0.83172  Biso   1.000  C
  C1682    1.0000 0.23170  0.87670  0.80378  Biso   1.000  C
  C1683    1.0000 0.20620  0.87580  0.79671  Biso   1.000  C
  H631     1.0000 0.19330  0.87420  0.80930  Biso   1.000  H
  C1684    1.0000 0.19974  0.87730  0.77135  Biso   1.000  C
  C1685    1.0000 0.17182  0.87780  0.76490  Biso   1.000  C
  C1686    1.0000 0.21860  0.87890  0.75301  Biso   1.000  C
  H632     1.0000 0.21400  0.87960  0.73560  Biso   1.000  H
  C1687    1.0000 0.25042  0.87880  0.78524  Biso   1.000  C
  H633     1.0000 0.26770  0.87990  0.79020  Biso   1.000  H
  C1688    1.0000 0.24427  0.87940  0.75966  Biso   1.000  C
  C1689    1.0000 0.26454  0.88050  0.73980  Biso   1.000  C
  C1690    1.0000 0.25858  0.88190  0.71433  Biso   1.000  C
  H634     1.0000 0.24120  0.88210  0.70940  Biso   1.000  H
  C1691    1.0000 0.29045  0.88070  0.74590  Biso   1.000  C
  H635     1.0000 0.29550  0.87910  0.76320  Biso   1.000  H
  C1692    1.0000 0.30893  0.88300  0.72730  Biso   1.000  C
  C1693    1.0000 0.33680  0.88340  0.73370  Biso   1.000  C
  C1694    1.0000 0.30220  0.88450  0.70260  Biso   1.000  C
  H636     1.0000 0.31490  0.88670  0.68990  Biso   1.000  H
  C1695    1.0000 0.27705  0.88300  0.69569  Biso   1.000  C
  C1696    1.0000 0.27010  0.88360  0.66802  Biso   1.000  C
  C1697    1.0000 0.30218  0.92453  0.85589  Biso   1.000  C
  C1698    1.0000 0.32238  0.93866  0.84154  Biso   1.000  C
  C1699    1.0000 0.33891  0.92548  0.82584  Biso   1.000  C
  H637     1.0000 0.33860  0.90740  0.82520  Biso   1.000  H
  C1700    1.0000 0.35589  0.93927  0.81099  Biso   1.000  C
  C1701    1.0000 0.37251  0.92571  0.79229  Biso   1.000  C
  C1702    1.0000 0.35711  0.96546  0.81291  Biso   1.000  C
  H638     1.0000 0.36920  0.97460  0.80310  Biso   1.000  H
  C1703    1.0000 0.32334  0.96505  0.84303  Biso   1.000  C
  H639     1.0000 0.31180  0.97380  0.85380  Biso   1.000  H
  C1704    1.0000 0.34080  0.97850  0.82904  Biso   1.000  C
  C1705    1.0000 0.34241  0.00731  0.83082  Biso   1.000  C
  C1706    1.0000 0.36021  0.02100  0.81695  Biso   1.000  C
  H640     1.0000 0.37150  0.01220  0.80590  Biso   1.000  H
  C1707    1.0000 0.36181  0.04744  0.81887  Biso   1.000  C
  O929     1.0000 0.38830  0.08271  0.81034  Biso   1.000  O
  C1708    1.0000 0.34543  0.06039  0.83470  Biso   1.000  C
  H641     1.0000 0.34700  0.07830  0.83680  Biso   1.000  H
  C1709    1.0000 0.32680  0.04711  0.84740  Biso   1.000  C
  C1710    1.0000 0.30720  0.06120  0.86200  Biso   1.000  C
  C1711    1.0000 0.32530  0.02124  0.84530  Biso   1.000  C
  H642     1.0000 0.31210  0.01250  0.85400  Biso   1.000  H
  C1712    1.0000 0.29880  0.87050  0.93100  Biso   1.000  C
  C1713    1.0000 0.31690  0.85330  0.94510  Biso   1.000  C
  C1714    1.0000 0.33220  0.83690  0.93122  Biso   1.000  C
  H643     1.0000 0.33320  0.83810  0.91320  Biso   1.000  H
  C1715    1.0000 0.34600  0.81850  0.94433  Biso   1.000  C
  C1716    1.0000 0.36050  0.79850  0.93015  Biso   1.000  C
  C1717    1.0000 0.34510  0.81790  0.97095  Biso   1.000  C
  H644     1.0000 0.35470  0.80540  0.97970  Biso   1.000  H
  C1718    1.0000 0.31620  0.85218  0.97182  Biso   1.000  C
  H645     1.0000 0.30550  0.86350  0.98090  Biso   1.000  H
  C1719    1.0000 0.33080  0.83501  0.98495  Biso   1.000  C
  C1720    1.0000 0.33030  0.83356  0.01376  Biso   1.000  C
  C1721    1.0000 0.31577  0.85022  0.02835  Biso   1.000  C
  H646     1.0000 0.30590  0.86290  0.02000  Biso   1.000  H
  C1722    1.0000 0.31528  0.84884  0.05464  Biso   1.000  C
  C1723    1.0000 0.29780  0.86515  0.06979  Biso   1.000  C
  C1724    1.0000 0.32961  0.83080  0.06715  Biso   1.000  C
  H647     1.0000 0.33000  0.83020  0.08520  Biso   1.000  H
  C1725    1.0000 0.34361  0.81338  0.05246  Biso   1.000  C
  C1726    1.0000 0.35741  0.79214  0.06586  Biso   1.000  C
  C1727    1.0000 0.34350  0.81468  0.02626  Biso   1.000  C
  H648     1.0000 0.35270  0.80240  0.01670  Biso   1.000  H
  C1728    1.0000 0.45696  0.93151  0.74630  Biso   1.000  C
  C1729    1.0000 0.48134  0.94624  0.74720  Biso   1.000  C
  C1730    1.0000 0.50421  0.93314  0.74750  Biso   1.000  C
  H649     1.0000 0.50440  0.91510  0.74660  Biso   1.000  H
  C1731    1.0000 0.52643  0.94632  0.74900  Biso   1.000  C
  C1732    1.0000 0.55069  0.93162  0.74920  Biso   1.000  C
  C1733    1.0000 0.52662  0.97250  0.75000  Biso   1.000  C
  H650     1.0000 0.54230  0.98130  0.75140  Biso   1.000  H
  C1734    1.0000 0.50383  0.98598  0.74900  Biso   1.000  C
  C1735    1.0000 0.48118  0.97240  0.74840  Biso   1.000  C
  H651     1.0000 0.46540  0.98120  0.74890  Biso   1.000  H
  O930     1.0000 0.22082  0.86707  0.84533  Biso   1.000  O
  C1736    1.0000 0.38005  0.06176  0.80220  Biso   1.000  C
  Zn249    1.0000 0.78024  0.37890  0.37599  Biso   1.000  Zn
  Zn250    1.0000 0.72280  0.37437  0.38053  Biso   1.000  Zn
  Zn251    1.0000 0.75101  0.42790  0.37944  Biso   1.000  Zn
  Zn252    1.0000 0.75020  0.39437  0.42958  Biso   1.000  Zn
  Zn253    1.0000 0.88138  0.37313  0.26855  Biso   1.000  Zn
  Zn254    1.0000 0.88776  0.38376  0.20935  Biso   1.000  Zn
  Zn255    1.0000 0.90219  0.42855  0.24644  Biso   1.000  Zn
  Zn256    1.0000 0.93576  0.37974  0.24368  Biso   1.000  Zn
  O931     1.0000 0.75911  0.38302  0.33831  Biso   1.000  O
  O932     1.0000 0.65710  0.37023  0.28185  Biso   1.000  O
  O933     1.0000 0.66534  0.38467  0.24299  Biso   1.000  O
  O934     1.0000 0.84427  0.37604  0.25524  Biso   1.000  O
  O935     1.0000 0.85089  0.39310  0.21670  Biso   1.000  O
  O936     1.0000 0.74729  0.38646  0.16219  Biso   1.000  O
  O937     1.0000 0.78820  0.37960  0.15316  Biso   1.000  O
  O938     1.0000 0.80560  0.40102  0.35969  Biso   1.000  O
  O939     1.0000 0.78346  0.43710  0.36345  Biso   1.000  O
  O940     1.0000 0.87308  0.40207  0.29365  Biso   1.000  O
  O941     1.0000 0.88442  0.43939  0.27680  Biso   1.000  O
  O942     1.0000 0.88525  0.55246  0.28107  Biso   1.000  O
  O943     1.0000 0.81300  0.58122  0.37288  Biso   1.000  O
  O944     1.0000 0.78477  0.55170  0.36070  Biso   1.000  O
  O945     1.0000 0.80306  0.37479  0.40851  Biso   1.000  O
  O946     1.0000 0.77931  0.37793  0.44362  Biso   1.000  O
  O947     1.0000 0.86100  0.27657  0.44078  Biso   1.000  O
  O948     1.0000 0.86974  0.30355  0.40919  Biso   1.000  O
  O949     1.0000 0.80126  0.36438  0.59392  Biso   1.000  O
  O950     1.0000 0.78118  0.37745  0.55812  Biso   1.000  O
  O951     1.0000 0.86254  0.27334  0.55211  Biso   1.000  O
  O952     1.0000 0.86267  0.29439  0.58841  Biso   1.000  O
  O953     1.0000 0.95932  0.40836  0.24330  Biso   1.000  O
  O954     1.0000 0.93654  0.44336  0.24781  Biso   1.000  O
  O955     1.0000 0.04881  0.40782  0.24678  Biso   1.000  O
  O956     1.0000 0.07135  0.44378  0.25155  Biso   1.000  O
  O957     1.0000 0.90179  0.39243  0.24300  Biso   1.000  O
  O958     1.0000 0.75088  0.39401  0.39306  Biso   1.000  O
  C1737    1.0000 0.73830  0.37580  0.33172  Biso   1.000  C
  C1738    1.0000 0.73170  0.37670  0.30378  Biso   1.000  C
  C1739    1.0000 0.70620  0.37580  0.29671  Biso   1.000  C
  H652     1.0000 0.69330  0.37420  0.30930  Biso   1.000  H
  C1740    1.0000 0.69974  0.37730  0.27135  Biso   1.000  C
  C1741    1.0000 0.67182  0.37780  0.26490  Biso   1.000  C
  C1742    1.0000 0.71860  0.37890  0.25301  Biso   1.000  C
  H653     1.0000 0.71400  0.37960  0.23560  Biso   1.000  H
  C1743    1.0000 0.75042  0.37880  0.28524  Biso   1.000  C
  H654     1.0000 0.76770  0.37990  0.29020  Biso   1.000  H
  C1744    1.0000 0.74427  0.37940  0.25966  Biso   1.000  C
  C1745    1.0000 0.76454  0.38050  0.23980  Biso   1.000  C
  C1746    1.0000 0.75858  0.38190  0.21433  Biso   1.000  C
  H655     1.0000 0.74120  0.38210  0.20940  Biso   1.000  H
  C1747    1.0000 0.79045  0.38070  0.24590  Biso   1.000  C
  H656     1.0000 0.79550  0.37910  0.26320  Biso   1.000  H
  C1748    1.0000 0.80893  0.38300  0.22730  Biso   1.000  C
  C1749    1.0000 0.83680  0.38340  0.23370  Biso   1.000  C
  C1750    1.0000 0.80220  0.38450  0.20260  Biso   1.000  C
  H657     1.0000 0.81490  0.38670  0.18990  Biso   1.000  H
  C1751    1.0000 0.77705  0.38300  0.19569  Biso   1.000  C
  C1752    1.0000 0.77010  0.38360  0.16802  Biso   1.000  C
  C1753    1.0000 0.80218  0.42453  0.35589  Biso   1.000  C
  C1754    1.0000 0.82238  0.43866  0.34154  Biso   1.000  C
  C1755    1.0000 0.83891  0.42548  0.32584  Biso   1.000  C
  H658     1.0000 0.83860  0.40740  0.32520  Biso   1.000  H
  C1756    1.0000 0.85589  0.43927  0.31099  Biso   1.000  C
  C1757    1.0000 0.87251  0.42571  0.29229  Biso   1.000  C
  C1758    1.0000 0.85711  0.46546  0.31291  Biso   1.000  C
  H659     1.0000 0.86920  0.47460  0.30310  Biso   1.000  H
  C1759    1.0000 0.82334  0.46505  0.34303  Biso   1.000  C
  H660     1.0000 0.81180  0.47380  0.35380  Biso   1.000  H
  C1760    1.0000 0.84080  0.47850  0.32904  Biso   1.000  C
  C1761    1.0000 0.84241  0.50731  0.33082  Biso   1.000  C
  C1762    1.0000 0.86021  0.52100  0.31695  Biso   1.000  C
  H661     1.0000 0.87150  0.51220  0.30590  Biso   1.000  H
  C1763    1.0000 0.86181  0.54744  0.31887  Biso   1.000  C
  O959     1.0000 0.88830  0.58271  0.31034  Biso   1.000  O
  C1764    1.0000 0.84543  0.56039  0.33470  Biso   1.000  C
  H662     1.0000 0.84700  0.57830  0.33680  Biso   1.000  H
  C1765    1.0000 0.82680  0.54711  0.34740  Biso   1.000  C
  C1766    1.0000 0.80720  0.56120  0.36200  Biso   1.000  C
  C1767    1.0000 0.82530  0.52124  0.34530  Biso   1.000  C
  H663     1.0000 0.81210  0.51250  0.35400  Biso   1.000  H
  C1768    1.0000 0.79880  0.37050  0.43100  Biso   1.000  C
  C1769    1.0000 0.81690  0.35330  0.44510  Biso   1.000  C
  C1770    1.0000 0.83220  0.33690  0.43122  Biso   1.000  C
  H664     1.0000 0.83320  0.33810  0.41320  Biso   1.000  H
  C1771    1.0000 0.84600  0.31850  0.44433  Biso   1.000  C
  C1772    1.0000 0.86050  0.29850  0.43015  Biso   1.000  C
  C1773    1.0000 0.84510  0.31790  0.47095  Biso   1.000  C
  H665     1.0000 0.85470  0.30540  0.47970  Biso   1.000  H
  C1774    1.0000 0.81620  0.35218  0.47182  Biso   1.000  C
  H666     1.0000 0.80550  0.36350  0.48090  Biso   1.000  H
  C1775    1.0000 0.83080  0.33501  0.48495  Biso   1.000  C
  C1776    1.0000 0.83030  0.33356  0.51376  Biso   1.000  C
  C1777    1.0000 0.81577  0.35022  0.52835  Biso   1.000  C
  H667     1.0000 0.80590  0.36290  0.52000  Biso   1.000  H
  C1778    1.0000 0.81528  0.34884  0.55464  Biso   1.000  C
  C1779    1.0000 0.79780  0.36515  0.56979  Biso   1.000  C
  C1780    1.0000 0.82961  0.33080  0.56715  Biso   1.000  C
  H668     1.0000 0.83000  0.33020  0.58520  Biso   1.000  H
  C1781    1.0000 0.84361  0.31338  0.55246  Biso   1.000  C
  C1782    1.0000 0.85741  0.29214  0.56586  Biso   1.000  C
  C1783    1.0000 0.84350  0.31468  0.52626  Biso   1.000  C
  H669     1.0000 0.85270  0.30240  0.51670  Biso   1.000  H
  C1784    1.0000 0.95696  0.43151  0.24630  Biso   1.000  C
  C1785    1.0000 0.98134  0.44624  0.24720  Biso   1.000  C
  C1786    1.0000 0.00421  0.43314  0.24750  Biso   1.000  C
  H670     1.0000 0.00440  0.41510  0.24660  Biso   1.000  H
  C1787    1.0000 0.02643  0.44632  0.24900  Biso   1.000  C
  C1788    1.0000 0.05069  0.43162  0.24920  Biso   1.000  C
  C1789    1.0000 0.02662  0.47250  0.25000  Biso   1.000  C
  H671     1.0000 0.04230  0.48130  0.25140  Biso   1.000  H
  C1790    1.0000 0.00383  0.48598  0.24900  Biso   1.000  C
  C1791    1.0000 0.98118  0.47240  0.24840  Biso   1.000  C
  H672     1.0000 0.96540  0.48120  0.24890  Biso   1.000  H
  O960     1.0000 0.72082  0.36707  0.34533  Biso   1.000  O
  C1792    1.0000 0.88005  0.56176  0.30220  Biso   1.000  C
  Zn257    1.0000 0.12401  0.78024  0.62110  Biso   1.000  Zn
  Zn258    1.0000 0.11947  0.72280  0.62563  Biso   1.000  Zn
  Zn259    1.0000 0.12056  0.75101  0.57210  Biso   1.000  Zn
  Zn260    1.0000 0.07042  0.75020  0.60563  Biso   1.000  Zn
  Zn261    1.0000 0.23145  0.88138  0.62687  Biso   1.000  Zn
  Zn262    1.0000 0.29065  0.88776  0.61624  Biso   1.000  Zn
  Zn263    1.0000 0.25356  0.90219  0.57145  Biso   1.000  Zn
  Zn264    1.0000 0.25632  0.93576  0.62026  Biso   1.000  Zn
  O961     1.0000 0.16169  0.75911  0.61698  Biso   1.000  O
  O962     1.0000 0.21815  0.65710  0.62977  Biso   1.000  O
  O963     1.0000 0.25701  0.66534  0.61533  Biso   1.000  O
  O964     1.0000 0.24476  0.84427  0.62396  Biso   1.000  O
  O965     1.0000 0.28330  0.85089  0.60690  Biso   1.000  O
  O966     1.0000 0.33781  0.74729  0.61354  Biso   1.000  O
  O967     1.0000 0.34684  0.78820  0.62040  Biso   1.000  O
  O968     1.0000 0.14031  0.80560  0.59898  Biso   1.000  O
  O969     1.0000 0.13655  0.78346  0.56290  Biso   1.000  O
  O970     1.0000 0.20635  0.87308  0.59793  Biso   1.000  O
  O971     1.0000 0.22320  0.88442  0.56061  Biso   1.000  O
  O972     1.0000 0.21893  0.88525  0.44754  Biso   1.000  O
  O973     1.0000 0.12712  0.81300  0.41878  Biso   1.000  O
  O974     1.0000 0.13930  0.78477  0.44830  Biso   1.000  O
  O975     1.0000 0.09149  0.80306  0.62521  Biso   1.000  O
  O976     1.0000 0.05638  0.77931  0.62207  Biso   1.000  O
  O977     1.0000 0.05922  0.86100  0.72343  Biso   1.000  O
  O978     1.0000 0.09081  0.86974  0.69645  Biso   1.000  O
  O979     1.0000 0.90608  0.80126  0.63562  Biso   1.000  O
  O980     1.0000 0.94188  0.78118  0.62255  Biso   1.000  O
  O981     1.0000 0.94789  0.86254  0.72666  Biso   1.000  O
  O982     1.0000 0.91159  0.86267  0.70561  Biso   1.000  O
  O983     1.0000 0.25670  0.95932  0.59164  Biso   1.000  O
  O984     1.0000 0.25219  0.93654  0.55664  Biso   1.000  O
  O985     1.0000 0.25322  0.04881  0.59218  Biso   1.000  O
  O986     1.0000 0.24845  0.07135  0.55622  Biso   1.000  O
  O987     1.0000 0.25700  0.90179  0.60757  Biso   1.000  O
  O988     1.0000 0.10694  0.75088  0.60599  Biso   1.000  O
  C1793    1.0000 0.16828  0.73830  0.62420  Biso   1.000  C
  C1794    1.0000 0.19622  0.73170  0.62330  Biso   1.000  C
  C1795    1.0000 0.20329  0.70620  0.62420  Biso   1.000  C
  H673     1.0000 0.19070  0.69330  0.62580  Biso   1.000  H
  C1796    1.0000 0.22865  0.69974  0.62270  Biso   1.000  C
  C1797    1.0000 0.23510  0.67182  0.62220  Biso   1.000  C
  C1798    1.0000 0.24699  0.71860  0.62110  Biso   1.000  C
  H674     1.0000 0.26440  0.71400  0.62040  Biso   1.000  H
  C1799    1.0000 0.21476  0.75042  0.62120  Biso   1.000  C
  H675     1.0000 0.20980  0.76770  0.62010  Biso   1.000  H
  C1800    1.0000 0.24034  0.74427  0.62060  Biso   1.000  C
  C1801    1.0000 0.26020  0.76454  0.61950  Biso   1.000  C
  C1802    1.0000 0.28567  0.75858  0.61810  Biso   1.000  C
  H676     1.0000 0.29060  0.74120  0.61790  Biso   1.000  H
  C1803    1.0000 0.25410  0.79045  0.61930  Biso   1.000  C
  H677     1.0000 0.23680  0.79550  0.62090  Biso   1.000  H
  C1804    1.0000 0.27270  0.80893  0.61700  Biso   1.000  C
  C1805    1.0000 0.26630  0.83680  0.61660  Biso   1.000  C
  C1806    1.0000 0.29740  0.80220  0.61550  Biso   1.000  C
  H678     1.0000 0.31010  0.81490  0.61330  Biso   1.000  H
  C1807    1.0000 0.30431  0.77705  0.61700  Biso   1.000  C
  C1808    1.0000 0.33198  0.77010  0.61640  Biso   1.000  C
  C1809    1.0000 0.14411  0.80218  0.57547  Biso   1.000  C
  C1810    1.0000 0.15846  0.82238  0.56134  Biso   1.000  C
  C1811    1.0000 0.17416  0.83891  0.57452  Biso   1.000  C
  H679     1.0000 0.17480  0.83860  0.59260  Biso   1.000  H
  C1812    1.0000 0.18901  0.85589  0.56073  Biso   1.000  C
  C1813    1.0000 0.20771  0.87251  0.57429  Biso   1.000  C
  C1814    1.0000 0.18709  0.85711  0.53454  Biso   1.000  C
  H680     1.0000 0.19690  0.86920  0.52540  Biso   1.000  H
  C1815    1.0000 0.15697  0.82334  0.53495  Biso   1.000  C
  H681     1.0000 0.14620  0.81180  0.52620  Biso   1.000  H
  C1816    1.0000 0.17096  0.84080  0.52150  Biso   1.000  C
  C1817    1.0000 0.16918  0.84241  0.49269  Biso   1.000  C
  C1818    1.0000 0.18305  0.86021  0.47900  Biso   1.000  C
  H682     1.0000 0.19410  0.87150  0.48780  Biso   1.000  H
  C1819    1.0000 0.18113  0.86181  0.45256  Biso   1.000  C
  O989     1.0000 0.18966  0.88830  0.41729  Biso   1.000  O
  C1820    1.0000 0.16530  0.84543  0.43961  Biso   1.000  C
  H683     1.0000 0.16320  0.84700  0.42170  Biso   1.000  H
  C1821    1.0000 0.15260  0.82680  0.45289  Biso   1.000  C
  C1822    1.0000 0.13800  0.80720  0.43880  Biso   1.000  C
  C1823    1.0000 0.15470  0.82530  0.47876  Biso   1.000  C
  H684     1.0000 0.14600  0.81210  0.48750  Biso   1.000  H
  C1824    1.0000 0.06900  0.79880  0.62950  Biso   1.000  C
  C1825    1.0000 0.05490  0.81690  0.64670  Biso   1.000  C
  C1826    1.0000 0.06878  0.83220  0.66310  Biso   1.000  C
  H685     1.0000 0.08680  0.83320  0.66190  Biso   1.000  H
  C1827    1.0000 0.05567  0.84600  0.68150  Biso   1.000  C
  C1828    1.0000 0.06985  0.86050  0.70150  Biso   1.000  C
  C1829    1.0000 0.02905  0.84510  0.68210  Biso   1.000  C
  H686     1.0000 0.02030  0.85470  0.69460  Biso   1.000  H
  C1830    1.0000 0.02818  0.81620  0.64782  Biso   1.000  C
  H687     1.0000 0.01910  0.80550  0.63650  Biso   1.000  H
  C1831    1.0000 0.01505  0.83080  0.66499  Biso   1.000  C
  C1832    1.0000 0.98624  0.83030  0.66644  Biso   1.000  C
  C1833    1.0000 0.97165  0.81577  0.64978  Biso   1.000  C
  H688     1.0000 0.98000  0.80590  0.63710  Biso   1.000  H
  C1834    1.0000 0.94536  0.81528  0.65116  Biso   1.000  C
  C1835    1.0000 0.93021  0.79780  0.63485  Biso   1.000  C
  C1836    1.0000 0.93285  0.82961  0.66920  Biso   1.000  C
  H689     1.0000 0.91480  0.83000  0.66980  Biso   1.000  H
  C1837    1.0000 0.94754  0.84361  0.68662  Biso   1.000  C
  C1838    1.0000 0.93414  0.85741  0.70786  Biso   1.000  C
  C1839    1.0000 0.97374  0.84350  0.68532  Biso   1.000  C
  H690     1.0000 0.98330  0.85270  0.69760  Biso   1.000  H
  C1840    1.0000 0.25370  0.95696  0.56849  Biso   1.000  C
  C1841    1.0000 0.25280  0.98134  0.55376  Biso   1.000  C
  C1842    1.0000 0.25250  0.00421  0.56686  Biso   1.000  C
  H691     1.0000 0.25340  0.00440  0.58490  Biso   1.000  H
  C1843    1.0000 0.25100  0.02643  0.55368  Biso   1.000  C
  C1844    1.0000 0.25080  0.05069  0.56838  Biso   1.000  C
  C1845    1.0000 0.25000  0.02662  0.52750  Biso   1.000  C
  H692     1.0000 0.24860  0.04230  0.51870  Biso   1.000  H
  C1846    1.0000 0.25100  0.00383  0.51402  Biso   1.000  C
  C1847    1.0000 0.25160  0.98118  0.52760  Biso   1.000  C
  H693     1.0000 0.25110  0.96540  0.51880  Biso   1.000  H
  O990     1.0000 0.15467  0.72082  0.63293  Biso   1.000  O
  C1848    1.0000 0.19780  0.88005  0.43824  Biso   1.000  C
  Zn265    1.0000 0.62401  0.28024  0.12110  Biso   1.000  Zn
  Zn266    1.0000 0.61947  0.22280  0.12563  Biso   1.000  Zn
  Zn267    1.0000 0.62056  0.25101  0.07210  Biso   1.000  Zn
  Zn268    1.0000 0.57042  0.25020  0.10563  Biso   1.000  Zn
  Zn269    1.0000 0.73145  0.38138  0.12687  Biso   1.000  Zn
  Zn270    1.0000 0.79065  0.38776  0.11624  Biso   1.000  Zn
  Zn271    1.0000 0.75356  0.40219  0.07145  Biso   1.000  Zn
  Zn272    1.0000 0.75632  0.43576  0.12026  Biso   1.000  Zn
  O991     1.0000 0.66169  0.25911  0.11698  Biso   1.000  O
  O992     1.0000 0.71815  0.15710  0.12977  Biso   1.000  O
  O993     1.0000 0.75701  0.16534  0.11533  Biso   1.000  O
  O994     1.0000 0.74476  0.34427  0.12396  Biso   1.000  O
  O995     1.0000 0.78330  0.35089  0.10690  Biso   1.000  O
  O996     1.0000 0.83781  0.24729  0.11354  Biso   1.000  O
  O997     1.0000 0.84684  0.28820  0.12040  Biso   1.000  O
  O998     1.0000 0.64031  0.30560  0.09898  Biso   1.000  O
  O999     1.0000 0.63655  0.28346  0.06290  Biso   1.000  O
  O1000    1.0000 0.70635  0.37308  0.09793  Biso   1.000  O
  O1001    1.0000 0.72320  0.38442  0.06061  Biso   1.000  O
  O1002    1.0000 0.71893  0.38525  0.94754  Biso   1.000  O
  O1003    1.0000 0.62712  0.31300  0.91878  Biso   1.000  O
  O1004    1.0000 0.63930  0.28477  0.94830  Biso   1.000  O
  O1005    1.0000 0.59149  0.30306  0.12521  Biso   1.000  O
  O1006    1.0000 0.55638  0.27931  0.12207  Biso   1.000  O
  O1007    1.0000 0.55922  0.36100  0.22343  Biso   1.000  O
  O1008    1.0000 0.59081  0.36974  0.19645  Biso   1.000  O
  O1009    1.0000 0.40608  0.30126  0.13562  Biso   1.000  O
  O1010    1.0000 0.44188  0.28118  0.12255  Biso   1.000  O
  O1011    1.0000 0.44789  0.36254  0.22666  Biso   1.000  O
  O1012    1.0000 0.41159  0.36267  0.20561  Biso   1.000  O
  O1013    1.0000 0.75670  0.45932  0.09164  Biso   1.000  O
  O1014    1.0000 0.75219  0.43654  0.05664  Biso   1.000  O
  O1015    1.0000 0.75322  0.54881  0.09218  Biso   1.000  O
  O1016    1.0000 0.74845  0.57135  0.05622  Biso   1.000  O
  O1017    1.0000 0.75700  0.40179  0.10757  Biso   1.000  O
  O1018    1.0000 0.60694  0.25088  0.10599  Biso   1.000  O
  C1849    1.0000 0.66828  0.23830  0.12420  Biso   1.000  C
  C1850    1.0000 0.69622  0.23170  0.12330  Biso   1.000  C
  C1851    1.0000 0.70329  0.20620  0.12420  Biso   1.000  C
  H694     1.0000 0.69070  0.19330  0.12580  Biso   1.000  H
  C1852    1.0000 0.72865  0.19974  0.12270  Biso   1.000  C
  C1853    1.0000 0.73510  0.17182  0.12220  Biso   1.000  C
  C1854    1.0000 0.74699  0.21860  0.12110  Biso   1.000  C
  H695     1.0000 0.76440  0.21400  0.12040  Biso   1.000  H
  C1855    1.0000 0.71476  0.25042  0.12120  Biso   1.000  C
  H696     1.0000 0.70980  0.26770  0.12010  Biso   1.000  H
  C1856    1.0000 0.74034  0.24427  0.12060  Biso   1.000  C
  C1857    1.0000 0.76020  0.26454  0.11950  Biso   1.000  C
  C1858    1.0000 0.78567  0.25858  0.11810  Biso   1.000  C
  H697     1.0000 0.79060  0.24120  0.11790  Biso   1.000  H
  C1859    1.0000 0.75410  0.29045  0.11930  Biso   1.000  C
  H698     1.0000 0.73680  0.29550  0.12090  Biso   1.000  H
  C1860    1.0000 0.77270  0.30893  0.11700  Biso   1.000  C
  C1861    1.0000 0.76630  0.33680  0.11660  Biso   1.000  C
  C1862    1.0000 0.79740  0.30220  0.11550  Biso   1.000  C
  H699     1.0000 0.81010  0.31490  0.11330  Biso   1.000  H
  C1863    1.0000 0.80431  0.27705  0.11700  Biso   1.000  C
  C1864    1.0000 0.83198  0.27010  0.11640  Biso   1.000  C
  C1865    1.0000 0.64411  0.30218  0.07547  Biso   1.000  C
  C1866    1.0000 0.65846  0.32238  0.06134  Biso   1.000  C
  C1867    1.0000 0.67416  0.33891  0.07452  Biso   1.000  C
  H700     1.0000 0.67480  0.33860  0.09260  Biso   1.000  H
  C1868    1.0000 0.68901  0.35589  0.06073  Biso   1.000  C
  C1869    1.0000 0.70771  0.37251  0.07429  Biso   1.000  C
  C1870    1.0000 0.68709  0.35711  0.03454  Biso   1.000  C
  H701     1.0000 0.69690  0.36920  0.02540  Biso   1.000  H
  C1871    1.0000 0.65697  0.32334  0.03495  Biso   1.000  C
  H702     1.0000 0.64620  0.31180  0.02620  Biso   1.000  H
  C1872    1.0000 0.67096  0.34080  0.02150  Biso   1.000  C
  C1873    1.0000 0.66918  0.34241  0.99269  Biso   1.000  C
  C1874    1.0000 0.68305  0.36021  0.97900  Biso   1.000  C
  H703     1.0000 0.69410  0.37150  0.98780  Biso   1.000  H
  C1875    1.0000 0.68113  0.36181  0.95256  Biso   1.000  C
  O1019    1.0000 0.68966  0.38830  0.91729  Biso   1.000  O
  C1876    1.0000 0.66530  0.34543  0.93961  Biso   1.000  C
  H704     1.0000 0.66320  0.34700  0.92170  Biso   1.000  H
  C1877    1.0000 0.65260  0.32680  0.95289  Biso   1.000  C
  C1878    1.0000 0.63800  0.30720  0.93880  Biso   1.000  C
  C1879    1.0000 0.65470  0.32530  0.97876  Biso   1.000  C
  H705     1.0000 0.64600  0.31210  0.98750  Biso   1.000  H
  C1880    1.0000 0.56900  0.29880  0.12950  Biso   1.000  C
  C1881    1.0000 0.55490  0.31690  0.14670  Biso   1.000  C
  C1882    1.0000 0.56878  0.33220  0.16310  Biso   1.000  C
  H706     1.0000 0.58680  0.33320  0.16190  Biso   1.000  H
  C1883    1.0000 0.55567  0.34600  0.18150  Biso   1.000  C
  C1884    1.0000 0.56985  0.36050  0.20150  Biso   1.000  C
  C1885    1.0000 0.52905  0.34510  0.18210  Biso   1.000  C
  H707     1.0000 0.52030  0.35470  0.19460  Biso   1.000  H
  C1886    1.0000 0.52818  0.31620  0.14782  Biso   1.000  C
  H708     1.0000 0.51910  0.30550  0.13650  Biso   1.000  H
  C1887    1.0000 0.51505  0.33080  0.16499  Biso   1.000  C
  C1888    1.0000 0.48624  0.33030  0.16644  Biso   1.000  C
  C1889    1.0000 0.47165  0.31577  0.14978  Biso   1.000  C
  H709     1.0000 0.48000  0.30590  0.13710  Biso   1.000  H
  C1890    1.0000 0.44536  0.31528  0.15116  Biso   1.000  C
  C1891    1.0000 0.43021  0.29780  0.13485  Biso   1.000  C
  C1892    1.0000 0.43285  0.32961  0.16920  Biso   1.000  C
  H710     1.0000 0.41480  0.33000  0.16980  Biso   1.000  H
  C1893    1.0000 0.44754  0.34361  0.18662  Biso   1.000  C
  C1894    1.0000 0.43414  0.35741  0.20786  Biso   1.000  C
  C1895    1.0000 0.47374  0.34350  0.18532  Biso   1.000  C
  H711     1.0000 0.48330  0.35270  0.19760  Biso   1.000  H
  C1896    1.0000 0.75370  0.45696  0.06849  Biso   1.000  C
  C1897    1.0000 0.75280  0.48134  0.05376  Biso   1.000  C
  C1898    1.0000 0.75250  0.50421  0.06686  Biso   1.000  C
  H712     1.0000 0.75340  0.50440  0.08490  Biso   1.000  H
  C1899    1.0000 0.75100  0.52643  0.05368  Biso   1.000  C
  C1900    1.0000 0.75080  0.55069  0.06838  Biso   1.000  C
  C1901    1.0000 0.75000  0.52662  0.02750  Biso   1.000  C
  H713     1.0000 0.74860  0.54230  0.01870  Biso   1.000  H
  C1902    1.0000 0.75100  0.50383  0.01402  Biso   1.000  C
  C1903    1.0000 0.75160  0.48118  0.02760  Biso   1.000  C
  H714     1.0000 0.75110  0.46540  0.01880  Biso   1.000  H
  O1020    1.0000 0.65467  0.22082  0.13293  Biso   1.000  O
  C1904    1.0000 0.69780  0.38005  0.93824  Biso   1.000  C
  Zn273    1.0000 0.62401  0.71976  0.37890  Biso   1.000  Zn
  Zn274    1.0000 0.61947  0.77720  0.37437  Biso   1.000  Zn
  Zn275    1.0000 0.62056  0.74899  0.42790  Biso   1.000  Zn
  Zn276    1.0000 0.57042  0.74980  0.39437  Biso   1.000  Zn
  Zn277    1.0000 0.73145  0.61862  0.37313  Biso   1.000  Zn
  Zn278    1.0000 0.79065  0.61224  0.38376  Biso   1.000  Zn
  Zn279    1.0000 0.75356  0.59781  0.42855  Biso   1.000  Zn
  Zn280    1.0000 0.75632  0.56424  0.37974  Biso   1.000  Zn
  O1021    1.0000 0.66169  0.74089  0.38302  Biso   1.000  O
  O1022    1.0000 0.71815  0.84290  0.37023  Biso   1.000  O
  O1023    1.0000 0.75701  0.83466  0.38467  Biso   1.000  O
  O1024    1.0000 0.74476  0.65573  0.37604  Biso   1.000  O
  O1025    1.0000 0.78330  0.64911  0.39310  Biso   1.000  O
  O1026    1.0000 0.83781  0.75271  0.38646  Biso   1.000  O
  O1027    1.0000 0.84684  0.71180  0.37960  Biso   1.000  O
  O1028    1.0000 0.64031  0.69440  0.40102  Biso   1.000  O
  O1029    1.0000 0.63655  0.71654  0.43710  Biso   1.000  O
  O1030    1.0000 0.70635  0.62692  0.40207  Biso   1.000  O
  O1031    1.0000 0.72320  0.61558  0.43939  Biso   1.000  O
  O1032    1.0000 0.71893  0.61475  0.55246  Biso   1.000  O
  O1033    1.0000 0.62712  0.68700  0.58122  Biso   1.000  O
  O1034    1.0000 0.63930  0.71523  0.55170  Biso   1.000  O
  O1035    1.0000 0.59149  0.69694  0.37479  Biso   1.000  O
  O1036    1.0000 0.55638  0.72069  0.37793  Biso   1.000  O
  O1037    1.0000 0.55922  0.63900  0.27657  Biso   1.000  O
  O1038    1.0000 0.59081  0.63026  0.30355  Biso   1.000  O
  O1039    1.0000 0.40608  0.69874  0.36438  Biso   1.000  O
  O1040    1.0000 0.44188  0.71882  0.37745  Biso   1.000  O
  O1041    1.0000 0.44789  0.63746  0.27334  Biso   1.000  O
  O1042    1.0000 0.41159  0.63733  0.29439  Biso   1.000  O
  O1043    1.0000 0.75670  0.54068  0.40836  Biso   1.000  O
  O1044    1.0000 0.75219  0.56346  0.44336  Biso   1.000  O
  O1045    1.0000 0.75322  0.45119  0.40782  Biso   1.000  O
  O1046    1.0000 0.74845  0.42865  0.44378  Biso   1.000  O
  O1047    1.0000 0.75700  0.59821  0.39243  Biso   1.000  O
  O1048    1.0000 0.60694  0.74912  0.39401  Biso   1.000  O
  C1905    1.0000 0.66828  0.76170  0.37580  Biso   1.000  C
  C1906    1.0000 0.69622  0.76830  0.37670  Biso   1.000  C
  C1907    1.0000 0.70329  0.79380  0.37580  Biso   1.000  C
  H715     1.0000 0.69070  0.80670  0.37420  Biso   1.000  H
  C1908    1.0000 0.72865  0.80026  0.37730  Biso   1.000  C
  C1909    1.0000 0.73510  0.82818  0.37780  Biso   1.000  C
  C1910    1.0000 0.74699  0.78140  0.37890  Biso   1.000  C
  H716     1.0000 0.76440  0.78600  0.37960  Biso   1.000  H
  C1911    1.0000 0.71476  0.74958  0.37880  Biso   1.000  C
  H717     1.0000 0.70980  0.73230  0.37990  Biso   1.000  H
  C1912    1.0000 0.74034  0.75573  0.37940  Biso   1.000  C
  C1913    1.0000 0.76020  0.73546  0.38050  Biso   1.000  C
  C1914    1.0000 0.78567  0.74142  0.38190  Biso   1.000  C
  H718     1.0000 0.79060  0.75880  0.38210  Biso   1.000  H
  C1915    1.0000 0.75410  0.70955  0.38070  Biso   1.000  C
  H719     1.0000 0.73680  0.70450  0.37910  Biso   1.000  H
  C1916    1.0000 0.77270  0.69107  0.38300  Biso   1.000  C
  C1917    1.0000 0.76630  0.66320  0.38340  Biso   1.000  C
  C1918    1.0000 0.79740  0.69780  0.38450  Biso   1.000  C
  H720     1.0000 0.81010  0.68510  0.38670  Biso   1.000  H
  C1919    1.0000 0.80431  0.72295  0.38300  Biso   1.000  C
  C1920    1.0000 0.83198  0.72990  0.38360  Biso   1.000  C
  C1921    1.0000 0.64411  0.69782  0.42453  Biso   1.000  C
  C1922    1.0000 0.65846  0.67762  0.43866  Biso   1.000  C
  C1923    1.0000 0.67416  0.66109  0.42548  Biso   1.000  C
  H721     1.0000 0.67480  0.66140  0.40740  Biso   1.000  H
  C1924    1.0000 0.68901  0.64411  0.43927  Biso   1.000  C
  C1925    1.0000 0.70771  0.62749  0.42571  Biso   1.000  C
  C1926    1.0000 0.68709  0.64289  0.46546  Biso   1.000  C
  H722     1.0000 0.69690  0.63080  0.47460  Biso   1.000  H
  C1927    1.0000 0.65697  0.67666  0.46505  Biso   1.000  C
  H723     1.0000 0.64620  0.68820  0.47380  Biso   1.000  H
  C1928    1.0000 0.67096  0.65920  0.47850  Biso   1.000  C
  C1929    1.0000 0.66918  0.65759  0.50731  Biso   1.000  C
  C1930    1.0000 0.68305  0.63979  0.52100  Biso   1.000  C
  H724     1.0000 0.69410  0.62850  0.51220  Biso   1.000  H
  C1931    1.0000 0.68113  0.63819  0.54744  Biso   1.000  C
  O1049    1.0000 0.68966  0.61170  0.58271  Biso   1.000  O
  C1932    1.0000 0.66530  0.65457  0.56039  Biso   1.000  C
  H725     1.0000 0.66320  0.65300  0.57830  Biso   1.000  H
  C1933    1.0000 0.65260  0.67320  0.54711  Biso   1.000  C
  C1934    1.0000 0.63800  0.69280  0.56120  Biso   1.000  C
  C1935    1.0000 0.65470  0.67470  0.52124  Biso   1.000  C
  H726     1.0000 0.64600  0.68790  0.51250  Biso   1.000  H
  C1936    1.0000 0.56900  0.70120  0.37050  Biso   1.000  C
  C1937    1.0000 0.55490  0.68310  0.35330  Biso   1.000  C
  C1938    1.0000 0.56878  0.66780  0.33690  Biso   1.000  C
  H727     1.0000 0.58680  0.66680  0.33810  Biso   1.000  H
  C1939    1.0000 0.55567  0.65400  0.31850  Biso   1.000  C
  C1940    1.0000 0.56985  0.63950  0.29850  Biso   1.000  C
  C1941    1.0000 0.52905  0.65490  0.31790  Biso   1.000  C
  H728     1.0000 0.52030  0.64530  0.30540  Biso   1.000  H
  C1942    1.0000 0.52818  0.68380  0.35218  Biso   1.000  C
  H729     1.0000 0.51910  0.69450  0.36350  Biso   1.000  H
  C1943    1.0000 0.51505  0.66920  0.33501  Biso   1.000  C
  C1944    1.0000 0.48624  0.66970  0.33356  Biso   1.000  C
  C1945    1.0000 0.47165  0.68423  0.35022  Biso   1.000  C
  H730     1.0000 0.48000  0.69410  0.36290  Biso   1.000  H
  C1946    1.0000 0.44536  0.68472  0.34884  Biso   1.000  C
  C1947    1.0000 0.43021  0.70220  0.36515  Biso   1.000  C
  C1948    1.0000 0.43285  0.67039  0.33080  Biso   1.000  C
  H731     1.0000 0.41480  0.67000  0.33020  Biso   1.000  H
  C1949    1.0000 0.44754  0.65639  0.31338  Biso   1.000  C
  C1950    1.0000 0.43414  0.64259  0.29214  Biso   1.000  C
  C1951    1.0000 0.47374  0.65650  0.31468  Biso   1.000  C
  H732     1.0000 0.48330  0.64730  0.30240  Biso   1.000  H
  C1952    1.0000 0.75370  0.54304  0.43151  Biso   1.000  C
  C1953    1.0000 0.75280  0.51866  0.44624  Biso   1.000  C
  C1954    1.0000 0.75250  0.49579  0.43314  Biso   1.000  C
  H733     1.0000 0.75340  0.49560  0.41510  Biso   1.000  H
  C1955    1.0000 0.75100  0.47357  0.44632  Biso   1.000  C
  C1956    1.0000 0.75080  0.44931  0.43162  Biso   1.000  C
  C1957    1.0000 0.75000  0.47338  0.47250  Biso   1.000  C
  H734     1.0000 0.74860  0.45770  0.48130  Biso   1.000  H
  C1958    1.0000 0.75100  0.49617  0.48598  Biso   1.000  C
  C1959    1.0000 0.75160  0.51882  0.47240  Biso   1.000  C
  H735     1.0000 0.75110  0.53460  0.48120  Biso   1.000  H
  O1050    1.0000 0.65467  0.77918  0.36707  Biso   1.000  O
  C1960    1.0000 0.69780  0.61995  0.56176  Biso   1.000  C
  Zn281    1.0000 0.12401  0.21976  0.87890  Biso   1.000  Zn
  Zn282    1.0000 0.11947  0.27720  0.87437  Biso   1.000  Zn
  Zn283    1.0000 0.12056  0.24899  0.92790  Biso   1.000  Zn
  Zn284    1.0000 0.07042  0.24980  0.89437  Biso   1.000  Zn
  Zn285    1.0000 0.23145  0.11862  0.87313  Biso   1.000  Zn
  Zn286    1.0000 0.29065  0.11224  0.88376  Biso   1.000  Zn
  Zn287    1.0000 0.25356  0.09781  0.92855  Biso   1.000  Zn
  Zn288    1.0000 0.25632  0.06424  0.87974  Biso   1.000  Zn
  O1051    1.0000 0.16169  0.24089  0.88302  Biso   1.000  O
  O1052    1.0000 0.21815  0.34290  0.87023  Biso   1.000  O
  O1053    1.0000 0.25701  0.33466  0.88467  Biso   1.000  O
  O1054    1.0000 0.24476  0.15573  0.87604  Biso   1.000  O
  O1055    1.0000 0.28330  0.14911  0.89310  Biso   1.000  O
  O1056    1.0000 0.33781  0.25271  0.88646  Biso   1.000  O
  O1057    1.0000 0.34684  0.21180  0.87960  Biso   1.000  O
  O1058    1.0000 0.14031  0.19440  0.90102  Biso   1.000  O
  O1059    1.0000 0.13655  0.21654  0.93710  Biso   1.000  O
  O1060    1.0000 0.20635  0.12692  0.90207  Biso   1.000  O
  O1061    1.0000 0.22320  0.11558  0.93939  Biso   1.000  O
  O1062    1.0000 0.21893  0.11475  0.05246  Biso   1.000  O
  O1063    1.0000 0.12712  0.18700  0.08122  Biso   1.000  O
  O1064    1.0000 0.13930  0.21523  0.05170  Biso   1.000  O
  O1065    1.0000 0.09149  0.19694  0.87479  Biso   1.000  O
  O1066    1.0000 0.05638  0.22069  0.87793  Biso   1.000  O
  O1067    1.0000 0.05922  0.13900  0.77657  Biso   1.000  O
  O1068    1.0000 0.09081  0.13026  0.80355  Biso   1.000  O
  O1069    1.0000 0.90608  0.19874  0.86438  Biso   1.000  O
  O1070    1.0000 0.94188  0.21882  0.87745  Biso   1.000  O
  O1071    1.0000 0.94789  0.13746  0.77334  Biso   1.000  O
  O1072    1.0000 0.91159  0.13733  0.79439  Biso   1.000  O
  O1073    1.0000 0.25670  0.04068  0.90836  Biso   1.000  O
  O1074    1.0000 0.25219  0.06346  0.94336  Biso   1.000  O
  O1075    1.0000 0.25322  0.95119  0.90782  Biso   1.000  O
  O1076    1.0000 0.24845  0.92865  0.94378  Biso   1.000  O
  O1077    1.0000 0.25700  0.09821  0.89243  Biso   1.000  O
  O1078    1.0000 0.10694  0.24912  0.89401  Biso   1.000  O
  C1961    1.0000 0.16828  0.26170  0.87580  Biso   1.000  C
  C1962    1.0000 0.19622  0.26830  0.87670  Biso   1.000  C
  C1963    1.0000 0.20329  0.29380  0.87580  Biso   1.000  C
  H736     1.0000 0.19070  0.30670  0.87420  Biso   1.000  H
  C1964    1.0000 0.22865  0.30026  0.87730  Biso   1.000  C
  C1965    1.0000 0.23510  0.32818  0.87780  Biso   1.000  C
  C1966    1.0000 0.24699  0.28140  0.87890  Biso   1.000  C
  H737     1.0000 0.26440  0.28600  0.87960  Biso   1.000  H
  C1967    1.0000 0.21476  0.24958  0.87880  Biso   1.000  C
  H738     1.0000 0.20980  0.23230  0.87990  Biso   1.000  H
  C1968    1.0000 0.24034  0.25573  0.87940  Biso   1.000  C
  C1969    1.0000 0.26020  0.23546  0.88050  Biso   1.000  C
  C1970    1.0000 0.28567  0.24142  0.88190  Biso   1.000  C
  H739     1.0000 0.29060  0.25880  0.88210  Biso   1.000  H
  C1971    1.0000 0.25410  0.20955  0.88070  Biso   1.000  C
  H740     1.0000 0.23680  0.20450  0.87910  Biso   1.000  H
  C1972    1.0000 0.27270  0.19107  0.88300  Biso   1.000  C
  C1973    1.0000 0.26630  0.16320  0.88340  Biso   1.000  C
  C1974    1.0000 0.29740  0.19780  0.88450  Biso   1.000  C
  H741     1.0000 0.31010  0.18510  0.88670  Biso   1.000  H
  C1975    1.0000 0.30431  0.22295  0.88300  Biso   1.000  C
  C1976    1.0000 0.33198  0.22990  0.88360  Biso   1.000  C
  C1977    1.0000 0.14411  0.19782  0.92453  Biso   1.000  C
  C1978    1.0000 0.15846  0.17762  0.93866  Biso   1.000  C
  C1979    1.0000 0.17416  0.16109  0.92548  Biso   1.000  C
  H742     1.0000 0.17480  0.16140  0.90740  Biso   1.000  H
  C1980    1.0000 0.18901  0.14411  0.93927  Biso   1.000  C
  C1981    1.0000 0.20771  0.12749  0.92571  Biso   1.000  C
  C1982    1.0000 0.18709  0.14289  0.96546  Biso   1.000  C
  H743     1.0000 0.19690  0.13080  0.97460  Biso   1.000  H
  C1983    1.0000 0.15697  0.17666  0.96505  Biso   1.000  C
  H744     1.0000 0.14620  0.18820  0.97380  Biso   1.000  H
  C1984    1.0000 0.17096  0.15920  0.97850  Biso   1.000  C
  C1985    1.0000 0.16918  0.15759  0.00731  Biso   1.000  C
  C1986    1.0000 0.18305  0.13979  0.02100  Biso   1.000  C
  H745     1.0000 0.19410  0.12850  0.01220  Biso   1.000  H
  C1987    1.0000 0.18113  0.13819  0.04744  Biso   1.000  C
  O1079    1.0000 0.18966  0.11170  0.08271  Biso   1.000  O
  C1988    1.0000 0.16530  0.15457  0.06039  Biso   1.000  C
  H746     1.0000 0.16320  0.15300  0.07830  Biso   1.000  H
  C1989    1.0000 0.15260  0.17320  0.04711  Biso   1.000  C
  C1990    1.0000 0.13800  0.19280  0.06120  Biso   1.000  C
  C1991    1.0000 0.15470  0.17470  0.02124  Biso   1.000  C
  H747     1.0000 0.14600  0.18790  0.01250  Biso   1.000  H
  C1992    1.0000 0.06900  0.20120  0.87050  Biso   1.000  C
  C1993    1.0000 0.05490  0.18310  0.85330  Biso   1.000  C
  C1994    1.0000 0.06878  0.16780  0.83690  Biso   1.000  C
  H748     1.0000 0.08680  0.16680  0.83810  Biso   1.000  H
  C1995    1.0000 0.05567  0.15400  0.81850  Biso   1.000  C
  C1996    1.0000 0.06985  0.13950  0.79850  Biso   1.000  C
  C1997    1.0000 0.02905  0.15490  0.81790  Biso   1.000  C
  H749     1.0000 0.02030  0.14530  0.80540  Biso   1.000  H
  C1998    1.0000 0.02818  0.18380  0.85218  Biso   1.000  C
  H750     1.0000 0.01910  0.19450  0.86350  Biso   1.000  H
  C1999    1.0000 0.01505  0.16920  0.83501  Biso   1.000  C
  C2000    1.0000 0.98624  0.16970  0.83356  Biso   1.000  C
  C2001    1.0000 0.97165  0.18423  0.85022  Biso   1.000  C
  H751     1.0000 0.98000  0.19410  0.86290  Biso   1.000  H
  C2002    1.0000 0.94536  0.18472  0.84884  Biso   1.000  C
  C2003    1.0000 0.93021  0.20220  0.86515  Biso   1.000  C
  C2004    1.0000 0.93285  0.17039  0.83080  Biso   1.000  C
  H752     1.0000 0.91480  0.17000  0.83020  Biso   1.000  H
  C2005    1.0000 0.94754  0.15639  0.81338  Biso   1.000  C
  C2006    1.0000 0.93414  0.14259  0.79214  Biso   1.000  C
  C2007    1.0000 0.97374  0.15650  0.81468  Biso   1.000  C
  H753     1.0000 0.98330  0.14730  0.80240  Biso   1.000  H
  C2008    1.0000 0.25370  0.04304  0.93151  Biso   1.000  C
  C2009    1.0000 0.25280  0.01866  0.94624  Biso   1.000  C
  C2010    1.0000 0.25250  0.99579  0.93314  Biso   1.000  C
  H754     1.0000 0.25340  0.99560  0.91510  Biso   1.000  H
  C2011    1.0000 0.25100  0.97357  0.94632  Biso   1.000  C
  C2012    1.0000 0.25080  0.94931  0.93162  Biso   1.000  C
  C2013    1.0000 0.25000  0.97338  0.97250  Biso   1.000  C
  H755     1.0000 0.24860  0.95770  0.98130  Biso   1.000  H
  C2014    1.0000 0.25100  0.99617  0.98598  Biso   1.000  C
  C2015    1.0000 0.25160  0.01882  0.97240  Biso   1.000  C
  H756     1.0000 0.25110  0.03460  0.98120  Biso   1.000  H
  O1080    1.0000 0.15467  0.27918  0.86707  Biso   1.000  O
  C2016    1.0000 0.19780  0.11995  0.06176  Biso   1.000  C
  Zn289    1.0000 0.37599  0.21976  0.12110  Biso   1.000  Zn
  Zn290    1.0000 0.38053  0.27720  0.12563  Biso   1.000  Zn
  Zn291    1.0000 0.37944  0.24899  0.07210  Biso   1.000  Zn
  Zn292    1.0000 0.42958  0.24980  0.10563  Biso   1.000  Zn
  Zn293    1.0000 0.26855  0.11862  0.12687  Biso   1.000  Zn
  Zn294    1.0000 0.20935  0.11224  0.11624  Biso   1.000  Zn
  Zn295    1.0000 0.24644  0.09781  0.07145  Biso   1.000  Zn
  Zn296    1.0000 0.24368  0.06424  0.12026  Biso   1.000  Zn
  O1081    1.0000 0.33831  0.24089  0.11698  Biso   1.000  O
  O1082    1.0000 0.28185  0.34290  0.12977  Biso   1.000  O
  O1083    1.0000 0.24299  0.33466  0.11533  Biso   1.000  O
  O1084    1.0000 0.25524  0.15573  0.12396  Biso   1.000  O
  O1085    1.0000 0.21670  0.14911  0.10690  Biso   1.000  O
  O1086    1.0000 0.16219  0.25271  0.11354  Biso   1.000  O
  O1087    1.0000 0.15316  0.21180  0.12040  Biso   1.000  O
  O1088    1.0000 0.35969  0.19440  0.09898  Biso   1.000  O
  O1089    1.0000 0.36345  0.21654  0.06290  Biso   1.000  O
  O1090    1.0000 0.29365  0.12692  0.09793  Biso   1.000  O
  O1091    1.0000 0.27680  0.11558  0.06061  Biso   1.000  O
  O1092    1.0000 0.28107  0.11475  0.94754  Biso   1.000  O
  O1093    1.0000 0.37288  0.18700  0.91878  Biso   1.000  O
  O1094    1.0000 0.36070  0.21523  0.94830  Biso   1.000  O
  O1095    1.0000 0.40851  0.19694  0.12521  Biso   1.000  O
  O1096    1.0000 0.44362  0.22069  0.12207  Biso   1.000  O
  O1097    1.0000 0.44078  0.13900  0.22343  Biso   1.000  O
  O1098    1.0000 0.40919  0.13026  0.19645  Biso   1.000  O
  O1099    1.0000 0.59392  0.19874  0.13562  Biso   1.000  O
  O1100    1.0000 0.55812  0.21882  0.12255  Biso   1.000  O
  O1101    1.0000 0.55211  0.13746  0.22666  Biso   1.000  O
  O1102    1.0000 0.58841  0.13733  0.20561  Biso   1.000  O
  O1103    1.0000 0.24330  0.04068  0.09164  Biso   1.000  O
  O1104    1.0000 0.24781  0.06346  0.05664  Biso   1.000  O
  O1105    1.0000 0.24678  0.95119  0.09218  Biso   1.000  O
  O1106    1.0000 0.25155  0.92865  0.05622  Biso   1.000  O
  O1107    1.0000 0.24300  0.09821  0.10757  Biso   1.000  O
  O1108    1.0000 0.39306  0.24912  0.10599  Biso   1.000  O
  C2017    1.0000 0.33172  0.26170  0.12420  Biso   1.000  C
  C2018    1.0000 0.30378  0.26830  0.12330  Biso   1.000  C
  C2019    1.0000 0.29671  0.29380  0.12420  Biso   1.000  C
  H757     1.0000 0.30930  0.30670  0.12580  Biso   1.000  H
  C2020    1.0000 0.27135  0.30026  0.12270  Biso   1.000  C
  C2021    1.0000 0.26490  0.32818  0.12220  Biso   1.000  C
  C2022    1.0000 0.25301  0.28140  0.12110  Biso   1.000  C
  H758     1.0000 0.23560  0.28600  0.12040  Biso   1.000  H
  C2023    1.0000 0.28524  0.24958  0.12120  Biso   1.000  C
  H759     1.0000 0.29020  0.23230  0.12010  Biso   1.000  H
  C2024    1.0000 0.25966  0.25573  0.12060  Biso   1.000  C
  C2025    1.0000 0.23980  0.23546  0.11950  Biso   1.000  C
  C2026    1.0000 0.21433  0.24142  0.11810  Biso   1.000  C
  H760     1.0000 0.20940  0.25880  0.11790  Biso   1.000  H
  C2027    1.0000 0.24590  0.20955  0.11930  Biso   1.000  C
  H761     1.0000 0.26320  0.20450  0.12090  Biso   1.000  H
  C2028    1.0000 0.22730  0.19107  0.11700  Biso   1.000  C
  C2029    1.0000 0.23370  0.16320  0.11660  Biso   1.000  C
  C2030    1.0000 0.20260  0.19780  0.11550  Biso   1.000  C
  H762     1.0000 0.18990  0.18510  0.11330  Biso   1.000  H
  C2031    1.0000 0.19569  0.22295  0.11700  Biso   1.000  C
  C2032    1.0000 0.16802  0.22990  0.11640  Biso   1.000  C
  C2033    1.0000 0.35589  0.19782  0.07547  Biso   1.000  C
  C2034    1.0000 0.34154  0.17762  0.06134  Biso   1.000  C
  C2035    1.0000 0.32584  0.16109  0.07452  Biso   1.000  C
  H763     1.0000 0.32520  0.16140  0.09260  Biso   1.000  H
  C2036    1.0000 0.31099  0.14411  0.06073  Biso   1.000  C
  C2037    1.0000 0.29229  0.12749  0.07429  Biso   1.000  C
  C2038    1.0000 0.31291  0.14289  0.03454  Biso   1.000  C
  H764     1.0000 0.30310  0.13080  0.02540  Biso   1.000  H
  C2039    1.0000 0.34303  0.17666  0.03495  Biso   1.000  C
  H765     1.0000 0.35380  0.18820  0.02620  Biso   1.000  H
  C2040    1.0000 0.32904  0.15920  0.02150  Biso   1.000  C
  C2041    1.0000 0.33082  0.15759  0.99269  Biso   1.000  C
  C2042    1.0000 0.31695  0.13979  0.97900  Biso   1.000  C
  H766     1.0000 0.30590  0.12850  0.98780  Biso   1.000  H
  C2043    1.0000 0.31887  0.13819  0.95256  Biso   1.000  C
  O1109    1.0000 0.31034  0.11170  0.91729  Biso   1.000  O
  C2044    1.0000 0.33470  0.15457  0.93961  Biso   1.000  C
  H767     1.0000 0.33680  0.15300  0.92170  Biso   1.000  H
  C2045    1.0000 0.34740  0.17320  0.95289  Biso   1.000  C
  C2046    1.0000 0.36200  0.19280  0.93880  Biso   1.000  C
  C2047    1.0000 0.34530  0.17470  0.97876  Biso   1.000  C
  H768     1.0000 0.35400  0.18790  0.98750  Biso   1.000  H
  C2048    1.0000 0.43100  0.20120  0.12950  Biso   1.000  C
  C2049    1.0000 0.44510  0.18310  0.14670  Biso   1.000  C
  C2050    1.0000 0.43122  0.16780  0.16310  Biso   1.000  C
  H769     1.0000 0.41320  0.16680  0.16190  Biso   1.000  H
  C2051    1.0000 0.44433  0.15400  0.18150  Biso   1.000  C
  C2052    1.0000 0.43015  0.13950  0.20150  Biso   1.000  C
  C2053    1.0000 0.47095  0.15490  0.18210  Biso   1.000  C
  H770     1.0000 0.47970  0.14530  0.19460  Biso   1.000  H
  C2054    1.0000 0.47182  0.18380  0.14782  Biso   1.000  C
  H771     1.0000 0.48090  0.19450  0.13650  Biso   1.000  H
  C2055    1.0000 0.48495  0.16920  0.16499  Biso   1.000  C
  C2056    1.0000 0.51376  0.16970  0.16644  Biso   1.000  C
  C2057    1.0000 0.52835  0.18423  0.14978  Biso   1.000  C
  H772     1.0000 0.52000  0.19410  0.13710  Biso   1.000  H
  C2058    1.0000 0.55464  0.18472  0.15116  Biso   1.000  C
  C2059    1.0000 0.56979  0.20220  0.13485  Biso   1.000  C
  C2060    1.0000 0.56715  0.17039  0.16920  Biso   1.000  C
  H773     1.0000 0.58520  0.17000  0.16980  Biso   1.000  H
  C2061    1.0000 0.55246  0.15639  0.18662  Biso   1.000  C
  C2062    1.0000 0.56586  0.14259  0.20786  Biso   1.000  C
  C2063    1.0000 0.52626  0.15650  0.18532  Biso   1.000  C
  H774     1.0000 0.51670  0.14730  0.19760  Biso   1.000  H
  C2064    1.0000 0.24630  0.04304  0.06849  Biso   1.000  C
  C2065    1.0000 0.24720  0.01866  0.05376  Biso   1.000  C
  C2066    1.0000 0.24750  0.99579  0.06686  Biso   1.000  C
  H775     1.0000 0.24660  0.99560  0.08490  Biso   1.000  H
  C2067    1.0000 0.24900  0.97357  0.05368  Biso   1.000  C
  C2068    1.0000 0.24920  0.94931  0.06838  Biso   1.000  C
  C2069    1.0000 0.25000  0.97338  0.02750  Biso   1.000  C
  H776     1.0000 0.25140  0.95770  0.01870  Biso   1.000  H
  C2070    1.0000 0.24900  0.99617  0.01402  Biso   1.000  C
  C2071    1.0000 0.24840  0.01882  0.02760  Biso   1.000  C
  H777     1.0000 0.24890  0.03460  0.01880  Biso   1.000  H
  O1110    1.0000 0.34533  0.27918  0.13293  Biso   1.000  O
  C2072    1.0000 0.30220  0.11995  0.93824  Biso   1.000  C
  Zn297    1.0000 0.87599  0.71976  0.62110  Biso   1.000  Zn
  Zn298    1.0000 0.88053  0.77720  0.62563  Biso   1.000  Zn
  Zn299    1.0000 0.87944  0.74899  0.57210  Biso   1.000  Zn
  Zn300    1.0000 0.92958  0.74980  0.60563  Biso   1.000  Zn
  Zn301    1.0000 0.76855  0.61862  0.62687  Biso   1.000  Zn
  Zn302    1.0000 0.70935  0.61224  0.61624  Biso   1.000  Zn
  Zn303    1.0000 0.74644  0.59781  0.57145  Biso   1.000  Zn
  Zn304    1.0000 0.74368  0.56424  0.62026  Biso   1.000  Zn
  O1111    1.0000 0.83831  0.74089  0.61698  Biso   1.000  O
  O1112    1.0000 0.78185  0.84290  0.62977  Biso   1.000  O
  O1113    1.0000 0.74299  0.83466  0.61533  Biso   1.000  O
  O1114    1.0000 0.75524  0.65573  0.62396  Biso   1.000  O
  O1115    1.0000 0.71670  0.64911  0.60690  Biso   1.000  O
  O1116    1.0000 0.66219  0.75271  0.61354  Biso   1.000  O
  O1117    1.0000 0.65316  0.71180  0.62040  Biso   1.000  O
  O1118    1.0000 0.85969  0.69440  0.59898  Biso   1.000  O
  O1119    1.0000 0.86345  0.71654  0.56290  Biso   1.000  O
  O1120    1.0000 0.79365  0.62692  0.59793  Biso   1.000  O
  O1121    1.0000 0.77680  0.61558  0.56061  Biso   1.000  O
  O1122    1.0000 0.78107  0.61475  0.44754  Biso   1.000  O
  O1123    1.0000 0.87288  0.68700  0.41878  Biso   1.000  O
  O1124    1.0000 0.86070  0.71523  0.44830  Biso   1.000  O
  O1125    1.0000 0.90851  0.69694  0.62521  Biso   1.000  O
  O1126    1.0000 0.94362  0.72069  0.62207  Biso   1.000  O
  O1127    1.0000 0.94078  0.63900  0.72343  Biso   1.000  O
  O1128    1.0000 0.90919  0.63026  0.69645  Biso   1.000  O
  O1129    1.0000 0.09392  0.69874  0.63562  Biso   1.000  O
  O1130    1.0000 0.05812  0.71882  0.62255  Biso   1.000  O
  O1131    1.0000 0.05211  0.63746  0.72666  Biso   1.000  O
  O1132    1.0000 0.08841  0.63733  0.70561  Biso   1.000  O
  O1133    1.0000 0.74330  0.54068  0.59164  Biso   1.000  O
  O1134    1.0000 0.74781  0.56346  0.55664  Biso   1.000  O
  O1135    1.0000 0.74678  0.45119  0.59218  Biso   1.000  O
  O1136    1.0000 0.75155  0.42865  0.55622  Biso   1.000  O
  O1137    1.0000 0.74300  0.59821  0.60757  Biso   1.000  O
  O1138    1.0000 0.89306  0.74912  0.60599  Biso   1.000  O
  C2073    1.0000 0.83172  0.76170  0.62420  Biso   1.000  C
  C2074    1.0000 0.80378  0.76830  0.62330  Biso   1.000  C
  C2075    1.0000 0.79671  0.79380  0.62420  Biso   1.000  C
  H778     1.0000 0.80930  0.80670  0.62580  Biso   1.000  H
  C2076    1.0000 0.77135  0.80026  0.62270  Biso   1.000  C
  C2077    1.0000 0.76490  0.82818  0.62220  Biso   1.000  C
  C2078    1.0000 0.75301  0.78140  0.62110  Biso   1.000  C
  H779     1.0000 0.73560  0.78600  0.62040  Biso   1.000  H
  C2079    1.0000 0.78524  0.74958  0.62120  Biso   1.000  C
  H780     1.0000 0.79020  0.73230  0.62010  Biso   1.000  H
  C2080    1.0000 0.75966  0.75573  0.62060  Biso   1.000  C
  C2081    1.0000 0.73980  0.73546  0.61950  Biso   1.000  C
  C2082    1.0000 0.71433  0.74142  0.61810  Biso   1.000  C
  H781     1.0000 0.70940  0.75880  0.61790  Biso   1.000  H
  C2083    1.0000 0.74590  0.70955  0.61930  Biso   1.000  C
  H782     1.0000 0.76320  0.70450  0.62090  Biso   1.000  H
  C2084    1.0000 0.72730  0.69107  0.61700  Biso   1.000  C
  C2085    1.0000 0.73370  0.66320  0.61660  Biso   1.000  C
  C2086    1.0000 0.70260  0.69780  0.61550  Biso   1.000  C
  H783     1.0000 0.68990  0.68510  0.61330  Biso   1.000  H
  C2087    1.0000 0.69569  0.72295  0.61700  Biso   1.000  C
  C2088    1.0000 0.66802  0.72990  0.61640  Biso   1.000  C
  C2089    1.0000 0.85589  0.69782  0.57547  Biso   1.000  C
  C2090    1.0000 0.84154  0.67762  0.56134  Biso   1.000  C
  C2091    1.0000 0.82584  0.66109  0.57452  Biso   1.000  C
  H784     1.0000 0.82520  0.66140  0.59260  Biso   1.000  H
  C2092    1.0000 0.81099  0.64411  0.56073  Biso   1.000  C
  C2093    1.0000 0.79229  0.62749  0.57429  Biso   1.000  C
  C2094    1.0000 0.81291  0.64289  0.53454  Biso   1.000  C
  H785     1.0000 0.80310  0.63080  0.52540  Biso   1.000  H
  C2095    1.0000 0.84303  0.67666  0.53495  Biso   1.000  C
  H786     1.0000 0.85380  0.68820  0.52620  Biso   1.000  H
  C2096    1.0000 0.82904  0.65920  0.52150  Biso   1.000  C
  C2097    1.0000 0.83082  0.65759  0.49269  Biso   1.000  C
  C2098    1.0000 0.81695  0.63979  0.47900  Biso   1.000  C
  H787     1.0000 0.80590  0.62850  0.48780  Biso   1.000  H
  C2099    1.0000 0.81887  0.63819  0.45256  Biso   1.000  C
  O1139    1.0000 0.81034  0.61170  0.41729  Biso   1.000  O
  C2100    1.0000 0.83470  0.65457  0.43961  Biso   1.000  C
  H788     1.0000 0.83680  0.65300  0.42170  Biso   1.000  H
  C2101    1.0000 0.84740  0.67320  0.45289  Biso   1.000  C
  C2102    1.0000 0.86200  0.69280  0.43880  Biso   1.000  C
  C2103    1.0000 0.84530  0.67470  0.47876  Biso   1.000  C
  H789     1.0000 0.85400  0.68790  0.48750  Biso   1.000  H
  C2104    1.0000 0.93100  0.70120  0.62950  Biso   1.000  C
  C2105    1.0000 0.94510  0.68310  0.64670  Biso   1.000  C
  C2106    1.0000 0.93122  0.66780  0.66310  Biso   1.000  C
  H790     1.0000 0.91320  0.66680  0.66190  Biso   1.000  H
  C2107    1.0000 0.94433  0.65400  0.68150  Biso   1.000  C
  C2108    1.0000 0.93015  0.63950  0.70150  Biso   1.000  C
  C2109    1.0000 0.97095  0.65490  0.68210  Biso   1.000  C
  H791     1.0000 0.97970  0.64530  0.69460  Biso   1.000  H
  C2110    1.0000 0.97182  0.68380  0.64782  Biso   1.000  C
  H792     1.0000 0.98090  0.69450  0.63650  Biso   1.000  H
  C2111    1.0000 0.98495  0.66920  0.66499  Biso   1.000  C
  C2112    1.0000 0.01376  0.66970  0.66644  Biso   1.000  C
  C2113    1.0000 0.02835  0.68423  0.64978  Biso   1.000  C
  H793     1.0000 0.02000  0.69410  0.63710  Biso   1.000  H
  C2114    1.0000 0.05464  0.68472  0.65116  Biso   1.000  C
  C2115    1.0000 0.06979  0.70220  0.63485  Biso   1.000  C
  C2116    1.0000 0.06715  0.67039  0.66920  Biso   1.000  C
  H794     1.0000 0.08520  0.67000  0.66980  Biso   1.000  H
  C2117    1.0000 0.05246  0.65639  0.68662  Biso   1.000  C
  C2118    1.0000 0.06586  0.64259  0.70786  Biso   1.000  C
  C2119    1.0000 0.02626  0.65650  0.68532  Biso   1.000  C
  H795     1.0000 0.01670  0.64730  0.69760  Biso   1.000  H
  C2120    1.0000 0.74630  0.54304  0.56849  Biso   1.000  C
  C2121    1.0000 0.74720  0.51866  0.55376  Biso   1.000  C
  C2122    1.0000 0.74750  0.49579  0.56686  Biso   1.000  C
  H796     1.0000 0.74660  0.49560  0.58490  Biso   1.000  H
  C2123    1.0000 0.74900  0.47357  0.55368  Biso   1.000  C
  C2124    1.0000 0.74920  0.44931  0.56838  Biso   1.000  C
  C2125    1.0000 0.75000  0.47338  0.52750  Biso   1.000  C
  H797     1.0000 0.75140  0.45770  0.51870  Biso   1.000  H
  C2126    1.0000 0.74900  0.49617  0.51402  Biso   1.000  C
  C2127    1.0000 0.74840  0.51882  0.52760  Biso   1.000  C
  H798     1.0000 0.74890  0.53460  0.51880  Biso   1.000  H
  O1140    1.0000 0.84533  0.77918  0.63293  Biso   1.000  O
  C2128    1.0000 0.80220  0.61995  0.43824  Biso   1.000  C
  Zn305    1.0000 0.87599  0.28024  0.87890  Biso   1.000  Zn
  Zn306    1.0000 0.88053  0.22280  0.87437  Biso   1.000  Zn
  Zn307    1.0000 0.87944  0.25101  0.92790  Biso   1.000  Zn
  Zn308    1.0000 0.92958  0.25020  0.89437  Biso   1.000  Zn
  Zn309    1.0000 0.76855  0.38138  0.87313  Biso   1.000  Zn
  Zn310    1.0000 0.70935  0.38776  0.88376  Biso   1.000  Zn
  Zn311    1.0000 0.74644  0.40219  0.92855  Biso   1.000  Zn
  Zn312    1.0000 0.74368  0.43576  0.87974  Biso   1.000  Zn
  O1141    1.0000 0.83831  0.25911  0.88302  Biso   1.000  O
  O1142    1.0000 0.78185  0.15710  0.87023  Biso   1.000  O
  O1143    1.0000 0.74299  0.16534  0.88467  Biso   1.000  O
  O1144    1.0000 0.75524  0.34427  0.87604  Biso   1.000  O
  O1145    1.0000 0.71670  0.35089  0.89310  Biso   1.000  O
  O1146    1.0000 0.66219  0.24729  0.88646  Biso   1.000  O
  O1147    1.0000 0.65316  0.28820  0.87960  Biso   1.000  O
  O1148    1.0000 0.85969  0.30560  0.90102  Biso   1.000  O
  O1149    1.0000 0.86345  0.28346  0.93710  Biso   1.000  O
  O1150    1.0000 0.79365  0.37308  0.90207  Biso   1.000  O
  O1151    1.0000 0.77680  0.38442  0.93939  Biso   1.000  O
  O1152    1.0000 0.78107  0.38525  0.05246  Biso   1.000  O
  O1153    1.0000 0.87288  0.31300  0.08122  Biso   1.000  O
  O1154    1.0000 0.86070  0.28477  0.05170  Biso   1.000  O
  O1155    1.0000 0.90851  0.30306  0.87479  Biso   1.000  O
  O1156    1.0000 0.94362  0.27931  0.87793  Biso   1.000  O
  O1157    1.0000 0.94078  0.36100  0.77657  Biso   1.000  O
  O1158    1.0000 0.90919  0.36974  0.80355  Biso   1.000  O
  O1159    1.0000 0.09392  0.30126  0.86438  Biso   1.000  O
  O1160    1.0000 0.05812  0.28118  0.87745  Biso   1.000  O
  O1161    1.0000 0.05211  0.36254  0.77334  Biso   1.000  O
  O1162    1.0000 0.08841  0.36267  0.79439  Biso   1.000  O
  O1163    1.0000 0.74330  0.45932  0.90836  Biso   1.000  O
  O1164    1.0000 0.74781  0.43654  0.94336  Biso   1.000  O
  O1165    1.0000 0.74678  0.54881  0.90782  Biso   1.000  O
  O1166    1.0000 0.75155  0.57135  0.94378  Biso   1.000  O
  O1167    1.0000 0.74300  0.40179  0.89243  Biso   1.000  O
  O1168    1.0000 0.89306  0.25088  0.89401  Biso   1.000  O
  C2129    1.0000 0.83172  0.23830  0.87580  Biso   1.000  C
  C2130    1.0000 0.80378  0.23170  0.87670  Biso   1.000  C
  C2131    1.0000 0.79671  0.20620  0.87580  Biso   1.000  C
  H799     1.0000 0.80930  0.19330  0.87420  Biso   1.000  H
  C2132    1.0000 0.77135  0.19974  0.87730  Biso   1.000  C
  C2133    1.0000 0.76490  0.17182  0.87780  Biso   1.000  C
  C2134    1.0000 0.75301  0.21860  0.87890  Biso   1.000  C
  H800     1.0000 0.73560  0.21400  0.87960  Biso   1.000  H
  C2135    1.0000 0.78524  0.25042  0.87880  Biso   1.000  C
  H801     1.0000 0.79020  0.26770  0.87990  Biso   1.000  H
  C2136    1.0000 0.75966  0.24427  0.87940  Biso   1.000  C
  C2137    1.0000 0.73980  0.26454  0.88050  Biso   1.000  C
  C2138    1.0000 0.71433  0.25858  0.88190  Biso   1.000  C
  H802     1.0000 0.70940  0.24120  0.88210  Biso   1.000  H
  C2139    1.0000 0.74590  0.29045  0.88070  Biso   1.000  C
  H803     1.0000 0.76320  0.29550  0.87910  Biso   1.000  H
  C2140    1.0000 0.72730  0.30893  0.88300  Biso   1.000  C
  C2141    1.0000 0.73370  0.33680  0.88340  Biso   1.000  C
  C2142    1.0000 0.70260  0.30220  0.88450  Biso   1.000  C
  H804     1.0000 0.68990  0.31490  0.88670  Biso   1.000  H
  C2143    1.0000 0.69569  0.27705  0.88300  Biso   1.000  C
  C2144    1.0000 0.66802  0.27010  0.88360  Biso   1.000  C
  C2145    1.0000 0.85589  0.30218  0.92453  Biso   1.000  C
  C2146    1.0000 0.84154  0.32238  0.93866  Biso   1.000  C
  C2147    1.0000 0.82584  0.33891  0.92548  Biso   1.000  C
  H805     1.0000 0.82520  0.33860  0.90740  Biso   1.000  H
  C2148    1.0000 0.81099  0.35589  0.93927  Biso   1.000  C
  C2149    1.0000 0.79229  0.37251  0.92571  Biso   1.000  C
  C2150    1.0000 0.81291  0.35711  0.96546  Biso   1.000  C
  H806     1.0000 0.80310  0.36920  0.97460  Biso   1.000  H
  C2151    1.0000 0.84303  0.32334  0.96505  Biso   1.000  C
  H807     1.0000 0.85380  0.31180  0.97380  Biso   1.000  H
  C2152    1.0000 0.82904  0.34080  0.97850  Biso   1.000  C
  C2153    1.0000 0.83082  0.34241  0.00731  Biso   1.000  C
  C2154    1.0000 0.81695  0.36021  0.02100  Biso   1.000  C
  H808     1.0000 0.80590  0.37150  0.01220  Biso   1.000  H
  C2155    1.0000 0.81887  0.36181  0.04744  Biso   1.000  C
  O1169    1.0000 0.81034  0.38830  0.08271  Biso   1.000  O
  C2156    1.0000 0.83470  0.34543  0.06039  Biso   1.000  C
  H809     1.0000 0.83680  0.34700  0.07830  Biso   1.000  H
  C2157    1.0000 0.84740  0.32680  0.04711  Biso   1.000  C
  C2158    1.0000 0.86200  0.30720  0.06120  Biso   1.000  C
  C2159    1.0000 0.84530  0.32530  0.02124  Biso   1.000  C
  H810     1.0000 0.85400  0.31210  0.01250  Biso   1.000  H
  C2160    1.0000 0.93100  0.29880  0.87050  Biso   1.000  C
  C2161    1.0000 0.94510  0.31690  0.85330  Biso   1.000  C
  C2162    1.0000 0.93122  0.33220  0.83690  Biso   1.000  C
  H811     1.0000 0.91320  0.33320  0.83810  Biso   1.000  H
  C2163    1.0000 0.94433  0.34600  0.81850  Biso   1.000  C
  C2164    1.0000 0.93015  0.36050  0.79850  Biso   1.000  C
  C2165    1.0000 0.97095  0.34510  0.81790  Biso   1.000  C
  H812     1.0000 0.97970  0.35470  0.80540  Biso   1.000  H
  C2166    1.0000 0.97182  0.31620  0.85218  Biso   1.000  C
  H813     1.0000 0.98090  0.30550  0.86350  Biso   1.000  H
  C2167    1.0000 0.98495  0.33080  0.83501  Biso   1.000  C
  C2168    1.0000 0.01376  0.33030  0.83356  Biso   1.000  C
  C2169    1.0000 0.02835  0.31577  0.85022  Biso   1.000  C
  H814     1.0000 0.02000  0.30590  0.86290  Biso   1.000  H
  C2170    1.0000 0.05464  0.31528  0.84884  Biso   1.000  C
  C2171    1.0000 0.06979  0.29780  0.86515  Biso   1.000  C
  C2172    1.0000 0.06715  0.32961  0.83080  Biso   1.000  C
  H815     1.0000 0.08520  0.33000  0.83020  Biso   1.000  H
  C2173    1.0000 0.05246  0.34361  0.81338  Biso   1.000  C
  C2174    1.0000 0.06586  0.35741  0.79214  Biso   1.000  C
  C2175    1.0000 0.02626  0.34350  0.81468  Biso   1.000  C
  H816     1.0000 0.01670  0.35270  0.80240  Biso   1.000  H
  C2176    1.0000 0.74630  0.45696  0.93151  Biso   1.000  C
  C2177    1.0000 0.74720  0.48134  0.94624  Biso   1.000  C
  C2178    1.0000 0.74750  0.50421  0.93314  Biso   1.000  C
  H817     1.0000 0.74660  0.50440  0.91510  Biso   1.000  H
  C2179    1.0000 0.74900  0.52643  0.94632  Biso   1.000  C
  C2180    1.0000 0.74920  0.55069  0.93162  Biso   1.000  C
  C2181    1.0000 0.75000  0.52662  0.97250  Biso   1.000  C
  H818     1.0000 0.75140  0.54230  0.98130  Biso   1.000  H
  C2182    1.0000 0.74900  0.50383  0.98598  Biso   1.000  C
  C2183    1.0000 0.74840  0.48118  0.97240  Biso   1.000  C
  H819     1.0000 0.74890  0.46540  0.98120  Biso   1.000  H
  O1170    1.0000 0.84533  0.22082  0.86707  Biso   1.000  O
  C2184    1.0000 0.80220  0.38005  0.06176  Biso   1.000  C
  Zn313    1.0000 0.37599  0.78024  0.37890  Biso   1.000  Zn
  Zn314    1.0000 0.38053  0.72280  0.37437  Biso   1.000  Zn
  Zn315    1.0000 0.37944  0.75101  0.42790  Biso   1.000  Zn
  Zn316    1.0000 0.42958  0.75020  0.39437  Biso   1.000  Zn
  Zn317    1.0000 0.26855  0.88138  0.37313  Biso   1.000  Zn
  Zn318    1.0000 0.20935  0.88776  0.38376  Biso   1.000  Zn
  Zn319    1.0000 0.24644  0.90219  0.42855  Biso   1.000  Zn
  Zn320    1.0000 0.24368  0.93576  0.37974  Biso   1.000  Zn
  O1171    1.0000 0.33831  0.75911  0.38302  Biso   1.000  O
  O1172    1.0000 0.28185  0.65710  0.37023  Biso   1.000  O
  O1173    1.0000 0.24299  0.66534  0.38467  Biso   1.000  O
  O1174    1.0000 0.25524  0.84427  0.37604  Biso   1.000  O
  O1175    1.0000 0.21670  0.85089  0.39310  Biso   1.000  O
  O1176    1.0000 0.16219  0.74729  0.38646  Biso   1.000  O
  O1177    1.0000 0.15316  0.78820  0.37960  Biso   1.000  O
  O1178    1.0000 0.35969  0.80560  0.40102  Biso   1.000  O
  O1179    1.0000 0.36345  0.78346  0.43710  Biso   1.000  O
  O1180    1.0000 0.29365  0.87308  0.40207  Biso   1.000  O
  O1181    1.0000 0.27680  0.88442  0.43939  Biso   1.000  O
  O1182    1.0000 0.28107  0.88525  0.55246  Biso   1.000  O
  O1183    1.0000 0.37288  0.81300  0.58122  Biso   1.000  O
  O1184    1.0000 0.36070  0.78477  0.55170  Biso   1.000  O
  O1185    1.0000 0.40851  0.80306  0.37479  Biso   1.000  O
  O1186    1.0000 0.44362  0.77931  0.37793  Biso   1.000  O
  O1187    1.0000 0.44078  0.86100  0.27657  Biso   1.000  O
  O1188    1.0000 0.40919  0.86974  0.30355  Biso   1.000  O
  O1189    1.0000 0.59392  0.80126  0.36438  Biso   1.000  O
  O1190    1.0000 0.55812  0.78118  0.37745  Biso   1.000  O
  O1191    1.0000 0.55211  0.86254  0.27334  Biso   1.000  O
  O1192    1.0000 0.58841  0.86267  0.29439  Biso   1.000  O
  O1193    1.0000 0.24330  0.95932  0.40836  Biso   1.000  O
  O1194    1.0000 0.24781  0.93654  0.44336  Biso   1.000  O
  O1195    1.0000 0.24678  0.04881  0.40782  Biso   1.000  O
  O1196    1.0000 0.25155  0.07135  0.44378  Biso   1.000  O
  O1197    1.0000 0.24300  0.90179  0.39243  Biso   1.000  O
  O1198    1.0000 0.39306  0.75088  0.39401  Biso   1.000  O
  C2185    1.0000 0.33172  0.73830  0.37580  Biso   1.000  C
  C2186    1.0000 0.30378  0.73170  0.37670  Biso   1.000  C
  C2187    1.0000 0.29671  0.70620  0.37580  Biso   1.000  C
  H820     1.0000 0.30930  0.69330  0.37420  Biso   1.000  H
  C2188    1.0000 0.27135  0.69974  0.37730  Biso   1.000  C
  C2189    1.0000 0.26490  0.67182  0.37780  Biso   1.000  C
  C2190    1.0000 0.25301  0.71860  0.37890  Biso   1.000  C
  H821     1.0000 0.23560  0.71400  0.37960  Biso   1.000  H
  C2191    1.0000 0.28524  0.75042  0.37880  Biso   1.000  C
  H822     1.0000 0.29020  0.76770  0.37990  Biso   1.000  H
  C2192    1.0000 0.25966  0.74427  0.37940  Biso   1.000  C
  C2193    1.0000 0.23980  0.76454  0.38050  Biso   1.000  C
  C2194    1.0000 0.21433  0.75858  0.38190  Biso   1.000  C
  H823     1.0000 0.20940  0.74120  0.38210  Biso   1.000  H
  C2195    1.0000 0.24590  0.79045  0.38070  Biso   1.000  C
  H824     1.0000 0.26320  0.79550  0.37910  Biso   1.000  H
  C2196    1.0000 0.22730  0.80893  0.38300  Biso   1.000  C
  C2197    1.0000 0.23370  0.83680  0.38340  Biso   1.000  C
  C2198    1.0000 0.20260  0.80220  0.38450  Biso   1.000  C
  H825     1.0000 0.18990  0.81490  0.38670  Biso   1.000  H
  C2199    1.0000 0.19569  0.77705  0.38300  Biso   1.000  C
  C2200    1.0000 0.16802  0.77010  0.38360  Biso   1.000  C
  C2201    1.0000 0.35589  0.80218  0.42453  Biso   1.000  C
  C2202    1.0000 0.34154  0.82238  0.43866  Biso   1.000  C
  C2203    1.0000 0.32584  0.83891  0.42548  Biso   1.000  C
  H826     1.0000 0.32520  0.83860  0.40740  Biso   1.000  H
  C2204    1.0000 0.31099  0.85589  0.43927  Biso   1.000  C
  C2205    1.0000 0.29229  0.87251  0.42571  Biso   1.000  C
  C2206    1.0000 0.31291  0.85711  0.46546  Biso   1.000  C
  H827     1.0000 0.30310  0.86920  0.47460  Biso   1.000  H
  C2207    1.0000 0.34303  0.82334  0.46505  Biso   1.000  C
  H828     1.0000 0.35380  0.81180  0.47380  Biso   1.000  H
  C2208    1.0000 0.32904  0.84080  0.47850  Biso   1.000  C
  C2209    1.0000 0.33082  0.84241  0.50731  Biso   1.000  C
  C2210    1.0000 0.31695  0.86021  0.52100  Biso   1.000  C
  H829     1.0000 0.30590  0.87150  0.51220  Biso   1.000  H
  C2211    1.0000 0.31887  0.86181  0.54744  Biso   1.000  C
  O1199    1.0000 0.31034  0.88830  0.58271  Biso   1.000  O
  C2212    1.0000 0.33470  0.84543  0.56039  Biso   1.000  C
  H830     1.0000 0.33680  0.84700  0.57830  Biso   1.000  H
  C2213    1.0000 0.34740  0.82680  0.54711  Biso   1.000  C
  C2214    1.0000 0.36200  0.80720  0.56120  Biso   1.000  C
  C2215    1.0000 0.34530  0.82530  0.52124  Biso   1.000  C
  H831     1.0000 0.35400  0.81210  0.51250  Biso   1.000  H
  C2216    1.0000 0.43100  0.79880  0.37050  Biso   1.000  C
  C2217    1.0000 0.44510  0.81690  0.35330  Biso   1.000  C
  C2218    1.0000 0.43122  0.83220  0.33690  Biso   1.000  C
  H832     1.0000 0.41320  0.83320  0.33810  Biso   1.000  H
  C2219    1.0000 0.44433  0.84600  0.31850  Biso   1.000  C
  C2220    1.0000 0.43015  0.86050  0.29850  Biso   1.000  C
  C2221    1.0000 0.47095  0.84510  0.31790  Biso   1.000  C
  H833     1.0000 0.47970  0.85470  0.30540  Biso   1.000  H
  C2222    1.0000 0.47182  0.81620  0.35218  Biso   1.000  C
  H834     1.0000 0.48090  0.80550  0.36350  Biso   1.000  H
  C2223    1.0000 0.48495  0.83080  0.33501  Biso   1.000  C
  C2224    1.0000 0.51376  0.83030  0.33356  Biso   1.000  C
  C2225    1.0000 0.52835  0.81577  0.35022  Biso   1.000  C
  H835     1.0000 0.52000  0.80590  0.36290  Biso   1.000  H
  C2226    1.0000 0.55464  0.81528  0.34884  Biso   1.000  C
  C2227    1.0000 0.56979  0.79780  0.36515  Biso   1.000  C
  C2228    1.0000 0.56715  0.82961  0.33080  Biso   1.000  C
  H836     1.0000 0.58520  0.83000  0.33020  Biso   1.000  H
  C2229    1.0000 0.55246  0.84361  0.31338  Biso   1.000  C
  C2230    1.0000 0.56586  0.85741  0.29214  Biso   1.000  C
  C2231    1.0000 0.52626  0.84350  0.31468  Biso   1.000  C
  H837     1.0000 0.51670  0.85270  0.30240  Biso   1.000  H
  C2232    1.0000 0.24630  0.95696  0.43151  Biso   1.000  C
  C2233    1.0000 0.24720  0.98134  0.44624  Biso   1.000  C
  C2234    1.0000 0.24750  0.00421  0.43314  Biso   1.000  C
  H838     1.0000 0.24660  0.00440  0.41510  Biso   1.000  H
  C2235    1.0000 0.24900  0.02643  0.44632  Biso   1.000  C
  C2236    1.0000 0.24920  0.05069  0.43162  Biso   1.000  C
  C2237    1.0000 0.25000  0.02662  0.47250  Biso   1.000  C
  H839     1.0000 0.25140  0.04230  0.48130  Biso   1.000  H
  C2238    1.0000 0.24900  0.00383  0.48598  Biso   1.000  C
  C2239    1.0000 0.24840  0.98118  0.47240  Biso   1.000  C
  H840     1.0000 0.24890  0.96540  0.48120  Biso   1.000  H
  O1200    1.0000 0.34533  0.72082  0.36707  Biso   1.000  O
  C2240    1.0000 0.30220  0.88005  0.56176  Biso   1.000  C
  Zn321    1.0000 0.62110  0.12401  0.78024  Biso   1.000  Zn
  Zn322    1.0000 0.62563  0.11947  0.72280  Biso   1.000  Zn
  Zn323    1.0000 0.57210  0.12056  0.75101  Biso   1.000  Zn
  Zn324    1.0000 0.60563  0.07042  0.75020  Biso   1.000  Zn
  Zn325    1.0000 0.62687  0.23145  0.88138  Biso   1.000  Zn
  Zn326    1.0000 0.61624  0.29065  0.88776  Biso   1.000  Zn
  Zn327    1.0000 0.57145  0.25356  0.90219  Biso   1.000  Zn
  Zn328    1.0000 0.62026  0.25632  0.93576  Biso   1.000  Zn
  O1201    1.0000 0.61698  0.16169  0.75911  Biso   1.000  O
  O1202    1.0000 0.62977  0.21815  0.65710  Biso   1.000  O
  O1203    1.0000 0.61533  0.25701  0.66534  Biso   1.000  O
  O1204    1.0000 0.62396  0.24476  0.84427  Biso   1.000  O
  O1205    1.0000 0.60690  0.28330  0.85089  Biso   1.000  O
  O1206    1.0000 0.61354  0.33781  0.74729  Biso   1.000  O
  O1207    1.0000 0.62040  0.34684  0.78820  Biso   1.000  O
  O1208    1.0000 0.59898  0.14031  0.80560  Biso   1.000  O
  O1209    1.0000 0.56290  0.13655  0.78346  Biso   1.000  O
  O1210    1.0000 0.59793  0.20635  0.87308  Biso   1.000  O
  O1211    1.0000 0.56061  0.22320  0.88442  Biso   1.000  O
  O1212    1.0000 0.44754  0.21893  0.88525  Biso   1.000  O
  O1213    1.0000 0.41878  0.12712  0.81300  Biso   1.000  O
  O1214    1.0000 0.44830  0.13930  0.78477  Biso   1.000  O
  O1215    1.0000 0.62521  0.09149  0.80306  Biso   1.000  O
  O1216    1.0000 0.62207  0.05638  0.77931  Biso   1.000  O
  O1217    1.0000 0.72343  0.05922  0.86100  Biso   1.000  O
  O1218    1.0000 0.69645  0.09081  0.86974  Biso   1.000  O
  O1219    1.0000 0.63562  0.90608  0.80126  Biso   1.000  O
  O1220    1.0000 0.62255  0.94188  0.78118  Biso   1.000  O
  O1221    1.0000 0.72666  0.94789  0.86254  Biso   1.000  O
  O1222    1.0000 0.70561  0.91159  0.86267  Biso   1.000  O
  O1223    1.0000 0.59164  0.25670  0.95932  Biso   1.000  O
  O1224    1.0000 0.55664  0.25219  0.93654  Biso   1.000  O
  O1225    1.0000 0.59218  0.25322  0.04881  Biso   1.000  O
  O1226    1.0000 0.55622  0.24845  0.07135  Biso   1.000  O
  O1227    1.0000 0.60757  0.25700  0.90179  Biso   1.000  O
  O1228    1.0000 0.60599  0.10694  0.75088  Biso   1.000  O
  C2241    1.0000 0.62420  0.16828  0.73830  Biso   1.000  C
  C2242    1.0000 0.62330  0.19622  0.73170  Biso   1.000  C
  C2243    1.0000 0.62420  0.20329  0.70620  Biso   1.000  C
  H841     1.0000 0.62580  0.19070  0.69330  Biso   1.000  H
  C2244    1.0000 0.62270  0.22865  0.69974  Biso   1.000  C
  C2245    1.0000 0.62220  0.23510  0.67182  Biso   1.000  C
  C2246    1.0000 0.62110  0.24699  0.71860  Biso   1.000  C
  H842     1.0000 0.62040  0.26440  0.71400  Biso   1.000  H
  C2247    1.0000 0.62120  0.21476  0.75042  Biso   1.000  C
  H843     1.0000 0.62010  0.20980  0.76770  Biso   1.000  H
  C2248    1.0000 0.62060  0.24034  0.74427  Biso   1.000  C
  C2249    1.0000 0.61950  0.26020  0.76454  Biso   1.000  C
  C2250    1.0000 0.61810  0.28567  0.75858  Biso   1.000  C
  H844     1.0000 0.61790  0.29060  0.74120  Biso   1.000  H
  C2251    1.0000 0.61930  0.25410  0.79045  Biso   1.000  C
  H845     1.0000 0.62090  0.23680  0.79550  Biso   1.000  H
  C2252    1.0000 0.61700  0.27270  0.80893  Biso   1.000  C
  C2253    1.0000 0.61660  0.26630  0.83680  Biso   1.000  C
  C2254    1.0000 0.61550  0.29740  0.80220  Biso   1.000  C
  H846     1.0000 0.61330  0.31010  0.81490  Biso   1.000  H
  C2255    1.0000 0.61700  0.30431  0.77705  Biso   1.000  C
  C2256    1.0000 0.61640  0.33198  0.77010  Biso   1.000  C
  C2257    1.0000 0.57547  0.14411  0.80218  Biso   1.000  C
  C2258    1.0000 0.56134  0.15846  0.82238  Biso   1.000  C
  C2259    1.0000 0.57452  0.17416  0.83891  Biso   1.000  C
  H847     1.0000 0.59260  0.17480  0.83860  Biso   1.000  H
  C2260    1.0000 0.56073  0.18901  0.85589  Biso   1.000  C
  C2261    1.0000 0.57429  0.20771  0.87251  Biso   1.000  C
  C2262    1.0000 0.53454  0.18709  0.85711  Biso   1.000  C
  H848     1.0000 0.52540  0.19690  0.86920  Biso   1.000  H
  C2263    1.0000 0.53495  0.15697  0.82334  Biso   1.000  C
  H849     1.0000 0.52620  0.14620  0.81180  Biso   1.000  H
  C2264    1.0000 0.52150  0.17096  0.84080  Biso   1.000  C
  C2265    1.0000 0.49269  0.16918  0.84241  Biso   1.000  C
  C2266    1.0000 0.47900  0.18305  0.86021  Biso   1.000  C
  H850     1.0000 0.48780  0.19410  0.87150  Biso   1.000  H
  C2267    1.0000 0.45256  0.18113  0.86181  Biso   1.000  C
  O1229    1.0000 0.41729  0.18966  0.88830  Biso   1.000  O
  C2268    1.0000 0.43961  0.16530  0.84543  Biso   1.000  C
  H851     1.0000 0.42170  0.16320  0.84700  Biso   1.000  H
  C2269    1.0000 0.45289  0.15260  0.82680  Biso   1.000  C
  C2270    1.0000 0.43880  0.13800  0.80720  Biso   1.000  C
  C2271    1.0000 0.47876  0.15470  0.82530  Biso   1.000  C
  H852     1.0000 0.48750  0.14600  0.81210  Biso   1.000  H
  C2272    1.0000 0.62950  0.06900  0.79880  Biso   1.000  C
  C2273    1.0000 0.64670  0.05490  0.81690  Biso   1.000  C
  C2274    1.0000 0.66310  0.06878  0.83220  Biso   1.000  C
  H853     1.0000 0.66190  0.08680  0.83320  Biso   1.000  H
  C2275    1.0000 0.68150  0.05567  0.84600  Biso   1.000  C
  C2276    1.0000 0.70150  0.06985  0.86050  Biso   1.000  C
  C2277    1.0000 0.68210  0.02905  0.84510  Biso   1.000  C
  H854     1.0000 0.69460  0.02030  0.85470  Biso   1.000  H
  C2278    1.0000 0.64782  0.02818  0.81620  Biso   1.000  C
  H855     1.0000 0.63650  0.01910  0.80550  Biso   1.000  H
  C2279    1.0000 0.66499  0.01505  0.83080  Biso   1.000  C
  C2280    1.0000 0.66644  0.98624  0.83030  Biso   1.000  C
  C2281    1.0000 0.64978  0.97165  0.81577  Biso   1.000  C
  H856     1.0000 0.63710  0.98000  0.80590  Biso   1.000  H
  C2282    1.0000 0.65116  0.94536  0.81528  Biso   1.000  C
  C2283    1.0000 0.63485  0.93021  0.79780  Biso   1.000  C
  C2284    1.0000 0.66920  0.93285  0.82961  Biso   1.000  C
  H857     1.0000 0.66980  0.91480  0.83000  Biso   1.000  H
  C2285    1.0000 0.68662  0.94754  0.84361  Biso   1.000  C
  C2286    1.0000 0.70786  0.93414  0.85741  Biso   1.000  C
  C2287    1.0000 0.68532  0.97374  0.84350  Biso   1.000  C
  H858     1.0000 0.69760  0.98330  0.85270  Biso   1.000  H
  C2288    1.0000 0.56849  0.25370  0.95696  Biso   1.000  C
  C2289    1.0000 0.55376  0.25280  0.98134  Biso   1.000  C
  C2290    1.0000 0.56686  0.25250  0.00421  Biso   1.000  C
  H859     1.0000 0.58490  0.25340  0.00440  Biso   1.000  H
  C2291    1.0000 0.55368  0.25100  0.02643  Biso   1.000  C
  C2292    1.0000 0.56838  0.25080  0.05069  Biso   1.000  C
  C2293    1.0000 0.52750  0.25000  0.02662  Biso   1.000  C
  H860     1.0000 0.51870  0.24860  0.04230  Biso   1.000  H
  C2294    1.0000 0.51402  0.25100  0.00383  Biso   1.000  C
  C2295    1.0000 0.52760  0.25160  0.98118  Biso   1.000  C
  H861     1.0000 0.51880  0.25110  0.96540  Biso   1.000  H
  O1230    1.0000 0.63293  0.15467  0.72082  Biso   1.000  O
  C2296    1.0000 0.43824  0.19780  0.88005  Biso   1.000  C
  Zn329    1.0000 0.12110  0.62401  0.28024  Biso   1.000  Zn
  Zn330    1.0000 0.12563  0.61947  0.22280  Biso   1.000  Zn
  Zn331    1.0000 0.07210  0.62056  0.25101  Biso   1.000  Zn
  Zn332    1.0000 0.10563  0.57042  0.25020  Biso   1.000  Zn
  Zn333    1.0000 0.12687  0.73145  0.38138  Biso   1.000  Zn
  Zn334    1.0000 0.11624  0.79065  0.38776  Biso   1.000  Zn
  Zn335    1.0000 0.07145  0.75356  0.40219  Biso   1.000  Zn
  Zn336    1.0000 0.12026  0.75632  0.43576  Biso   1.000  Zn
  O1231    1.0000 0.11698  0.66169  0.25911  Biso   1.000  O
  O1232    1.0000 0.12977  0.71815  0.15710  Biso   1.000  O
  O1233    1.0000 0.11533  0.75701  0.16534  Biso   1.000  O
  O1234    1.0000 0.12396  0.74476  0.34427  Biso   1.000  O
  O1235    1.0000 0.10690  0.78330  0.35089  Biso   1.000  O
  O1236    1.0000 0.11354  0.83781  0.24729  Biso   1.000  O
  O1237    1.0000 0.12040  0.84684  0.28820  Biso   1.000  O
  O1238    1.0000 0.09898  0.64031  0.30560  Biso   1.000  O
  O1239    1.0000 0.06290  0.63655  0.28346  Biso   1.000  O
  O1240    1.0000 0.09793  0.70635  0.37308  Biso   1.000  O
  O1241    1.0000 0.06061  0.72320  0.38442  Biso   1.000  O
  O1242    1.0000 0.94754  0.71893  0.38525  Biso   1.000  O
  O1243    1.0000 0.91878  0.62712  0.31300  Biso   1.000  O
  O1244    1.0000 0.94830  0.63930  0.28477  Biso   1.000  O
  O1245    1.0000 0.12521  0.59149  0.30306  Biso   1.000  O
  O1246    1.0000 0.12207  0.55638  0.27931  Biso   1.000  O
  O1247    1.0000 0.22343  0.55922  0.36100  Biso   1.000  O
  O1248    1.0000 0.19645  0.59081  0.36974  Biso   1.000  O
  O1249    1.0000 0.13562  0.40608  0.30126  Biso   1.000  O
  O1250    1.0000 0.12255  0.44188  0.28118  Biso   1.000  O
  O1251    1.0000 0.22666  0.44789  0.36254  Biso   1.000  O
  O1252    1.0000 0.20561  0.41159  0.36267  Biso   1.000  O
  O1253    1.0000 0.09164  0.75670  0.45932  Biso   1.000  O
  O1254    1.0000 0.05664  0.75219  0.43654  Biso   1.000  O
  O1255    1.0000 0.09218  0.75322  0.54881  Biso   1.000  O
  O1256    1.0000 0.05622  0.74845  0.57135  Biso   1.000  O
  O1257    1.0000 0.10757  0.75700  0.40179  Biso   1.000  O
  O1258    1.0000 0.10599  0.60694  0.25088  Biso   1.000  O
  C2297    1.0000 0.12420  0.66828  0.23830  Biso   1.000  C
  C2298    1.0000 0.12330  0.69622  0.23170  Biso   1.000  C
  C2299    1.0000 0.12420  0.70329  0.20620  Biso   1.000  C
  H862     1.0000 0.12580  0.69070  0.19330  Biso   1.000  H
  C2300    1.0000 0.12270  0.72865  0.19974  Biso   1.000  C
  C2301    1.0000 0.12220  0.73510  0.17182  Biso   1.000  C
  C2302    1.0000 0.12110  0.74699  0.21860  Biso   1.000  C
  H863     1.0000 0.12040  0.76440  0.21400  Biso   1.000  H
  C2303    1.0000 0.12120  0.71476  0.25042  Biso   1.000  C
  H864     1.0000 0.12010  0.70980  0.26770  Biso   1.000  H
  C2304    1.0000 0.12060  0.74034  0.24427  Biso   1.000  C
  C2305    1.0000 0.11950  0.76020  0.26454  Biso   1.000  C
  C2306    1.0000 0.11810  0.78567  0.25858  Biso   1.000  C
  H865     1.0000 0.11790  0.79060  0.24120  Biso   1.000  H
  C2307    1.0000 0.11930  0.75410  0.29045  Biso   1.000  C
  H866     1.0000 0.12090  0.73680  0.29550  Biso   1.000  H
  C2308    1.0000 0.11700  0.77270  0.30893  Biso   1.000  C
  C2309    1.0000 0.11660  0.76630  0.33680  Biso   1.000  C
  C2310    1.0000 0.11550  0.79740  0.30220  Biso   1.000  C
  H867     1.0000 0.11330  0.81010  0.31490  Biso   1.000  H
  C2311    1.0000 0.11700  0.80431  0.27705  Biso   1.000  C
  C2312    1.0000 0.11640  0.83198  0.27010  Biso   1.000  C
  C2313    1.0000 0.07547  0.64411  0.30218  Biso   1.000  C
  C2314    1.0000 0.06134  0.65846  0.32238  Biso   1.000  C
  C2315    1.0000 0.07452  0.67416  0.33891  Biso   1.000  C
  H868     1.0000 0.09260  0.67480  0.33860  Biso   1.000  H
  C2316    1.0000 0.06073  0.68901  0.35589  Biso   1.000  C
  C2317    1.0000 0.07429  0.70771  0.37251  Biso   1.000  C
  C2318    1.0000 0.03454  0.68709  0.35711  Biso   1.000  C
  H869     1.0000 0.02540  0.69690  0.36920  Biso   1.000  H
  C2319    1.0000 0.03495  0.65697  0.32334  Biso   1.000  C
  H870     1.0000 0.02620  0.64620  0.31180  Biso   1.000  H
  C2320    1.0000 0.02150  0.67096  0.34080  Biso   1.000  C
  C2321    1.0000 0.99269  0.66918  0.34241  Biso   1.000  C
  C2322    1.0000 0.97900  0.68305  0.36021  Biso   1.000  C
  H871     1.0000 0.98780  0.69410  0.37150  Biso   1.000  H
  C2323    1.0000 0.95256  0.68113  0.36181  Biso   1.000  C
  O1259    1.0000 0.91729  0.68966  0.38830  Biso   1.000  O
  C2324    1.0000 0.93961  0.66530  0.34543  Biso   1.000  C
  H872     1.0000 0.92170  0.66320  0.34700  Biso   1.000  H
  C2325    1.0000 0.95289  0.65260  0.32680  Biso   1.000  C
  C2326    1.0000 0.93880  0.63800  0.30720  Biso   1.000  C
  C2327    1.0000 0.97876  0.65470  0.32530  Biso   1.000  C
  H873     1.0000 0.98750  0.64600  0.31210  Biso   1.000  H
  C2328    1.0000 0.12950  0.56900  0.29880  Biso   1.000  C
  C2329    1.0000 0.14670  0.55490  0.31690  Biso   1.000  C
  C2330    1.0000 0.16310  0.56878  0.33220  Biso   1.000  C
  H874     1.0000 0.16190  0.58680  0.33320  Biso   1.000  H
  C2331    1.0000 0.18150  0.55567  0.34600  Biso   1.000  C
  C2332    1.0000 0.20150  0.56985  0.36050  Biso   1.000  C
  C2333    1.0000 0.18210  0.52905  0.34510  Biso   1.000  C
  H875     1.0000 0.19460  0.52030  0.35470  Biso   1.000  H
  C2334    1.0000 0.14782  0.52818  0.31620  Biso   1.000  C
  H876     1.0000 0.13650  0.51910  0.30550  Biso   1.000  H
  C2335    1.0000 0.16499  0.51505  0.33080  Biso   1.000  C
  C2336    1.0000 0.16644  0.48624  0.33030  Biso   1.000  C
  C2337    1.0000 0.14978  0.47165  0.31577  Biso   1.000  C
  H877     1.0000 0.13710  0.48000  0.30590  Biso   1.000  H
  C2338    1.0000 0.15116  0.44536  0.31528  Biso   1.000  C
  C2339    1.0000 0.13485  0.43021  0.29780  Biso   1.000  C
  C2340    1.0000 0.16920  0.43285  0.32961  Biso   1.000  C
  H878     1.0000 0.16980  0.41480  0.33000  Biso   1.000  H
  C2341    1.0000 0.18662  0.44754  0.34361  Biso   1.000  C
  C2342    1.0000 0.20786  0.43414  0.35741  Biso   1.000  C
  C2343    1.0000 0.18532  0.47374  0.34350  Biso   1.000  C
  H879     1.0000 0.19760  0.48330  0.35270  Biso   1.000  H
  C2344    1.0000 0.06849  0.75370  0.45696  Biso   1.000  C
  C2345    1.0000 0.05376  0.75280  0.48134  Biso   1.000  C
  C2346    1.0000 0.06686  0.75250  0.50421  Biso   1.000  C
  H880     1.0000 0.08490  0.75340  0.50440  Biso   1.000  H
  C2347    1.0000 0.05368  0.75100  0.52643  Biso   1.000  C
  C2348    1.0000 0.06838  0.75080  0.55069  Biso   1.000  C
  C2349    1.0000 0.02750  0.75000  0.52662  Biso   1.000  C
  H881     1.0000 0.01870  0.74860  0.54230  Biso   1.000  H
  C2350    1.0000 0.01402  0.75100  0.50383  Biso   1.000  C
  C2351    1.0000 0.02760  0.75160  0.48118  Biso   1.000  C
  H882     1.0000 0.01880  0.75110  0.46540  Biso   1.000  H
  O1260    1.0000 0.13293  0.65467  0.22082  Biso   1.000  O
  C2352    1.0000 0.93824  0.69780  0.38005  Biso   1.000  C
  Zn337    1.0000 0.37890  0.62401  0.71976  Biso   1.000  Zn
  Zn338    1.0000 0.37437  0.61947  0.77720  Biso   1.000  Zn
  Zn339    1.0000 0.42790  0.62056  0.74899  Biso   1.000  Zn
  Zn340    1.0000 0.39437  0.57042  0.74980  Biso   1.000  Zn
  Zn341    1.0000 0.37313  0.73145  0.61862  Biso   1.000  Zn
  Zn342    1.0000 0.38376  0.79065  0.61224  Biso   1.000  Zn
  Zn343    1.0000 0.42855  0.75356  0.59781  Biso   1.000  Zn
  Zn344    1.0000 0.37974  0.75632  0.56424  Biso   1.000  Zn
  O1261    1.0000 0.38302  0.66169  0.74089  Biso   1.000  O
  O1262    1.0000 0.37023  0.71815  0.84290  Biso   1.000  O
  O1263    1.0000 0.38467  0.75701  0.83466  Biso   1.000  O
  O1264    1.0000 0.37604  0.74476  0.65573  Biso   1.000  O
  O1265    1.0000 0.39310  0.78330  0.64911  Biso   1.000  O
  O1266    1.0000 0.38646  0.83781  0.75271  Biso   1.000  O
  O1267    1.0000 0.37960  0.84684  0.71180  Biso   1.000  O
  O1268    1.0000 0.40102  0.64031  0.69440  Biso   1.000  O
  O1269    1.0000 0.43710  0.63655  0.71654  Biso   1.000  O
  O1270    1.0000 0.40207  0.70635  0.62692  Biso   1.000  O
  O1271    1.0000 0.43939  0.72320  0.61558  Biso   1.000  O
  O1272    1.0000 0.55246  0.71893  0.61475  Biso   1.000  O
  O1273    1.0000 0.58122  0.62712  0.68700  Biso   1.000  O
  O1274    1.0000 0.55170  0.63930  0.71523  Biso   1.000  O
  O1275    1.0000 0.37479  0.59149  0.69694  Biso   1.000  O
  O1276    1.0000 0.37793  0.55638  0.72069  Biso   1.000  O
  O1277    1.0000 0.27657  0.55922  0.63900  Biso   1.000  O
  O1278    1.0000 0.30355  0.59081  0.63026  Biso   1.000  O
  O1279    1.0000 0.36438  0.40608  0.69874  Biso   1.000  O
  O1280    1.0000 0.37745  0.44188  0.71882  Biso   1.000  O
  O1281    1.0000 0.27334  0.44789  0.63746  Biso   1.000  O
  O1282    1.0000 0.29439  0.41159  0.63733  Biso   1.000  O
  O1283    1.0000 0.40836  0.75670  0.54068  Biso   1.000  O
  O1284    1.0000 0.44336  0.75219  0.56346  Biso   1.000  O
  O1285    1.0000 0.40782  0.75322  0.45119  Biso   1.000  O
  O1286    1.0000 0.44378  0.74845  0.42865  Biso   1.000  O
  O1287    1.0000 0.39243  0.75700  0.59821  Biso   1.000  O
  O1288    1.0000 0.39401  0.60694  0.74912  Biso   1.000  O
  C2353    1.0000 0.37580  0.66828  0.76170  Biso   1.000  C
  C2354    1.0000 0.37670  0.69622  0.76830  Biso   1.000  C
  C2355    1.0000 0.37580  0.70329  0.79380  Biso   1.000  C
  H883     1.0000 0.37420  0.69070  0.80670  Biso   1.000  H
  C2356    1.0000 0.37730  0.72865  0.80026  Biso   1.000  C
  C2357    1.0000 0.37780  0.73510  0.82818  Biso   1.000  C
  C2358    1.0000 0.37890  0.74699  0.78140  Biso   1.000  C
  H884     1.0000 0.37960  0.76440  0.78600  Biso   1.000  H
  C2359    1.0000 0.37880  0.71476  0.74958  Biso   1.000  C
  H885     1.0000 0.37990  0.70980  0.73230  Biso   1.000  H
  C2360    1.0000 0.37940  0.74034  0.75573  Biso   1.000  C
  C2361    1.0000 0.38050  0.76020  0.73546  Biso   1.000  C
  C2362    1.0000 0.38190  0.78567  0.74142  Biso   1.000  C
  H886     1.0000 0.38210  0.79060  0.75880  Biso   1.000  H
  C2363    1.0000 0.38070  0.75410  0.70955  Biso   1.000  C
  H887     1.0000 0.37910  0.73680  0.70450  Biso   1.000  H
  C2364    1.0000 0.38300  0.77270  0.69107  Biso   1.000  C
  C2365    1.0000 0.38340  0.76630  0.66320  Biso   1.000  C
  C2366    1.0000 0.38450  0.79740  0.69780  Biso   1.000  C
  H888     1.0000 0.38670  0.81010  0.68510  Biso   1.000  H
  C2367    1.0000 0.38300  0.80431  0.72295  Biso   1.000  C
  C2368    1.0000 0.38360  0.83198  0.72990  Biso   1.000  C
  C2369    1.0000 0.42453  0.64411  0.69782  Biso   1.000  C
  C2370    1.0000 0.43866  0.65846  0.67762  Biso   1.000  C
  C2371    1.0000 0.42548  0.67416  0.66109  Biso   1.000  C
  H889     1.0000 0.40740  0.67480  0.66140  Biso   1.000  H
  C2372    1.0000 0.43927  0.68901  0.64411  Biso   1.000  C
  C2373    1.0000 0.42571  0.70771  0.62749  Biso   1.000  C
  C2374    1.0000 0.46546  0.68709  0.64289  Biso   1.000  C
  H890     1.0000 0.47460  0.69690  0.63080  Biso   1.000  H
  C2375    1.0000 0.46505  0.65697  0.67666  Biso   1.000  C
  H891     1.0000 0.47380  0.64620  0.68820  Biso   1.000  H
  C2376    1.0000 0.47850  0.67096  0.65920  Biso   1.000  C
  C2377    1.0000 0.50731  0.66918  0.65759  Biso   1.000  C
  C2378    1.0000 0.52100  0.68305  0.63979  Biso   1.000  C
  H892     1.0000 0.51220  0.69410  0.62850  Biso   1.000  H
  C2379    1.0000 0.54744  0.68113  0.63819  Biso   1.000  C
  O1289    1.0000 0.58271  0.68966  0.61170  Biso   1.000  O
  C2380    1.0000 0.56039  0.66530  0.65457  Biso   1.000  C
  H893     1.0000 0.57830  0.66320  0.65300  Biso   1.000  H
  C2381    1.0000 0.54711  0.65260  0.67320  Biso   1.000  C
  C2382    1.0000 0.56120  0.63800  0.69280  Biso   1.000  C
  C2383    1.0000 0.52124  0.65470  0.67470  Biso   1.000  C
  H894     1.0000 0.51250  0.64600  0.68790  Biso   1.000  H
  C2384    1.0000 0.37050  0.56900  0.70120  Biso   1.000  C
  C2385    1.0000 0.35330  0.55490  0.68310  Biso   1.000  C
  C2386    1.0000 0.33690  0.56878  0.66780  Biso   1.000  C
  H895     1.0000 0.33810  0.58680  0.66680  Biso   1.000  H
  C2387    1.0000 0.31850  0.55567  0.65400  Biso   1.000  C
  C2388    1.0000 0.29850  0.56985  0.63950  Biso   1.000  C
  C2389    1.0000 0.31790  0.52905  0.65490  Biso   1.000  C
  H896     1.0000 0.30540  0.52030  0.64530  Biso   1.000  H
  C2390    1.0000 0.35218  0.52818  0.68380  Biso   1.000  C
  H897     1.0000 0.36350  0.51910  0.69450  Biso   1.000  H
  C2391    1.0000 0.33501  0.51505  0.66920  Biso   1.000  C
  C2392    1.0000 0.33356  0.48624  0.66970  Biso   1.000  C
  C2393    1.0000 0.35022  0.47165  0.68423  Biso   1.000  C
  H898     1.0000 0.36290  0.48000  0.69410  Biso   1.000  H
  C2394    1.0000 0.34884  0.44536  0.68472  Biso   1.000  C
  C2395    1.0000 0.36515  0.43021  0.70220  Biso   1.000  C
  C2396    1.0000 0.33080  0.43285  0.67039  Biso   1.000  C
  H899     1.0000 0.33020  0.41480  0.67000  Biso   1.000  H
  C2397    1.0000 0.31338  0.44754  0.65639  Biso   1.000  C
  C2398    1.0000 0.29214  0.43414  0.64259  Biso   1.000  C
  C2399    1.0000 0.31468  0.47374  0.65650  Biso   1.000  C
  H900     1.0000 0.30240  0.48330  0.64730  Biso   1.000  H
  C2400    1.0000 0.43151  0.75370  0.54304  Biso   1.000  C
  C2401    1.0000 0.44624  0.75280  0.51866  Biso   1.000  C
  C2402    1.0000 0.43314  0.75250  0.49579  Biso   1.000  C
  H901     1.0000 0.41510  0.75340  0.49560  Biso   1.000  H
  C2403    1.0000 0.44632  0.75100  0.47357  Biso   1.000  C
  C2404    1.0000 0.43162  0.75080  0.44931  Biso   1.000  C
  C2405    1.0000 0.47250  0.75000  0.47338  Biso   1.000  C
  H902     1.0000 0.48130  0.74860  0.45770  Biso   1.000  H
  C2406    1.0000 0.48598  0.75100  0.49617  Biso   1.000  C
  C2407    1.0000 0.47240  0.75160  0.51882  Biso   1.000  C
  H903     1.0000 0.48120  0.75110  0.53460  Biso   1.000  H
  O1290    1.0000 0.36707  0.65467  0.77918  Biso   1.000  O
  C2408    1.0000 0.56176  0.69780  0.61995  Biso   1.000  C
  Zn345    1.0000 0.87890  0.12401  0.21976  Biso   1.000  Zn
  Zn346    1.0000 0.87437  0.11947  0.27720  Biso   1.000  Zn
  Zn347    1.0000 0.92790  0.12056  0.24899  Biso   1.000  Zn
  Zn348    1.0000 0.89437  0.07042  0.24980  Biso   1.000  Zn
  Zn349    1.0000 0.87313  0.23145  0.11862  Biso   1.000  Zn
  Zn350    1.0000 0.88376  0.29065  0.11224  Biso   1.000  Zn
  Zn351    1.0000 0.92855  0.25356  0.09781  Biso   1.000  Zn
  Zn352    1.0000 0.87974  0.25632  0.06424  Biso   1.000  Zn
  O1291    1.0000 0.88302  0.16169  0.24089  Biso   1.000  O
  O1292    1.0000 0.87023  0.21815  0.34290  Biso   1.000  O
  O1293    1.0000 0.88467  0.25701  0.33466  Biso   1.000  O
  O1294    1.0000 0.87604  0.24476  0.15573  Biso   1.000  O
  O1295    1.0000 0.89310  0.28330  0.14911  Biso   1.000  O
  O1296    1.0000 0.88646  0.33781  0.25271  Biso   1.000  O
  O1297    1.0000 0.87960  0.34684  0.21180  Biso   1.000  O
  O1298    1.0000 0.90102  0.14031  0.19440  Biso   1.000  O
  O1299    1.0000 0.93710  0.13655  0.21654  Biso   1.000  O
  O1300    1.0000 0.90207  0.20635  0.12692  Biso   1.000  O
  O1301    1.0000 0.93939  0.22320  0.11558  Biso   1.000  O
  O1302    1.0000 0.05246  0.21893  0.11475  Biso   1.000  O
  O1303    1.0000 0.08122  0.12712  0.18700  Biso   1.000  O
  O1304    1.0000 0.05170  0.13930  0.21523  Biso   1.000  O
  O1305    1.0000 0.87479  0.09149  0.19694  Biso   1.000  O
  O1306    1.0000 0.87793  0.05638  0.22069  Biso   1.000  O
  O1307    1.0000 0.77657  0.05922  0.13900  Biso   1.000  O
  O1308    1.0000 0.80355  0.09081  0.13026  Biso   1.000  O
  O1309    1.0000 0.86438  0.90608  0.19874  Biso   1.000  O
  O1310    1.0000 0.87745  0.94188  0.21882  Biso   1.000  O
  O1311    1.0000 0.77334  0.94789  0.13746  Biso   1.000  O
  O1312    1.0000 0.79439  0.91159  0.13733  Biso   1.000  O
  O1313    1.0000 0.90836  0.25670  0.04068  Biso   1.000  O
  O1314    1.0000 0.94336  0.25219  0.06346  Biso   1.000  O
  O1315    1.0000 0.90782  0.25322  0.95119  Biso   1.000  O
  O1316    1.0000 0.94378  0.24845  0.92865  Biso   1.000  O
  O1317    1.0000 0.89243  0.25700  0.09821  Biso   1.000  O
  O1318    1.0000 0.89401  0.10694  0.24912  Biso   1.000  O
  C2409    1.0000 0.87580  0.16828  0.26170  Biso   1.000  C
  C2410    1.0000 0.87670  0.19622  0.26830  Biso   1.000  C
  C2411    1.0000 0.87580  0.20329  0.29380  Biso   1.000  C
  H904     1.0000 0.87420  0.19070  0.30670  Biso   1.000  H
  C2412    1.0000 0.87730  0.22865  0.30026  Biso   1.000  C
  C2413    1.0000 0.87780  0.23510  0.32818  Biso   1.000  C
  C2414    1.0000 0.87890  0.24699  0.28140  Biso   1.000  C
  H905     1.0000 0.87960  0.26440  0.28600  Biso   1.000  H
  C2415    1.0000 0.87880  0.21476  0.24958  Biso   1.000  C
  H906     1.0000 0.87990  0.20980  0.23230  Biso   1.000  H
  C2416    1.0000 0.87940  0.24034  0.25573  Biso   1.000  C
  C2417    1.0000 0.88050  0.26020  0.23546  Biso   1.000  C
  C2418    1.0000 0.88190  0.28567  0.24142  Biso   1.000  C
  H907     1.0000 0.88210  0.29060  0.25880  Biso   1.000  H
  C2419    1.0000 0.88070  0.25410  0.20955  Biso   1.000  C
  H908     1.0000 0.87910  0.23680  0.20450  Biso   1.000  H
  C2420    1.0000 0.88300  0.27270  0.19107  Biso   1.000  C
  C2421    1.0000 0.88340  0.26630  0.16320  Biso   1.000  C
  C2422    1.0000 0.88450  0.29740  0.19780  Biso   1.000  C
  H909     1.0000 0.88670  0.31010  0.18510  Biso   1.000  H
  C2423    1.0000 0.88300  0.30431  0.22295  Biso   1.000  C
  C2424    1.0000 0.88360  0.33198  0.22990  Biso   1.000  C
  C2425    1.0000 0.92453  0.14411  0.19782  Biso   1.000  C
  C2426    1.0000 0.93866  0.15846  0.17762  Biso   1.000  C
  C2427    1.0000 0.92548  0.17416  0.16109  Biso   1.000  C
  H910     1.0000 0.90740  0.17480  0.16140  Biso   1.000  H
  C2428    1.0000 0.93927  0.18901  0.14411  Biso   1.000  C
  C2429    1.0000 0.92571  0.20771  0.12749  Biso   1.000  C
  C2430    1.0000 0.96546  0.18709  0.14289  Biso   1.000  C
  H911     1.0000 0.97460  0.19690  0.13080  Biso   1.000  H
  C2431    1.0000 0.96505  0.15697  0.17666  Biso   1.000  C
  H912     1.0000 0.97380  0.14620  0.18820  Biso   1.000  H
  C2432    1.0000 0.97850  0.17096  0.15920  Biso   1.000  C
  C2433    1.0000 0.00731  0.16918  0.15759  Biso   1.000  C
  C2434    1.0000 0.02100  0.18305  0.13979  Biso   1.000  C
  H913     1.0000 0.01220  0.19410  0.12850  Biso   1.000  H
  C2435    1.0000 0.04744  0.18113  0.13819  Biso   1.000  C
  O1319    1.0000 0.08271  0.18966  0.11170  Biso   1.000  O
  C2436    1.0000 0.06039  0.16530  0.15457  Biso   1.000  C
  H914     1.0000 0.07830  0.16320  0.15300  Biso   1.000  H
  C2437    1.0000 0.04711  0.15260  0.17320  Biso   1.000  C
  C2438    1.0000 0.06120  0.13800  0.19280  Biso   1.000  C
  C2439    1.0000 0.02124  0.15470  0.17470  Biso   1.000  C
  H915     1.0000 0.01250  0.14600  0.18790  Biso   1.000  H
  C2440    1.0000 0.87050  0.06900  0.20120  Biso   1.000  C
  C2441    1.0000 0.85330  0.05490  0.18310  Biso   1.000  C
  C2442    1.0000 0.83690  0.06878  0.16780  Biso   1.000  C
  H916     1.0000 0.83810  0.08680  0.16680  Biso   1.000  H
  C2443    1.0000 0.81850  0.05567  0.15400  Biso   1.000  C
  C2444    1.0000 0.79850  0.06985  0.13950  Biso   1.000  C
  C2445    1.0000 0.81790  0.02905  0.15490  Biso   1.000  C
  H917     1.0000 0.80540  0.02030  0.14530  Biso   1.000  H
  C2446    1.0000 0.85218  0.02818  0.18380  Biso   1.000  C
  H918     1.0000 0.86350  0.01910  0.19450  Biso   1.000  H
  C2447    1.0000 0.83501  0.01505  0.16920  Biso   1.000  C
  C2448    1.0000 0.83356  0.98624  0.16970  Biso   1.000  C
  C2449    1.0000 0.85022  0.97165  0.18423  Biso   1.000  C
  H919     1.0000 0.86290  0.98000  0.19410  Biso   1.000  H
  C2450    1.0000 0.84884  0.94536  0.18472  Biso   1.000  C
  C2451    1.0000 0.86515  0.93021  0.20220  Biso   1.000  C
  C2452    1.0000 0.83080  0.93285  0.17039  Biso   1.000  C
  H920     1.0000 0.83020  0.91480  0.17000  Biso   1.000  H
  C2453    1.0000 0.81338  0.94754  0.15639  Biso   1.000  C
  C2454    1.0000 0.79214  0.93414  0.14259  Biso   1.000  C
  C2455    1.0000 0.81468  0.97374  0.15650  Biso   1.000  C
  H921     1.0000 0.80240  0.98330  0.14730  Biso   1.000  H
  C2456    1.0000 0.93151  0.25370  0.04304  Biso   1.000  C
  C2457    1.0000 0.94624  0.25280  0.01866  Biso   1.000  C
  C2458    1.0000 0.93314  0.25250  0.99579  Biso   1.000  C
  H922     1.0000 0.91510  0.25340  0.99560  Biso   1.000  H
  C2459    1.0000 0.94632  0.25100  0.97357  Biso   1.000  C
  C2460    1.0000 0.93162  0.25080  0.94931  Biso   1.000  C
  C2461    1.0000 0.97250  0.25000  0.97338  Biso   1.000  C
  H923     1.0000 0.98130  0.24860  0.95770  Biso   1.000  H
  C2462    1.0000 0.98598  0.25100  0.99617  Biso   1.000  C
  C2463    1.0000 0.97240  0.25160  0.01882  Biso   1.000  C
  H924     1.0000 0.98120  0.25110  0.03460  Biso   1.000  H
  O1320    1.0000 0.86707  0.15467  0.27918  Biso   1.000  O
  C2464    1.0000 0.06176  0.19780  0.11995  Biso   1.000  C
  Zn353    1.0000 0.12110  0.37599  0.21976  Biso   1.000  Zn
  Zn354    1.0000 0.12563  0.38053  0.27720  Biso   1.000  Zn
  Zn355    1.0000 0.07210  0.37944  0.24899  Biso   1.000  Zn
  Zn356    1.0000 0.10563  0.42958  0.24980  Biso   1.000  Zn
  Zn357    1.0000 0.12687  0.26855  0.11862  Biso   1.000  Zn
  Zn358    1.0000 0.11624  0.20935  0.11224  Biso   1.000  Zn
  Zn359    1.0000 0.07145  0.24644  0.09781  Biso   1.000  Zn
  Zn360    1.0000 0.12026  0.24368  0.06424  Biso   1.000  Zn
  O1321    1.0000 0.11698  0.33831  0.24089  Biso   1.000  O
  O1322    1.0000 0.12977  0.28185  0.34290  Biso   1.000  O
  O1323    1.0000 0.11533  0.24299  0.33466  Biso   1.000  O
  O1324    1.0000 0.12396  0.25524  0.15573  Biso   1.000  O
  O1325    1.0000 0.10690  0.21670  0.14911  Biso   1.000  O
  O1326    1.0000 0.11354  0.16219  0.25271  Biso   1.000  O
  O1327    1.0000 0.12040  0.15316  0.21180  Biso   1.000  O
  O1328    1.0000 0.09898  0.35969  0.19440  Biso   1.000  O
  O1329    1.0000 0.06290  0.36345  0.21654  Biso   1.000  O
  O1330    1.0000 0.09793  0.29365  0.12692  Biso   1.000  O
  O1331    1.0000 0.06061  0.27680  0.11558  Biso   1.000  O
  O1332    1.0000 0.94754  0.28107  0.11475  Biso   1.000  O
  O1333    1.0000 0.91878  0.37288  0.18700  Biso   1.000  O
  O1334    1.0000 0.94830  0.36070  0.21523  Biso   1.000  O
  O1335    1.0000 0.12521  0.40851  0.19694  Biso   1.000  O
  O1336    1.0000 0.12207  0.44362  0.22069  Biso   1.000  O
  O1337    1.0000 0.22343  0.44078  0.13900  Biso   1.000  O
  O1338    1.0000 0.19645  0.40919  0.13026  Biso   1.000  O
  O1339    1.0000 0.13562  0.59392  0.19874  Biso   1.000  O
  O1340    1.0000 0.12255  0.55812  0.21882  Biso   1.000  O
  O1341    1.0000 0.22666  0.55211  0.13746  Biso   1.000  O
  O1342    1.0000 0.20561  0.58841  0.13733  Biso   1.000  O
  O1343    1.0000 0.09164  0.24330  0.04068  Biso   1.000  O
  O1344    1.0000 0.05664  0.24781  0.06346  Biso   1.000  O
  O1345    1.0000 0.09218  0.24678  0.95119  Biso   1.000  O
  O1346    1.0000 0.05622  0.25155  0.92865  Biso   1.000  O
  O1347    1.0000 0.10757  0.24300  0.09821  Biso   1.000  O
  O1348    1.0000 0.10599  0.39306  0.24912  Biso   1.000  O
  C2465    1.0000 0.12420  0.33172  0.26170  Biso   1.000  C
  C2466    1.0000 0.12330  0.30378  0.26830  Biso   1.000  C
  C2467    1.0000 0.12420  0.29671  0.29380  Biso   1.000  C
  H925     1.0000 0.12580  0.30930  0.30670  Biso   1.000  H
  C2468    1.0000 0.12270  0.27135  0.30026  Biso   1.000  C
  C2469    1.0000 0.12220  0.26490  0.32818  Biso   1.000  C
  C2470    1.0000 0.12110  0.25301  0.28140  Biso   1.000  C
  H926     1.0000 0.12040  0.23560  0.28600  Biso   1.000  H
  C2471    1.0000 0.12120  0.28524  0.24958  Biso   1.000  C
  H927     1.0000 0.12010  0.29020  0.23230  Biso   1.000  H
  C2472    1.0000 0.12060  0.25966  0.25573  Biso   1.000  C
  C2473    1.0000 0.11950  0.23980  0.23546  Biso   1.000  C
  C2474    1.0000 0.11810  0.21433  0.24142  Biso   1.000  C
  H928     1.0000 0.11790  0.20940  0.25880  Biso   1.000  H
  C2475    1.0000 0.11930  0.24590  0.20955  Biso   1.000  C
  H929     1.0000 0.12090  0.26320  0.20450  Biso   1.000  H
  C2476    1.0000 0.11700  0.22730  0.19107  Biso   1.000  C
  C2477    1.0000 0.11660  0.23370  0.16320  Biso   1.000  C
  C2478    1.0000 0.11550  0.20260  0.19780  Biso   1.000  C
  H930     1.0000 0.11330  0.18990  0.18510  Biso   1.000  H
  C2479    1.0000 0.11700  0.19569  0.22295  Biso   1.000  C
  C2480    1.0000 0.11640  0.16802  0.22990  Biso   1.000  C
  C2481    1.0000 0.07547  0.35589  0.19782  Biso   1.000  C
  C2482    1.0000 0.06134  0.34154  0.17762  Biso   1.000  C
  C2483    1.0000 0.07452  0.32584  0.16109  Biso   1.000  C
  H931     1.0000 0.09260  0.32520  0.16140  Biso   1.000  H
  C2484    1.0000 0.06073  0.31099  0.14411  Biso   1.000  C
  C2485    1.0000 0.07429  0.29229  0.12749  Biso   1.000  C
  C2486    1.0000 0.03454  0.31291  0.14289  Biso   1.000  C
  H932     1.0000 0.02540  0.30310  0.13080  Biso   1.000  H
  C2487    1.0000 0.03495  0.34303  0.17666  Biso   1.000  C
  H933     1.0000 0.02620  0.35380  0.18820  Biso   1.000  H
  C2488    1.0000 0.02150  0.32904  0.15920  Biso   1.000  C
  C2489    1.0000 0.99269  0.33082  0.15759  Biso   1.000  C
  C2490    1.0000 0.97900  0.31695  0.13979  Biso   1.000  C
  H934     1.0000 0.98780  0.30590  0.12850  Biso   1.000  H
  C2491    1.0000 0.95256  0.31887  0.13819  Biso   1.000  C
  O1349    1.0000 0.91729  0.31034  0.11170  Biso   1.000  O
  C2492    1.0000 0.93961  0.33470  0.15457  Biso   1.000  C
  H935     1.0000 0.92170  0.33680  0.15300  Biso   1.000  H
  C2493    1.0000 0.95289  0.34740  0.17320  Biso   1.000  C
  C2494    1.0000 0.93880  0.36200  0.19280  Biso   1.000  C
  C2495    1.0000 0.97876  0.34530  0.17470  Biso   1.000  C
  H936     1.0000 0.98750  0.35400  0.18790  Biso   1.000  H
  C2496    1.0000 0.12950  0.43100  0.20120  Biso   1.000  C
  C2497    1.0000 0.14670  0.44510  0.18310  Biso   1.000  C
  C2498    1.0000 0.16310  0.43122  0.16780  Biso   1.000  C
  H937     1.0000 0.16190  0.41320  0.16680  Biso   1.000  H
  C2499    1.0000 0.18150  0.44433  0.15400  Biso   1.000  C
  C2500    1.0000 0.20150  0.43015  0.13950  Biso   1.000  C
  C2501    1.0000 0.18210  0.47095  0.15490  Biso   1.000  C
  H938     1.0000 0.19460  0.47970  0.14530  Biso   1.000  H
  C2502    1.0000 0.14782  0.47182  0.18380  Biso   1.000  C
  H939     1.0000 0.13650  0.48090  0.19450  Biso   1.000  H
  C2503    1.0000 0.16499  0.48495  0.16920  Biso   1.000  C
  C2504    1.0000 0.16644  0.51376  0.16970  Biso   1.000  C
  C2505    1.0000 0.14978  0.52835  0.18423  Biso   1.000  C
  H940     1.0000 0.13710  0.52000  0.19410  Biso   1.000  H
  C2506    1.0000 0.15116  0.55464  0.18472  Biso   1.000  C
  C2507    1.0000 0.13485  0.56979  0.20220  Biso   1.000  C
  C2508    1.0000 0.16920  0.56715  0.17039  Biso   1.000  C
  H941     1.0000 0.16980  0.58520  0.17000  Biso   1.000  H
  C2509    1.0000 0.18662  0.55246  0.15639  Biso   1.000  C
  C2510    1.0000 0.20786  0.56586  0.14259  Biso   1.000  C
  C2511    1.0000 0.18532  0.52626  0.15650  Biso   1.000  C
  H942     1.0000 0.19760  0.51670  0.14730  Biso   1.000  H
  C2512    1.0000 0.06849  0.24630  0.04304  Biso   1.000  C
  C2513    1.0000 0.05376  0.24720  0.01866  Biso   1.000  C
  C2514    1.0000 0.06686  0.24750  0.99579  Biso   1.000  C
  H943     1.0000 0.08490  0.24660  0.99560  Biso   1.000  H
  C2515    1.0000 0.05368  0.24900  0.97357  Biso   1.000  C
  C2516    1.0000 0.06838  0.24920  0.94931  Biso   1.000  C
  C2517    1.0000 0.02750  0.25000  0.97338  Biso   1.000  C
  H944     1.0000 0.01870  0.25140  0.95770  Biso   1.000  H
  C2518    1.0000 0.01402  0.24900  0.99617  Biso   1.000  C
  C2519    1.0000 0.02760  0.24840  0.01882  Biso   1.000  C
  H945     1.0000 0.01880  0.24890  0.03460  Biso   1.000  H
  O1350    1.0000 0.13293  0.34533  0.27918  Biso   1.000  O
  C2520    1.0000 0.93824  0.30220  0.11995  Biso   1.000  C
  Zn361    1.0000 0.62110  0.87599  0.71976  Biso   1.000  Zn
  Zn362    1.0000 0.62563  0.88053  0.77720  Biso   1.000  Zn
  Zn363    1.0000 0.57210  0.87944  0.74899  Biso   1.000  Zn
  Zn364    1.0000 0.60563  0.92958  0.74980  Biso   1.000  Zn
  Zn365    1.0000 0.62687  0.76855  0.61862  Biso   1.000  Zn
  Zn366    1.0000 0.61624  0.70935  0.61224  Biso   1.000  Zn
  Zn367    1.0000 0.57145  0.74644  0.59781  Biso   1.000  Zn
  Zn368    1.0000 0.62026  0.74368  0.56424  Biso   1.000  Zn
  O1351    1.0000 0.61698  0.83831  0.74089  Biso   1.000  O
  O1352    1.0000 0.62977  0.78185  0.84290  Biso   1.000  O
  O1353    1.0000 0.61533  0.74299  0.83466  Biso   1.000  O
  O1354    1.0000 0.62396  0.75524  0.65573  Biso   1.000  O
  O1355    1.0000 0.60690  0.71670  0.64911  Biso   1.000  O
  O1356    1.0000 0.61354  0.66219  0.75271  Biso   1.000  O
  O1357    1.0000 0.62040  0.65316  0.71180  Biso   1.000  O
  O1358    1.0000 0.59898  0.85969  0.69440  Biso   1.000  O
  O1359    1.0000 0.56290  0.86345  0.71654  Biso   1.000  O
  O1360    1.0000 0.59793  0.79365  0.62692  Biso   1.000  O
  O1361    1.0000 0.56061  0.77680  0.61558  Biso   1.000  O
  O1362    1.0000 0.44754  0.78107  0.61475  Biso   1.000  O
  O1363    1.0000 0.41878  0.87288  0.68700  Biso   1.000  O
  O1364    1.0000 0.44830  0.86070  0.71523  Biso   1.000  O
  O1365    1.0000 0.62521  0.90851  0.69694  Biso   1.000  O
  O1366    1.0000 0.62207  0.94362  0.72069  Biso   1.000  O
  O1367    1.0000 0.72343  0.94078  0.63900  Biso   1.000  O
  O1368    1.0000 0.69645  0.90919  0.63026  Biso   1.000  O
  O1369    1.0000 0.63562  0.09392  0.69874  Biso   1.000  O
  O1370    1.0000 0.62255  0.05812  0.71882  Biso   1.000  O
  O1371    1.0000 0.72666  0.05211  0.63746  Biso   1.000  O
  O1372    1.0000 0.70561  0.08841  0.63733  Biso   1.000  O
  O1373    1.0000 0.59164  0.74330  0.54068  Biso   1.000  O
  O1374    1.0000 0.55664  0.74781  0.56346  Biso   1.000  O
  O1375    1.0000 0.59218  0.74678  0.45119  Biso   1.000  O
  O1376    1.0000 0.55622  0.75155  0.42865  Biso   1.000  O
  O1377    1.0000 0.60757  0.74300  0.59821  Biso   1.000  O
  O1378    1.0000 0.60599  0.89306  0.74912  Biso   1.000  O
  C2521    1.0000 0.62420  0.83172  0.76170  Biso   1.000  C
  C2522    1.0000 0.62330  0.80378  0.76830  Biso   1.000  C
  C2523    1.0000 0.62420  0.79671  0.79380  Biso   1.000  C
  H946     1.0000 0.62580  0.80930  0.80670  Biso   1.000  H
  C2524    1.0000 0.62270  0.77135  0.80026  Biso   1.000  C
  C2525    1.0000 0.62220  0.76490  0.82818  Biso   1.000  C
  C2526    1.0000 0.62110  0.75301  0.78140  Biso   1.000  C
  H947     1.0000 0.62040  0.73560  0.78600  Biso   1.000  H
  C2527    1.0000 0.62120  0.78524  0.74958  Biso   1.000  C
  H948     1.0000 0.62010  0.79020  0.73230  Biso   1.000  H
  C2528    1.0000 0.62060  0.75966  0.75573  Biso   1.000  C
  C2529    1.0000 0.61950  0.73980  0.73546  Biso   1.000  C
  C2530    1.0000 0.61810  0.71433  0.74142  Biso   1.000  C
  H949     1.0000 0.61790  0.70940  0.75880  Biso   1.000  H
  C2531    1.0000 0.61930  0.74590  0.70955  Biso   1.000  C
  H950     1.0000 0.62090  0.76320  0.70450  Biso   1.000  H
  C2532    1.0000 0.61700  0.72730  0.69107  Biso   1.000  C
  C2533    1.0000 0.61660  0.73370  0.66320  Biso   1.000  C
  C2534    1.0000 0.61550  0.70260  0.69780  Biso   1.000  C
  H951     1.0000 0.61330  0.68990  0.68510  Biso   1.000  H
  C2535    1.0000 0.61700  0.69569  0.72295  Biso   1.000  C
  C2536    1.0000 0.61640  0.66802  0.72990  Biso   1.000  C
  C2537    1.0000 0.57547  0.85589  0.69782  Biso   1.000  C
  C2538    1.0000 0.56134  0.84154  0.67762  Biso   1.000  C
  C2539    1.0000 0.57452  0.82584  0.66109  Biso   1.000  C
  H952     1.0000 0.59260  0.82520  0.66140  Biso   1.000  H
  C2540    1.0000 0.56073  0.81099  0.64411  Biso   1.000  C
  C2541    1.0000 0.57429  0.79229  0.62749  Biso   1.000  C
  C2542    1.0000 0.53454  0.81291  0.64289  Biso   1.000  C
  H953     1.0000 0.52540  0.80310  0.63080  Biso   1.000  H
  C2543    1.0000 0.53495  0.84303  0.67666  Biso   1.000  C
  H954     1.0000 0.52620  0.85380  0.68820  Biso   1.000  H
  C2544    1.0000 0.52150  0.82904  0.65920  Biso   1.000  C
  C2545    1.0000 0.49269  0.83082  0.65759  Biso   1.000  C
  C2546    1.0000 0.47900  0.81695  0.63979  Biso   1.000  C
  H955     1.0000 0.48780  0.80590  0.62850  Biso   1.000  H
  C2547    1.0000 0.45256  0.81887  0.63819  Biso   1.000  C
  O1379    1.0000 0.41729  0.81034  0.61170  Biso   1.000  O
  C2548    1.0000 0.43961  0.83470  0.65457  Biso   1.000  C
  H956     1.0000 0.42170  0.83680  0.65300  Biso   1.000  H
  C2549    1.0000 0.45289  0.84740  0.67320  Biso   1.000  C
  C2550    1.0000 0.43880  0.86200  0.69280  Biso   1.000  C
  C2551    1.0000 0.47876  0.84530  0.67470  Biso   1.000  C
  H957     1.0000 0.48750  0.85400  0.68790  Biso   1.000  H
  C2552    1.0000 0.62950  0.93100  0.70120  Biso   1.000  C
  C2553    1.0000 0.64670  0.94510  0.68310  Biso   1.000  C
  C2554    1.0000 0.66310  0.93122  0.66780  Biso   1.000  C
  H958     1.0000 0.66190  0.91320  0.66680  Biso   1.000  H
  C2555    1.0000 0.68150  0.94433  0.65400  Biso   1.000  C
  C2556    1.0000 0.70150  0.93015  0.63950  Biso   1.000  C
  C2557    1.0000 0.68210  0.97095  0.65490  Biso   1.000  C
  H959     1.0000 0.69460  0.97970  0.64530  Biso   1.000  H
  C2558    1.0000 0.64782  0.97182  0.68380  Biso   1.000  C
  H960     1.0000 0.63650  0.98090  0.69450  Biso   1.000  H
  C2559    1.0000 0.66499  0.98495  0.66920  Biso   1.000  C
  C2560    1.0000 0.66644  0.01376  0.66970  Biso   1.000  C
  C2561    1.0000 0.64978  0.02835  0.68423  Biso   1.000  C
  H961     1.0000 0.63710  0.02000  0.69410  Biso   1.000  H
  C2562    1.0000 0.65116  0.05464  0.68472  Biso   1.000  C
  C2563    1.0000 0.63485  0.06979  0.70220  Biso   1.000  C
  C2564    1.0000 0.66920  0.06715  0.67039  Biso   1.000  C
  H962     1.0000 0.66980  0.08520  0.67000  Biso   1.000  H
  C2565    1.0000 0.68662  0.05246  0.65639  Biso   1.000  C
  C2566    1.0000 0.70786  0.06586  0.64259  Biso   1.000  C
  C2567    1.0000 0.68532  0.02626  0.65650  Biso   1.000  C
  H963     1.0000 0.69760  0.01670  0.64730  Biso   1.000  H
  C2568    1.0000 0.56849  0.74630  0.54304  Biso   1.000  C
  C2569    1.0000 0.55376  0.74720  0.51866  Biso   1.000  C
  C2570    1.0000 0.56686  0.74750  0.49579  Biso   1.000  C
  H964     1.0000 0.58490  0.74660  0.49560  Biso   1.000  H
  C2571    1.0000 0.55368  0.74900  0.47357  Biso   1.000  C
  C2572    1.0000 0.56838  0.74920  0.44931  Biso   1.000  C
  C2573    1.0000 0.52750  0.75000  0.47338  Biso   1.000  C
  H965     1.0000 0.51870  0.75140  0.45770  Biso   1.000  H
  C2574    1.0000 0.51402  0.74900  0.49617  Biso   1.000  C
  C2575    1.0000 0.52760  0.74840  0.51882  Biso   1.000  C
  H966     1.0000 0.51880  0.74890  0.53460  Biso   1.000  H
  O1380    1.0000 0.63293  0.84533  0.77918  Biso   1.000  O
  C2576    1.0000 0.43824  0.80220  0.61995  Biso   1.000  C
  Zn369    1.0000 0.87890  0.87599  0.28024  Biso   1.000  Zn
  Zn370    1.0000 0.87437  0.88053  0.22280  Biso   1.000  Zn
  Zn371    1.0000 0.92790  0.87944  0.25101  Biso   1.000  Zn
  Zn372    1.0000 0.89437  0.92958  0.25020  Biso   1.000  Zn
  Zn373    1.0000 0.87313  0.76855  0.38138  Biso   1.000  Zn
  Zn374    1.0000 0.88376  0.70935  0.38776  Biso   1.000  Zn
  Zn375    1.0000 0.92855  0.74644  0.40219  Biso   1.000  Zn
  Zn376    1.0000 0.87974  0.74368  0.43576  Biso   1.000  Zn
  O1381    1.0000 0.88302  0.83831  0.25911  Biso   1.000  O
  O1382    1.0000 0.87023  0.78185  0.15710  Biso   1.000  O
  O1383    1.0000 0.88467  0.74299  0.16534  Biso   1.000  O
  O1384    1.0000 0.87604  0.75524  0.34427  Biso   1.000  O
  O1385    1.0000 0.89310  0.71670  0.35089  Biso   1.000  O
  O1386    1.0000 0.88646  0.66219  0.24729  Biso   1.000  O
  O1387    1.0000 0.87960  0.65316  0.28820  Biso   1.000  O
  O1388    1.0000 0.90102  0.85969  0.30560  Biso   1.000  O
  O1389    1.0000 0.93710  0.86345  0.28346  Biso   1.000  O
  O1390    1.0000 0.90207  0.79365  0.37308  Biso   1.000  O
  O1391    1.0000 0.93939  0.77680  0.38442  Biso   1.000  O
  O1392    1.0000 0.05246  0.78107  0.38525  Biso   1.000  O
  O1393    1.0000 0.08122  0.87288  0.31300  Biso   1.000  O
  O1394    1.0000 0.05170  0.86070  0.28477  Biso   1.000  O
  O1395    1.0000 0.87479  0.90851  0.30306  Biso   1.000  O
  O1396    1.0000 0.87793  0.94362  0.27931  Biso   1.000  O
  O1397    1.0000 0.77657  0.94078  0.36100  Biso   1.000  O
  O1398    1.0000 0.80355  0.90919  0.36974  Biso   1.000  O
  O1399    1.0000 0.86438  0.09392  0.30126  Biso   1.000  O
  O1400    1.0000 0.87745  0.05812  0.28118  Biso   1.000  O
  O1401    1.0000 0.77334  0.05211  0.36254  Biso   1.000  O
  O1402    1.0000 0.79439  0.08841  0.36267  Biso   1.000  O
  O1403    1.0000 0.90836  0.74330  0.45932  Biso   1.000  O
  O1404    1.0000 0.94336  0.74781  0.43654  Biso   1.000  O
  O1405    1.0000 0.90782  0.74678  0.54881  Biso   1.000  O
  O1406    1.0000 0.94378  0.75155  0.57135  Biso   1.000  O
  O1407    1.0000 0.89243  0.74300  0.40179  Biso   1.000  O
  O1408    1.0000 0.89401  0.89306  0.25088  Biso   1.000  O
  C2577    1.0000 0.87580  0.83172  0.23830  Biso   1.000  C
  C2578    1.0000 0.87670  0.80378  0.23170  Biso   1.000  C
  C2579    1.0000 0.87580  0.79671  0.20620  Biso   1.000  C
  H967     1.0000 0.87420  0.80930  0.19330  Biso   1.000  H
  C2580    1.0000 0.87730  0.77135  0.19974  Biso   1.000  C
  C2581    1.0000 0.87780  0.76490  0.17182  Biso   1.000  C
  C2582    1.0000 0.87890  0.75301  0.21860  Biso   1.000  C
  H968     1.0000 0.87960  0.73560  0.21400  Biso   1.000  H
  C2583    1.0000 0.87880  0.78524  0.25042  Biso   1.000  C
  H969     1.0000 0.87990  0.79020  0.26770  Biso   1.000  H
  C2584    1.0000 0.87940  0.75966  0.24427  Biso   1.000  C
  C2585    1.0000 0.88050  0.73980  0.26454  Biso   1.000  C
  C2586    1.0000 0.88190  0.71433  0.25858  Biso   1.000  C
  H970     1.0000 0.88210  0.70940  0.24120  Biso   1.000  H
  C2587    1.0000 0.88070  0.74590  0.29045  Biso   1.000  C
  H971     1.0000 0.87910  0.76320  0.29550  Biso   1.000  H
  C2588    1.0000 0.88300  0.72730  0.30893  Biso   1.000  C
  C2589    1.0000 0.88340  0.73370  0.33680  Biso   1.000  C
  C2590    1.0000 0.88450  0.70260  0.30220  Biso   1.000  C
  H972     1.0000 0.88670  0.68990  0.31490  Biso   1.000  H
  C2591    1.0000 0.88300  0.69569  0.27705  Biso   1.000  C
  C2592    1.0000 0.88360  0.66802  0.27010  Biso   1.000  C
  C2593    1.0000 0.92453  0.85589  0.30218  Biso   1.000  C
  C2594    1.0000 0.93866  0.84154  0.32238  Biso   1.000  C
  C2595    1.0000 0.92548  0.82584  0.33891  Biso   1.000  C
  H973     1.0000 0.90740  0.82520  0.33860  Biso   1.000  H
  C2596    1.0000 0.93927  0.81099  0.35589  Biso   1.000  C
  C2597    1.0000 0.92571  0.79229  0.37251  Biso   1.000  C
  C2598    1.0000 0.96546  0.81291  0.35711  Biso   1.000  C
  H974     1.0000 0.97460  0.80310  0.36920  Biso   1.000  H
  C2599    1.0000 0.96505  0.84303  0.32334  Biso   1.000  C
  H975     1.0000 0.97380  0.85380  0.31180  Biso   1.000  H
  C2600    1.0000 0.97850  0.82904  0.34080  Biso   1.000  C
  C2601    1.0000 0.00731  0.83082  0.34241  Biso   1.000  C
  C2602    1.0000 0.02100  0.81695  0.36021  Biso   1.000  C
  H976     1.0000 0.01220  0.80590  0.37150  Biso   1.000  H
  C2603    1.0000 0.04744  0.81887  0.36181  Biso   1.000  C
  O1409    1.0000 0.08271  0.81034  0.38830  Biso   1.000  O
  C2604    1.0000 0.06039  0.83470  0.34543  Biso   1.000  C
  H977     1.0000 0.07830  0.83680  0.34700  Biso   1.000  H
  C2605    1.0000 0.04711  0.84740  0.32680  Biso   1.000  C
  C2606    1.0000 0.06120  0.86200  0.30720  Biso   1.000  C
  C2607    1.0000 0.02124  0.84530  0.32530  Biso   1.000  C
  H978     1.0000 0.01250  0.85400  0.31210  Biso   1.000  H
  C2608    1.0000 0.87050  0.93100  0.29880  Biso   1.000  C
  C2609    1.0000 0.85330  0.94510  0.31690  Biso   1.000  C
  C2610    1.0000 0.83690  0.93122  0.33220  Biso   1.000  C
  H979     1.0000 0.83810  0.91320  0.33320  Biso   1.000  H
  C2611    1.0000 0.81850  0.94433  0.34600  Biso   1.000  C
  C2612    1.0000 0.79850  0.93015  0.36050  Biso   1.000  C
  C2613    1.0000 0.81790  0.97095  0.34510  Biso   1.000  C
  H980     1.0000 0.80540  0.97970  0.35470  Biso   1.000  H
  C2614    1.0000 0.85218  0.97182  0.31620  Biso   1.000  C
  H981     1.0000 0.86350  0.98090  0.30550  Biso   1.000  H
  C2615    1.0000 0.83501  0.98495  0.33080  Biso   1.000  C
  C2616    1.0000 0.83356  0.01376  0.33030  Biso   1.000  C
  C2617    1.0000 0.85022  0.02835  0.31577  Biso   1.000  C
  H982     1.0000 0.86290  0.02000  0.30590  Biso   1.000  H
  C2618    1.0000 0.84884  0.05464  0.31528  Biso   1.000  C
  C2619    1.0000 0.86515  0.06979  0.29780  Biso   1.000  C
  C2620    1.0000 0.83080  0.06715  0.32961  Biso   1.000  C
  H983     1.0000 0.83020  0.08520  0.33000  Biso   1.000  H
  C2621    1.0000 0.81338  0.05246  0.34361  Biso   1.000  C
  C2622    1.0000 0.79214  0.06586  0.35741  Biso   1.000  C
  C2623    1.0000 0.81468  0.02626  0.34350  Biso   1.000  C
  H984     1.0000 0.80240  0.01670  0.35270  Biso   1.000  H
  C2624    1.0000 0.93151  0.74630  0.45696  Biso   1.000  C
  C2625    1.0000 0.94624  0.74720  0.48134  Biso   1.000  C
  C2626    1.0000 0.93314  0.74750  0.50421  Biso   1.000  C
  H985     1.0000 0.91510  0.74660  0.50440  Biso   1.000  H
  C2627    1.0000 0.94632  0.74900  0.52643  Biso   1.000  C
  C2628    1.0000 0.93162  0.74920  0.55069  Biso   1.000  C
  C2629    1.0000 0.97250  0.75000  0.52662  Biso   1.000  C
  H986     1.0000 0.98130  0.75140  0.54230  Biso   1.000  H
  C2630    1.0000 0.98598  0.74900  0.50383  Biso   1.000  C
  C2631    1.0000 0.97240  0.74840  0.48118  Biso   1.000  C
  H987     1.0000 0.98120  0.74890  0.46540  Biso   1.000  H
  O1410    1.0000 0.86707  0.84533  0.22082  Biso   1.000  O
  C2632    1.0000 0.06176  0.80220  0.38005  Biso   1.000  C
  Zn377    1.0000 0.37890  0.37599  0.78024  Biso   1.000  Zn
  Zn378    1.0000 0.37437  0.38053  0.72280  Biso   1.000  Zn
  Zn379    1.0000 0.42790  0.37944  0.75101  Biso   1.000  Zn
  Zn380    1.0000 0.39437  0.42958  0.75020  Biso   1.000  Zn
  Zn381    1.0000 0.37313  0.26855  0.88138  Biso   1.000  Zn
  Zn382    1.0000 0.38376  0.20935  0.88776  Biso   1.000  Zn
  Zn383    1.0000 0.42855  0.24644  0.90219  Biso   1.000  Zn
  Zn384    1.0000 0.37974  0.24368  0.93576  Biso   1.000  Zn
  O1411    1.0000 0.38302  0.33831  0.75911  Biso   1.000  O
  O1412    1.0000 0.37023  0.28185  0.65710  Biso   1.000  O
  O1413    1.0000 0.38467  0.24299  0.66534  Biso   1.000  O
  O1414    1.0000 0.37604  0.25524  0.84427  Biso   1.000  O
  O1415    1.0000 0.39310  0.21670  0.85089  Biso   1.000  O
  O1416    1.0000 0.38646  0.16219  0.74729  Biso   1.000  O
  O1417    1.0000 0.37960  0.15316  0.78820  Biso   1.000  O
  O1418    1.0000 0.40102  0.35969  0.80560  Biso   1.000  O
  O1419    1.0000 0.43710  0.36345  0.78346  Biso   1.000  O
  O1420    1.0000 0.40207  0.29365  0.87308  Biso   1.000  O
  O1421    1.0000 0.43939  0.27680  0.88442  Biso   1.000  O
  O1422    1.0000 0.55246  0.28107  0.88525  Biso   1.000  O
  O1423    1.0000 0.58122  0.37288  0.81300  Biso   1.000  O
  O1424    1.0000 0.55170  0.36070  0.78477  Biso   1.000  O
  O1425    1.0000 0.37479  0.40851  0.80306  Biso   1.000  O
  O1426    1.0000 0.37793  0.44362  0.77931  Biso   1.000  O
  O1427    1.0000 0.27657  0.44078  0.86100  Biso   1.000  O
  O1428    1.0000 0.30355  0.40919  0.86974  Biso   1.000  O
  O1429    1.0000 0.36438  0.59392  0.80126  Biso   1.000  O
  O1430    1.0000 0.37745  0.55812  0.78118  Biso   1.000  O
  O1431    1.0000 0.27334  0.55211  0.86254  Biso   1.000  O
  O1432    1.0000 0.29439  0.58841  0.86267  Biso   1.000  O
  O1433    1.0000 0.40836  0.24330  0.95932  Biso   1.000  O
  O1434    1.0000 0.44336  0.24781  0.93654  Biso   1.000  O
  O1435    1.0000 0.40782  0.24678  0.04881  Biso   1.000  O
  O1436    1.0000 0.44378  0.25155  0.07135  Biso   1.000  O
  O1437    1.0000 0.39243  0.24300  0.90179  Biso   1.000  O
  O1438    1.0000 0.39401  0.39306  0.75088  Biso   1.000  O
  C2633    1.0000 0.37580  0.33172  0.73830  Biso   1.000  C
  C2634    1.0000 0.37670  0.30378  0.73170  Biso   1.000  C
  C2635    1.0000 0.37580  0.29671  0.70620  Biso   1.000  C
  H988     1.0000 0.37420  0.30930  0.69330  Biso   1.000  H
  C2636    1.0000 0.37730  0.27135  0.69974  Biso   1.000  C
  C2637    1.0000 0.37780  0.26490  0.67182  Biso   1.000  C
  C2638    1.0000 0.37890  0.25301  0.71860  Biso   1.000  C
  H989     1.0000 0.37960  0.23560  0.71400  Biso   1.000  H
  C2639    1.0000 0.37880  0.28524  0.75042  Biso   1.000  C
  H990     1.0000 0.37990  0.29020  0.76770  Biso   1.000  H
  C2640    1.0000 0.37940  0.25966  0.74427  Biso   1.000  C
  C2641    1.0000 0.38050  0.23980  0.76454  Biso   1.000  C
  C2642    1.0000 0.38190  0.21433  0.75858  Biso   1.000  C
  H991     1.0000 0.38210  0.20940  0.74120  Biso   1.000  H
  C2643    1.0000 0.38070  0.24590  0.79045  Biso   1.000  C
  H992     1.0000 0.37910  0.26320  0.79550  Biso   1.000  H
  C2644    1.0000 0.38300  0.22730  0.80893  Biso   1.000  C
  C2645    1.0000 0.38340  0.23370  0.83680  Biso   1.000  C
  C2646    1.0000 0.38450  0.20260  0.80220  Biso   1.000  C
  H993     1.0000 0.38670  0.18990  0.81490  Biso   1.000  H
  C2647    1.0000 0.38300  0.19569  0.77705  Biso   1.000  C
  C2648    1.0000 0.38360  0.16802  0.77010  Biso   1.000  C
  C2649    1.0000 0.42453  0.35589  0.80218  Biso   1.000  C
  C2650    1.0000 0.43866  0.34154  0.82238  Biso   1.000  C
  C2651    1.0000 0.42548  0.32584  0.83891  Biso   1.000  C
  H994     1.0000 0.40740  0.32520  0.83860  Biso   1.000  H
  C2652    1.0000 0.43927  0.31099  0.85589  Biso   1.000  C
  C2653    1.0000 0.42571  0.29229  0.87251  Biso   1.000  C
  C2654    1.0000 0.46546  0.31291  0.85711  Biso   1.000  C
  H995     1.0000 0.47460  0.30310  0.86920  Biso   1.000  H
  C2655    1.0000 0.46505  0.34303  0.82334  Biso   1.000  C
  H996     1.0000 0.47380  0.35380  0.81180  Biso   1.000  H
  C2656    1.0000 0.47850  0.32904  0.84080  Biso   1.000  C
  C2657    1.0000 0.50731  0.33082  0.84241  Biso   1.000  C
  C2658    1.0000 0.52100  0.31695  0.86021  Biso   1.000  C
  H997     1.0000 0.51220  0.30590  0.87150  Biso   1.000  H
  C2659    1.0000 0.54744  0.31887  0.86181  Biso   1.000  C
  O1439    1.0000 0.58271  0.31034  0.88830  Biso   1.000  O
  C2660    1.0000 0.56039  0.33470  0.84543  Biso   1.000  C
  H998     1.0000 0.57830  0.33680  0.84700  Biso   1.000  H
  C2661    1.0000 0.54711  0.34740  0.82680  Biso   1.000  C
  C2662    1.0000 0.56120  0.36200  0.80720  Biso   1.000  C
  C2663    1.0000 0.52124  0.34530  0.82530  Biso   1.000  C
  H999     1.0000 0.51250  0.35400  0.81210  Biso   1.000  H
  C2664    1.0000 0.37050  0.43100  0.79880  Biso   1.000  C
  C2665    1.0000 0.35330  0.44510  0.81690  Biso   1.000  C
  C2666    1.0000 0.33690  0.43122  0.83220  Biso   1.000  C
  H1000    1.0000 0.33810  0.41320  0.83320  Biso   1.000  H
  C2667    1.0000 0.31850  0.44433  0.84600  Biso   1.000  C
  C2668    1.0000 0.29850  0.43015  0.86050  Biso   1.000  C
  C2669    1.0000 0.31790  0.47095  0.84510  Biso   1.000  C
  H1001    1.0000 0.30540  0.47970  0.85470  Biso   1.000  H
  C2670    1.0000 0.35218  0.47182  0.81620  Biso   1.000  C
  H1002    1.0000 0.36350  0.48090  0.80550  Biso   1.000  H
  C2671    1.0000 0.33501  0.48495  0.83080  Biso   1.000  C
  C2672    1.0000 0.33356  0.51376  0.83030  Biso   1.000  C
  C2673    1.0000 0.35022  0.52835  0.81577  Biso   1.000  C
  H1003    1.0000 0.36290  0.52000  0.80590  Biso   1.000  H
  C2674    1.0000 0.34884  0.55464  0.81528  Biso   1.000  C
  C2675    1.0000 0.36515  0.56979  0.79780  Biso   1.000  C
  C2676    1.0000 0.33080  0.56715  0.82961  Biso   1.000  C
  H1004    1.0000 0.33020  0.58520  0.83000  Biso   1.000  H
  C2677    1.0000 0.31338  0.55246  0.84361  Biso   1.000  C
  C2678    1.0000 0.29214  0.56586  0.85741  Biso   1.000  C
  C2679    1.0000 0.31468  0.52626  0.84350  Biso   1.000  C
  H1005    1.0000 0.30240  0.51670  0.85270  Biso   1.000  H
  C2680    1.0000 0.43151  0.24630  0.95696  Biso   1.000  C
  C2681    1.0000 0.44624  0.24720  0.98134  Biso   1.000  C
  C2682    1.0000 0.43314  0.24750  0.00421  Biso   1.000  C
  H1006    1.0000 0.41510  0.24660  0.00440  Biso   1.000  H
  C2683    1.0000 0.44632  0.24900  0.02643  Biso   1.000  C
  C2684    1.0000 0.43162  0.24920  0.05069  Biso   1.000  C
  C2685    1.0000 0.47250  0.25000  0.02662  Biso   1.000  C
  H1007    1.0000 0.48130  0.25140  0.04230  Biso   1.000  H
  C2686    1.0000 0.48598  0.24900  0.00383  Biso   1.000  C
  C2687    1.0000 0.47240  0.24840  0.98118  Biso   1.000  C
  H1008    1.0000 0.48120  0.24890  0.96540  Biso   1.000  H
  O1440    1.0000 0.36707  0.34533  0.72082  Biso   1.000  O
  C2688    1.0000 0.56176  0.30220  0.88005  Biso   1.000  C
