data_image0
_cell_length_a       24.9239
_cell_length_b       24.9239
_cell_length_c       24.9239
_cell_angle_alpha    90
_cell_angle_beta     90
_cell_angle_gamma    90

_symmetry_space_group_name_H-M    "P 1"
_symmetry_int_tables_number       1

loop_
  _symmetry_equiv_pos_as_xyz
  'x, y, z'

loop_
  _atom_site_label
  _atom_site_occupancy
  _atom_site_fract_x
  _atom_site_fract_y
  _atom_site_fract_z
  _atom_site_thermal_displace_type
  _atom_site_B_iso_or_equiv
  _atom_site_type_symbol
  Ni1      1.0000 0.08048  0.08987  0.17319  Biso   1.000  Ni
  Ni2      1.0000 0.16717  0.00013  0.18467  Biso   1.000  Ni
  Ni3      1.0000 0.12929  0.07022  0.43545  Biso   1.000  Ni
  Ni4      1.0000 0.02773  0.00438  0.40357  Biso   1.000  Ni
  W1       1.0000 0.14632  0.94559  0.05344  Biso   1.000  W
  W2       1.0000 0.05262  0.94290  0.95188  Biso   1.000  W
  W3       1.0000 0.15408  0.03758  0.95338  Biso   1.000  W
  W4       1.0000 0.97485  0.10682  0.64431  Biso   1.000  W
  W5       1.0000 0.08992  0.09962  0.56866  Biso   1.000  W
  W6       1.0000 0.05022  0.99048  0.63998  Biso   1.000  W
  W7       1.0000 0.10507  0.04908  0.29943  Biso   1.000  W
  O1       1.0000 0.16800  0.99820  0.09850  Biso   1.000  O
  O2       1.0000 0.10465  0.99192  0.42658  Biso   1.000  O
  O3       1.0000 0.08060  0.09760  0.25380  Biso   1.000  O
  O4       1.0000 0.16100  0.08002  0.16962  Biso   1.000  O
  O5       1.0000 0.08250  0.00600  0.17530  Biso   1.000  O
  O6       1.0000 0.08580  0.01070  0.01630  Biso   1.000  O
  O7       1.0000 0.08650  0.93000  0.10010  Biso   1.000  O
  O8       1.0000 0.04590  0.08238  0.42430  Biso   1.000  O
  O9       1.0000 0.11090  0.05290  0.51690  Biso   1.000  O
  O10      1.0000 0.10030  0.04920  0.62390  Biso   1.000  O
  O11      1.0000 0.94030  0.14340  0.58750  Biso   1.000  O
  O12      1.0000 0.99900  0.92970  0.00540  Biso   1.000  O
  O13      1.0000 0.98470  0.95260  0.63890  Biso   1.000  O
  O14      1.0000 0.18220  0.97750  0.99350  Biso   1.000  O
  O15      1.0000 0.13780  0.08340  0.35290  Biso   1.000  O
  O16      1.0000 0.04020  0.13430  0.62200  Biso   1.000  O
  O17      1.0000 0.01100  0.04880  0.67760  Biso   1.000  O
  O18      1.0000 0.10300  0.90810  0.99650  Biso   1.000  O
  O19      1.0000 0.05160  0.01100  0.32470  Biso   1.000  O
  O20      1.0000 0.10920  0.98060  0.91790  Biso   1.000  O
  O21      1.0000 0.15390  0.00810  0.26750  Biso   1.000  O
  O22      1.0000 0.00770  0.04600  0.57310  Biso   1.000  O
  N1       1.0000 0.17540  0.91740  0.19400  Biso   1.000  N
  H1       1.0000 0.15360  0.90580  0.22030  Biso   1.000  H
  H2       1.0000 0.16620  0.90060  0.16340  Biso   1.000  H
  N2       1.0000 0.25000  0.99860  0.18570  Biso   1.000  N
  H3       1.0000 0.26320  0.02060  0.16030  Biso   1.000  H
  H4       1.0000 0.26230  0.00950  0.21790  Biso   1.000  H
  N3       1.0000 0.20930  0.05420  0.44450  Biso   1.000  N
  H5       1.0000 0.21440  0.02910  0.46990  Biso   1.000  H
  H6       1.0000 0.22340  0.04230  0.41350  Biso   1.000  H
  N4       1.0000 0.15330  0.14950  0.44900  Biso   1.000  N
  H7       1.0000 0.14380  0.17030  0.42110  Biso   1.000  H
  H8       1.0000 0.13730  0.16230  0.47870  Biso   1.000  H
  C1       1.0000 0.23200  0.90530  0.20760  Biso   1.000  C
  H9       1.0000 0.23770  0.91230  0.24580  Biso   1.000  H
  C2       1.0000 0.26680  0.94300  0.17540  Biso   1.000  C
  H10      1.0000 0.30410  0.93850  0.18550  Biso   1.000  H
  H11      1.0000 0.26340  0.93510  0.13740  Biso   1.000  H
  C3       1.0000 0.24550  0.84680  0.19620  Biso   1.000  C
  H12      1.0000 0.22420  0.82410  0.21880  Biso   1.000  H
  H13      1.0000 0.28290  0.84070  0.20330  Biso   1.000  H
  H14      1.0000 0.23800  0.83890  0.15920  Biso   1.000  H
  C4       1.0000 0.21100  0.15010  0.45560  Biso   1.000  C
  H15      1.0000 0.21840  0.15330  0.41710  Biso   1.000  H
  C5       1.0000 0.23460  0.10470  0.46030  Biso   1.000  C
  H16      1.0000 0.24430  0.10110  0.49780  Biso   1.000  H
  H17      1.0000 0.26790  0.10730  0.44040  Biso   1.000  H
  C6       1.0000 0.23670  0.20260  0.46970  Biso   1.000  C
  H18      1.0000 0.27480  0.19800  0.47230  Biso   1.000  H
  H19      1.0000 0.22280  0.21500  0.50340  Biso   1.000  H
  H20      1.0000 0.22880  0.22850  0.44220  Biso   1.000  H
  Ni5      1.0000 0.41952  0.91013  0.67319  Biso   1.000  Ni
  Ni6      1.0000 0.33283  0.99987  0.68467  Biso   1.000  Ni
  Ni7      1.0000 0.37071  0.92978  0.93545  Biso   1.000  Ni
  Ni8      1.0000 0.47227  0.99562  0.90357  Biso   1.000  Ni
  W8       1.0000 0.35368  0.05441  0.55344  Biso   1.000  W
  W9       1.0000 0.44738  0.05710  0.45188  Biso   1.000  W
  W10      1.0000 0.34592  0.96242  0.45338  Biso   1.000  W
  W11      1.0000 0.52515  0.89318  0.14431  Biso   1.000  W
  W12      1.0000 0.41008  0.90038  0.06866  Biso   1.000  W
  W13      1.0000 0.44978  0.00952  0.13998  Biso   1.000  W
  W14      1.0000 0.39493  0.95092  0.79943  Biso   1.000  W
  O23      1.0000 0.33200  0.00180  0.59850  Biso   1.000  O
  O24      1.0000 0.39535  0.00808  0.92658  Biso   1.000  O
  O25      1.0000 0.41940  0.90240  0.75380  Biso   1.000  O
  O26      1.0000 0.33900  0.91998  0.66962  Biso   1.000  O
  O27      1.0000 0.41750  0.99400  0.67530  Biso   1.000  O
  O28      1.0000 0.41420  0.98930  0.51630  Biso   1.000  O
  O29      1.0000 0.41350  0.07000  0.60010  Biso   1.000  O
  O30      1.0000 0.45410  0.91762  0.92430  Biso   1.000  O
  O31      1.0000 0.38910  0.94710  0.01690  Biso   1.000  O
  O32      1.0000 0.39970  0.95080  0.12390  Biso   1.000  O
  O33      1.0000 0.55970  0.85660  0.08750  Biso   1.000  O
  O34      1.0000 0.50100  0.07030  0.50540  Biso   1.000  O
  O35      1.0000 0.51530  0.04740  0.13890  Biso   1.000  O
  O36      1.0000 0.31780  0.02250  0.49350  Biso   1.000  O
  O37      1.0000 0.36220  0.91660  0.85290  Biso   1.000  O
  O38      1.0000 0.45980  0.86570  0.12200  Biso   1.000  O
  O39      1.0000 0.48900  0.95120  0.17760  Biso   1.000  O
  O40      1.0000 0.39700  0.09190  0.49650  Biso   1.000  O
  O41      1.0000 0.44840  0.98900  0.82470  Biso   1.000  O
  O42      1.0000 0.39080  0.01940  0.41790  Biso   1.000  O
  O43      1.0000 0.34610  0.99190  0.76750  Biso   1.000  O
  O44      1.0000 0.49230  0.95400  0.07310  Biso   1.000  O
  N5       1.0000 0.32460  0.08260  0.69400  Biso   1.000  N
  H21      1.0000 0.34640  0.09420  0.72030  Biso   1.000  H
  H22      1.0000 0.33380  0.09940  0.66340  Biso   1.000  H
  N6       1.0000 0.25000  0.00140  0.68570  Biso   1.000  N
  H23      1.0000 0.23680  0.97940  0.66030  Biso   1.000  H
  H24      1.0000 0.23770  0.99050  0.71790  Biso   1.000  H
  N7       1.0000 0.29070  0.94580  0.94450  Biso   1.000  N
  H25      1.0000 0.28560  0.97090  0.96990  Biso   1.000  H
  H26      1.0000 0.27660  0.95770  0.91350  Biso   1.000  H
  N8       1.0000 0.34670  0.85050  0.94900  Biso   1.000  N
  H27      1.0000 0.35620  0.82970  0.92110  Biso   1.000  H
  H28      1.0000 0.36270  0.83770  0.97870  Biso   1.000  H
  C7       1.0000 0.26800  0.09470  0.70760  Biso   1.000  C
  H29      1.0000 0.26230  0.08770  0.74580  Biso   1.000  H
  C8       1.0000 0.23320  0.05700  0.67540  Biso   1.000  C
  H30      1.0000 0.19590  0.06150  0.68550  Biso   1.000  H
  H31      1.0000 0.23660  0.06490  0.63740  Biso   1.000  H
  C9       1.0000 0.25450  0.15320  0.69620  Biso   1.000  C
  H32      1.0000 0.27580  0.17590  0.71880  Biso   1.000  H
  H33      1.0000 0.21710  0.15930  0.70330  Biso   1.000  H
  H34      1.0000 0.26200  0.16110  0.65920  Biso   1.000  H
  C10      1.0000 0.28900  0.84990  0.95560  Biso   1.000  C
  H35      1.0000 0.28160  0.84670  0.91710  Biso   1.000  H
  C11      1.0000 0.26540  0.89530  0.96030  Biso   1.000  C
  H36      1.0000 0.25570  0.89890  0.99780  Biso   1.000  H
  H37      1.0000 0.23210  0.89270  0.94040  Biso   1.000  H
  C12      1.0000 0.26330  0.79740  0.96970  Biso   1.000  C
  H38      1.0000 0.22520  0.80200  0.97230  Biso   1.000  H
  H39      1.0000 0.27720  0.78500  0.00340  Biso   1.000  H
  H40      1.0000 0.27120  0.77150  0.94220  Biso   1.000  H
  Ni9      1.0000 0.91952  0.58987  0.32681  Biso   1.000  Ni
  Ni10     1.0000 0.83283  0.50013  0.31533  Biso   1.000  Ni
  Ni11     1.0000 0.87071  0.57022  0.06455  Biso   1.000  Ni
  Ni12     1.0000 0.97227  0.50438  0.09643  Biso   1.000  Ni
  W15      1.0000 0.85368  0.44559  0.44656  Biso   1.000  W
  W16      1.0000 0.94738  0.44290  0.54811  Biso   1.000  W
  W17      1.0000 0.84592  0.53758  0.54662  Biso   1.000  W
  W18      1.0000 0.02515  0.60682  0.85569  Biso   1.000  W
  W19      1.0000 0.91008  0.59962  0.93134  Biso   1.000  W
  W20      1.0000 0.94978  0.49048  0.86002  Biso   1.000  W
  W21      1.0000 0.89493  0.54908  0.20057  Biso   1.000  W
  O45      1.0000 0.83200  0.49820  0.40150  Biso   1.000  O
  O46      1.0000 0.89535  0.49192  0.07342  Biso   1.000  O
  O47      1.0000 0.91940  0.59760  0.24620  Biso   1.000  O
  O48      1.0000 0.83900  0.58002  0.33038  Biso   1.000  O
  O49      1.0000 0.91750  0.50600  0.32470  Biso   1.000  O
  O50      1.0000 0.91420  0.51070  0.48370  Biso   1.000  O
  O51      1.0000 0.91350  0.43000  0.39990  Biso   1.000  O
  O52      1.0000 0.95410  0.58238  0.07570  Biso   1.000  O
  O53      1.0000 0.88910  0.55290  0.98310  Biso   1.000  O
  O54      1.0000 0.89970  0.54920  0.87610  Biso   1.000  O
  O55      1.0000 0.05970  0.64340  0.91250  Biso   1.000  O
  O56      1.0000 0.00100  0.42970  0.49460  Biso   1.000  O
  O57      1.0000 0.01530  0.45260  0.86110  Biso   1.000  O
  O58      1.0000 0.81780  0.47750  0.50650  Biso   1.000  O
  O59      1.0000 0.86220  0.58340  0.14710  Biso   1.000  O
  O60      1.0000 0.95980  0.63430  0.87800  Biso   1.000  O
  O61      1.0000 0.98900  0.54880  0.82240  Biso   1.000  O
  O62      1.0000 0.89700  0.40810  0.50350  Biso   1.000  O
  O63      1.0000 0.94840  0.51100  0.17530  Biso   1.000  O
  O64      1.0000 0.89080  0.48060  0.58210  Biso   1.000  O
  O65      1.0000 0.84610  0.50810  0.23250  Biso   1.000  O
  O66      1.0000 0.99230  0.54600  0.92690  Biso   1.000  O
  N9       1.0000 0.82460  0.41740  0.30600  Biso   1.000  N
  H41      1.0000 0.84640  0.40580  0.27970  Biso   1.000  H
  H42      1.0000 0.83380  0.40060  0.33660  Biso   1.000  H
  N10      1.0000 0.75000  0.49860  0.31430  Biso   1.000  N
  H43      1.0000 0.73680  0.52060  0.33970  Biso   1.000  H
  H44      1.0000 0.73770  0.50950  0.28210  Biso   1.000  H
  N11      1.0000 0.79070  0.55420  0.05550  Biso   1.000  N
  H45      1.0000 0.78560  0.52910  0.03010  Biso   1.000  H
  H46      1.0000 0.77660  0.54230  0.08650  Biso   1.000  H
  N12      1.0000 0.84670  0.64950  0.05100  Biso   1.000  N
  H47      1.0000 0.85620  0.67030  0.07890  Biso   1.000  H
  H48      1.0000 0.86270  0.66230  0.02130  Biso   1.000  H
  C13      1.0000 0.76800  0.40530  0.29240  Biso   1.000  C
  H49      1.0000 0.76230  0.41230  0.25420  Biso   1.000  H
  C14      1.0000 0.73320  0.44300  0.32460  Biso   1.000  C
  H50      1.0000 0.69590  0.43850  0.31450  Biso   1.000  H
  H51      1.0000 0.73660  0.43510  0.36260  Biso   1.000  H
  C15      1.0000 0.75450  0.34680  0.30380  Biso   1.000  C
  H52      1.0000 0.77580  0.32410  0.28120  Biso   1.000  H
  H53      1.0000 0.71710  0.34070  0.29670  Biso   1.000  H
  H54      1.0000 0.76200  0.33890  0.34080  Biso   1.000  H
  C16      1.0000 0.78900  0.65010  0.04440  Biso   1.000  C
  H55      1.0000 0.78160  0.65330  0.08290  Biso   1.000  H
  C17      1.0000 0.76540  0.60470  0.03970  Biso   1.000  C
  H56      1.0000 0.75570  0.60110  0.00220  Biso   1.000  H
  H57      1.0000 0.73210  0.60730  0.05960  Biso   1.000  H
  C18      1.0000 0.76330  0.70260  0.03030  Biso   1.000  C
  H58      1.0000 0.72520  0.69800  0.02770  Biso   1.000  H
  H59      1.0000 0.77720  0.71500  0.99660  Biso   1.000  H
  H60      1.0000 0.77120  0.72850  0.05780  Biso   1.000  H
  Ni13     1.0000 0.58048  0.41013  0.82681  Biso   1.000  Ni
  Ni14     1.0000 0.66717  0.49987  0.81533  Biso   1.000  Ni
  Ni15     1.0000 0.62929  0.42978  0.56455  Biso   1.000  Ni
  Ni16     1.0000 0.52773  0.49562  0.59643  Biso   1.000  Ni
  W22      1.0000 0.64632  0.55441  0.94656  Biso   1.000  W
  W23      1.0000 0.55262  0.55710  0.04811  Biso   1.000  W
  W24      1.0000 0.65408  0.46242  0.04662  Biso   1.000  W
  W25      1.0000 0.47485  0.39318  0.35569  Biso   1.000  W
  W26      1.0000 0.58992  0.40038  0.43134  Biso   1.000  W
  W27      1.0000 0.55022  0.50952  0.36002  Biso   1.000  W
  W28      1.0000 0.60507  0.45092  0.70057  Biso   1.000  W
  O67      1.0000 0.66800  0.50180  0.90150  Biso   1.000  O
  O68      1.0000 0.60465  0.50808  0.57342  Biso   1.000  O
  O69      1.0000 0.58060  0.40240  0.74620  Biso   1.000  O
  O70      1.0000 0.66100  0.41998  0.83038  Biso   1.000  O
  O71      1.0000 0.58250  0.49400  0.82470  Biso   1.000  O
  O72      1.0000 0.58580  0.48930  0.98370  Biso   1.000  O
  O73      1.0000 0.58650  0.57000  0.89990  Biso   1.000  O
  O74      1.0000 0.54590  0.41762  0.57570  Biso   1.000  O
  O75      1.0000 0.61090  0.44710  0.48310  Biso   1.000  O
  O76      1.0000 0.60030  0.45080  0.37610  Biso   1.000  O
  O77      1.0000 0.44030  0.35660  0.41250  Biso   1.000  O
  O78      1.0000 0.49900  0.57030  0.99460  Biso   1.000  O
  O79      1.0000 0.48470  0.54740  0.36110  Biso   1.000  O
  O80      1.0000 0.68220  0.52250  0.00650  Biso   1.000  O
  O81      1.0000 0.63780  0.41660  0.64710  Biso   1.000  O
  O82      1.0000 0.54020  0.36570  0.37800  Biso   1.000  O
  O83      1.0000 0.51100  0.45120  0.32240  Biso   1.000  O
  O84      1.0000 0.60300  0.59190  0.00350  Biso   1.000  O
  O85      1.0000 0.55160  0.48900  0.67530  Biso   1.000  O
  O86      1.0000 0.60920  0.51940  0.08210  Biso   1.000  O
  O87      1.0000 0.65390  0.49190  0.73250  Biso   1.000  O
  O88      1.0000 0.50770  0.45400  0.42690  Biso   1.000  O
  N13      1.0000 0.67540  0.58260  0.80600  Biso   1.000  N
  H61      1.0000 0.65360  0.59420  0.77970  Biso   1.000  H
  H62      1.0000 0.66620  0.59940  0.83660  Biso   1.000  H
  N14      1.0000 0.75000  0.50140  0.81430  Biso   1.000  N
  H63      1.0000 0.76320  0.47940  0.83970  Biso   1.000  H
  H64      1.0000 0.76230  0.49050  0.78210  Biso   1.000  H
  N15      1.0000 0.70930  0.44580  0.55550  Biso   1.000  N
  H65      1.0000 0.71440  0.47090  0.53010  Biso   1.000  H
  H66      1.0000 0.72340  0.45770  0.58650  Biso   1.000  H
  N16      1.0000 0.65330  0.35050  0.55100  Biso   1.000  N
  H67      1.0000 0.64380  0.32970  0.57890  Biso   1.000  H
  H68      1.0000 0.63730  0.33770  0.52130  Biso   1.000  H
  C19      1.0000 0.73200  0.59470  0.79240  Biso   1.000  C
  H69      1.0000 0.73770  0.58770  0.75420  Biso   1.000  H
  C20      1.0000 0.76680  0.55700  0.82460  Biso   1.000  C
  H70      1.0000 0.80410  0.56150  0.81450  Biso   1.000  H
  H71      1.0000 0.76340  0.56490  0.86260  Biso   1.000  H
  C21      1.0000 0.74550  0.65320  0.80380  Biso   1.000  C
  H72      1.0000 0.72420  0.67590  0.78120  Biso   1.000  H
  H73      1.0000 0.78290  0.65930  0.79670  Biso   1.000  H
  H74      1.0000 0.73800  0.66110  0.84080  Biso   1.000  H
  C22      1.0000 0.71100  0.34990  0.54440  Biso   1.000  C
  H75      1.0000 0.71840  0.34670  0.58290  Biso   1.000  H
  C23      1.0000 0.73460  0.39530  0.53970  Biso   1.000  C
  H76      1.0000 0.74430  0.39890  0.50220  Biso   1.000  H
  H77      1.0000 0.76790  0.39270  0.55960  Biso   1.000  H
  C24      1.0000 0.73670  0.29740  0.53030  Biso   1.000  C
  H78      1.0000 0.77480  0.30200  0.52770  Biso   1.000  H
  H79      1.0000 0.72280  0.28500  0.49660  Biso   1.000  H
  H80      1.0000 0.72880  0.27150  0.55780  Biso   1.000  H
  Ni17     1.0000 0.17319  0.08048  0.08987  Biso   1.000  Ni
  Ni18     1.0000 0.18467  0.16717  0.00013  Biso   1.000  Ni
  Ni19     1.0000 0.43545  0.12929  0.07022  Biso   1.000  Ni
  Ni20     1.0000 0.40357  0.02773  0.00438  Biso   1.000  Ni
  W29      1.0000 0.05344  0.14632  0.94559  Biso   1.000  W
  W30      1.0000 0.95188  0.05262  0.94290  Biso   1.000  W
  W31      1.0000 0.95338  0.15408  0.03758  Biso   1.000  W
  W32      1.0000 0.64431  0.97485  0.10682  Biso   1.000  W
  W33      1.0000 0.56866  0.08992  0.09962  Biso   1.000  W
  W34      1.0000 0.63998  0.05022  0.99048  Biso   1.000  W
  W35      1.0000 0.29943  0.10507  0.04908  Biso   1.000  W
  O89      1.0000 0.09850  0.16800  0.99820  Biso   1.000  O
  O90      1.0000 0.42658  0.10465  0.99192  Biso   1.000  O
  O91      1.0000 0.25380  0.08060  0.09760  Biso   1.000  O
  O92      1.0000 0.16962  0.16100  0.08002  Biso   1.000  O
  O93      1.0000 0.17530  0.08250  0.00600  Biso   1.000  O
  O94      1.0000 0.01630  0.08580  0.01070  Biso   1.000  O
  O95      1.0000 0.10010  0.08650  0.93000  Biso   1.000  O
  O96      1.0000 0.42430  0.04590  0.08238  Biso   1.000  O
  O97      1.0000 0.51690  0.11090  0.05290  Biso   1.000  O
  O98      1.0000 0.62390  0.10030  0.04920  Biso   1.000  O
  O99      1.0000 0.58750  0.94030  0.14340  Biso   1.000  O
  O100     1.0000 0.00540  0.99900  0.92970  Biso   1.000  O
  O101     1.0000 0.63890  0.98470  0.95260  Biso   1.000  O
  O102     1.0000 0.99350  0.18220  0.97750  Biso   1.000  O
  O103     1.0000 0.35290  0.13780  0.08340  Biso   1.000  O
  O104     1.0000 0.62200  0.04020  0.13430  Biso   1.000  O
  O105     1.0000 0.67760  0.01100  0.04880  Biso   1.000  O
  O106     1.0000 0.99650  0.10300  0.90810  Biso   1.000  O
  O107     1.0000 0.32470  0.05160  0.01100  Biso   1.000  O
  O108     1.0000 0.91790  0.10920  0.98060  Biso   1.000  O
  O109     1.0000 0.26750  0.15390  0.00810  Biso   1.000  O
  O110     1.0000 0.57310  0.00770  0.04600  Biso   1.000  O
  N17      1.0000 0.19400  0.17540  0.91740  Biso   1.000  N
  H81      1.0000 0.22030  0.15360  0.90580  Biso   1.000  H
  H82      1.0000 0.16340  0.16620  0.90060  Biso   1.000  H
  N18      1.0000 0.18570  0.25000  0.99860  Biso   1.000  N
  H83      1.0000 0.16030  0.26320  0.02060  Biso   1.000  H
  H84      1.0000 0.21790  0.26230  0.00950  Biso   1.000  H
  N19      1.0000 0.44450  0.20930  0.05420  Biso   1.000  N
  H85      1.0000 0.46990  0.21440  0.02910  Biso   1.000  H
  H86      1.0000 0.41350  0.22340  0.04230  Biso   1.000  H
  N20      1.0000 0.44900  0.15330  0.14950  Biso   1.000  N
  H87      1.0000 0.42110  0.14380  0.17030  Biso   1.000  H
  H88      1.0000 0.47870  0.13730  0.16230  Biso   1.000  H
  C25      1.0000 0.20760  0.23200  0.90530  Biso   1.000  C
  H89      1.0000 0.24580  0.23770  0.91230  Biso   1.000  H
  C26      1.0000 0.17540  0.26680  0.94300  Biso   1.000  C
  H90      1.0000 0.18550  0.30410  0.93850  Biso   1.000  H
  H91      1.0000 0.13740  0.26340  0.93510  Biso   1.000  H
  C27      1.0000 0.19620  0.24550  0.84680  Biso   1.000  C
  H92      1.0000 0.21880  0.22420  0.82410  Biso   1.000  H
  H93      1.0000 0.20330  0.28290  0.84070  Biso   1.000  H
  H94      1.0000 0.15920  0.23800  0.83890  Biso   1.000  H
  C28      1.0000 0.45560  0.21100  0.15010  Biso   1.000  C
  H95      1.0000 0.41710  0.21840  0.15330  Biso   1.000  H
  C29      1.0000 0.46030  0.23460  0.10470  Biso   1.000  C
  H96      1.0000 0.49780  0.24430  0.10110  Biso   1.000  H
  H97      1.0000 0.44040  0.26790  0.10730  Biso   1.000  H
  C30      1.0000 0.46970  0.23670  0.20260  Biso   1.000  C
  H98      1.0000 0.47230  0.27480  0.19800  Biso   1.000  H
  H99      1.0000 0.50340  0.22280  0.21500  Biso   1.000  H
  H100     1.0000 0.44220  0.22880  0.22850  Biso   1.000  H
  Ni21     1.0000 0.67319  0.41952  0.91013  Biso   1.000  Ni
  Ni22     1.0000 0.68467  0.33283  0.99987  Biso   1.000  Ni
  Ni23     1.0000 0.93545  0.37071  0.92978  Biso   1.000  Ni
  Ni24     1.0000 0.90357  0.47227  0.99562  Biso   1.000  Ni
  W36      1.0000 0.55344  0.35368  0.05441  Biso   1.000  W
  W37      1.0000 0.45189  0.44738  0.05710  Biso   1.000  W
  W38      1.0000 0.45338  0.34592  0.96242  Biso   1.000  W
  W39      1.0000 0.14431  0.52515  0.89318  Biso   1.000  W
  W40      1.0000 0.06866  0.41008  0.90038  Biso   1.000  W
  W41      1.0000 0.13998  0.44978  0.00952  Biso   1.000  W
  W42      1.0000 0.79943  0.39493  0.95092  Biso   1.000  W
  O111     1.0000 0.59850  0.33200  0.00180  Biso   1.000  O
  O112     1.0000 0.92658  0.39535  0.00808  Biso   1.000  O
  O113     1.0000 0.75380  0.41940  0.90240  Biso   1.000  O
  O114     1.0000 0.66962  0.33900  0.91998  Biso   1.000  O
  O115     1.0000 0.67530  0.41750  0.99400  Biso   1.000  O
  O116     1.0000 0.51630  0.41420  0.98930  Biso   1.000  O
  O117     1.0000 0.60010  0.41350  0.07000  Biso   1.000  O
  O118     1.0000 0.92430  0.45410  0.91762  Biso   1.000  O
  O119     1.0000 0.01690  0.38910  0.94710  Biso   1.000  O
  O120     1.0000 0.12390  0.39970  0.95080  Biso   1.000  O
  O121     1.0000 0.08750  0.55970  0.85660  Biso   1.000  O
  O122     1.0000 0.50540  0.50100  0.07030  Biso   1.000  O
  O123     1.0000 0.13890  0.51530  0.04740  Biso   1.000  O
  O124     1.0000 0.49350  0.31780  0.02250  Biso   1.000  O
  O125     1.0000 0.85290  0.36220  0.91660  Biso   1.000  O
  O126     1.0000 0.12200  0.45980  0.86570  Biso   1.000  O
  O127     1.0000 0.17760  0.48900  0.95120  Biso   1.000  O
  O128     1.0000 0.49650  0.39700  0.09190  Biso   1.000  O
  O129     1.0000 0.82470  0.44840  0.98900  Biso   1.000  O
  O130     1.0000 0.41790  0.39080  0.01940  Biso   1.000  O
  O131     1.0000 0.76750  0.34610  0.99190  Biso   1.000  O
  O132     1.0000 0.07310  0.49230  0.95400  Biso   1.000  O
  N21      1.0000 0.69400  0.32460  0.08260  Biso   1.000  N
  H101     1.0000 0.72030  0.34640  0.09420  Biso   1.000  H
  H102     1.0000 0.66340  0.33380  0.09940  Biso   1.000  H
  N22      1.0000 0.68570  0.25000  0.00140  Biso   1.000  N
  H103     1.0000 0.66030  0.23680  0.97940  Biso   1.000  H
  H104     1.0000 0.71790  0.23770  0.99050  Biso   1.000  H
  N23      1.0000 0.94450  0.29070  0.94580  Biso   1.000  N
  H105     1.0000 0.96990  0.28560  0.97090  Biso   1.000  H
  H106     1.0000 0.91350  0.27660  0.95770  Biso   1.000  H
  N24      1.0000 0.94900  0.34670  0.85050  Biso   1.000  N
  H107     1.0000 0.92110  0.35620  0.82970  Biso   1.000  H
  H108     1.0000 0.97870  0.36270  0.83770  Biso   1.000  H
  C31      1.0000 0.70760  0.26800  0.09470  Biso   1.000  C
  H109     1.0000 0.74580  0.26230  0.08770  Biso   1.000  H
  C32      1.0000 0.67540  0.23320  0.05700  Biso   1.000  C
  H110     1.0000 0.68550  0.19590  0.06150  Biso   1.000  H
  H111     1.0000 0.63740  0.23660  0.06490  Biso   1.000  H
  C33      1.0000 0.69620  0.25450  0.15320  Biso   1.000  C
  H112     1.0000 0.71880  0.27580  0.17590  Biso   1.000  H
  H113     1.0000 0.70330  0.21710  0.15930  Biso   1.000  H
  H114     1.0000 0.65920  0.26200  0.16110  Biso   1.000  H
  C34      1.0000 0.95560  0.28900  0.84990  Biso   1.000  C
  H115     1.0000 0.91710  0.28160  0.84670  Biso   1.000  H
  C35      1.0000 0.96030  0.26540  0.89530  Biso   1.000  C
  H116     1.0000 0.99780  0.25570  0.89890  Biso   1.000  H
  H117     1.0000 0.94040  0.23210  0.89270  Biso   1.000  H
  C36      1.0000 0.96970  0.26330  0.79740  Biso   1.000  C
  H118     1.0000 0.97230  0.22520  0.80200  Biso   1.000  H
  H119     1.0000 0.00340  0.27720  0.78500  Biso   1.000  H
  H120     1.0000 0.94220  0.27120  0.77150  Biso   1.000  H
  Ni25     1.0000 0.32681  0.91952  0.58987  Biso   1.000  Ni
  Ni26     1.0000 0.31533  0.83283  0.50013  Biso   1.000  Ni
  Ni27     1.0000 0.06455  0.87071  0.57022  Biso   1.000  Ni
  Ni28     1.0000 0.09643  0.97227  0.50438  Biso   1.000  Ni
  W43      1.0000 0.44656  0.85368  0.44559  Biso   1.000  W
  W44      1.0000 0.54811  0.94738  0.44290  Biso   1.000  W
  W45      1.0000 0.54662  0.84592  0.53758  Biso   1.000  W
  W46      1.0000 0.85569  0.02515  0.60682  Biso   1.000  W
  W47      1.0000 0.93134  0.91008  0.59962  Biso   1.000  W
  W48      1.0000 0.86002  0.94978  0.49048  Biso   1.000  W
  W49      1.0000 0.20057  0.89493  0.54908  Biso   1.000  W
  O133     1.0000 0.40150  0.83200  0.49820  Biso   1.000  O
  O134     1.0000 0.07342  0.89535  0.49192  Biso   1.000  O
  O135     1.0000 0.24620  0.91940  0.59760  Biso   1.000  O
  O136     1.0000 0.33038  0.83900  0.58002  Biso   1.000  O
  O137     1.0000 0.32470  0.91750  0.50600  Biso   1.000  O
  O138     1.0000 0.48370  0.91420  0.51070  Biso   1.000  O
  O139     1.0000 0.39990  0.91350  0.43000  Biso   1.000  O
  O140     1.0000 0.07570  0.95410  0.58238  Biso   1.000  O
  O141     1.0000 0.98310  0.88910  0.55290  Biso   1.000  O
  O142     1.0000 0.87610  0.89970  0.54920  Biso   1.000  O
  O143     1.0000 0.91250  0.05970  0.64340  Biso   1.000  O
  O144     1.0000 0.49460  0.00100  0.42970  Biso   1.000  O
  O145     1.0000 0.86110  0.01530  0.45260  Biso   1.000  O
  O146     1.0000 0.50650  0.81780  0.47750  Biso   1.000  O
  O147     1.0000 0.14710  0.86220  0.58340  Biso   1.000  O
  O148     1.0000 0.87800  0.95980  0.63430  Biso   1.000  O
  O149     1.0000 0.82240  0.98900  0.54880  Biso   1.000  O
  O150     1.0000 0.50350  0.89700  0.40810  Biso   1.000  O
  O151     1.0000 0.17530  0.94840  0.51100  Biso   1.000  O
  O152     1.0000 0.58210  0.89080  0.48060  Biso   1.000  O
  O153     1.0000 0.23250  0.84610  0.50810  Biso   1.000  O
  O154     1.0000 0.92690  0.99230  0.54600  Biso   1.000  O
  N25      1.0000 0.30600  0.82460  0.41740  Biso   1.000  N
  H121     1.0000 0.27970  0.84640  0.40580  Biso   1.000  H
  H122     1.0000 0.33660  0.83380  0.40060  Biso   1.000  H
  N26      1.0000 0.31430  0.75000  0.49860  Biso   1.000  N
  H123     1.0000 0.33970  0.73680  0.52060  Biso   1.000  H
  H124     1.0000 0.28210  0.73770  0.50950  Biso   1.000  H
  N27      1.0000 0.05550  0.79070  0.55420  Biso   1.000  N
  H125     1.0000 0.03010  0.78560  0.52910  Biso   1.000  H
  H126     1.0000 0.08650  0.77660  0.54230  Biso   1.000  H
  N28      1.0000 0.05100  0.84670  0.64950  Biso   1.000  N
  H127     1.0000 0.07890  0.85620  0.67030  Biso   1.000  H
  H128     1.0000 0.02130  0.86270  0.66230  Biso   1.000  H
  C37      1.0000 0.29240  0.76800  0.40530  Biso   1.000  C
  H129     1.0000 0.25420  0.76230  0.41230  Biso   1.000  H
  C38      1.0000 0.32460  0.73320  0.44300  Biso   1.000  C
  H130     1.0000 0.31450  0.69590  0.43850  Biso   1.000  H
  H131     1.0000 0.36260  0.73660  0.43510  Biso   1.000  H
  C39      1.0000 0.30380  0.75450  0.34680  Biso   1.000  C
  H132     1.0000 0.28120  0.77580  0.32410  Biso   1.000  H
  H133     1.0000 0.29670  0.71710  0.34070  Biso   1.000  H
  H134     1.0000 0.34080  0.76200  0.33890  Biso   1.000  H
  C40      1.0000 0.04440  0.78900  0.65010  Biso   1.000  C
  H135     1.0000 0.08290  0.78160  0.65330  Biso   1.000  H
  C41      1.0000 0.03970  0.76540  0.60470  Biso   1.000  C
  H136     1.0000 0.00220  0.75570  0.60110  Biso   1.000  H
  H137     1.0000 0.05960  0.73210  0.60730  Biso   1.000  H
  C42      1.0000 0.03030  0.76330  0.70260  Biso   1.000  C
  H138     1.0000 0.02770  0.72520  0.69800  Biso   1.000  H
  H139     1.0000 0.99660  0.77720  0.71500  Biso   1.000  H
  H140     1.0000 0.05780  0.77120  0.72850  Biso   1.000  H
  Ni29     1.0000 0.82681  0.58048  0.41013  Biso   1.000  Ni
  Ni30     1.0000 0.81533  0.66717  0.49987  Biso   1.000  Ni
  Ni31     1.0000 0.56455  0.62929  0.42978  Biso   1.000  Ni
  Ni32     1.0000 0.59643  0.52773  0.49562  Biso   1.000  Ni
  W50      1.0000 0.94656  0.64632  0.55441  Biso   1.000  W
  W51      1.0000 0.04811  0.55262  0.55710  Biso   1.000  W
  W52      1.0000 0.04662  0.65408  0.46242  Biso   1.000  W
  W53      1.0000 0.35569  0.47485  0.39318  Biso   1.000  W
  W54      1.0000 0.43134  0.58992  0.40038  Biso   1.000  W
  W55      1.0000 0.36002  0.55022  0.50952  Biso   1.000  W
  W56      1.0000 0.70057  0.60507  0.45092  Biso   1.000  W
  O155     1.0000 0.90150  0.66800  0.50180  Biso   1.000  O
  O156     1.0000 0.57342  0.60465  0.50808  Biso   1.000  O
  O157     1.0000 0.74620  0.58060  0.40240  Biso   1.000  O
  O158     1.0000 0.83038  0.66100  0.41998  Biso   1.000  O
  O159     1.0000 0.82470  0.58250  0.49400  Biso   1.000  O
  O160     1.0000 0.98370  0.58580  0.48930  Biso   1.000  O
  O161     1.0000 0.89990  0.58650  0.57000  Biso   1.000  O
  O162     1.0000 0.57570  0.54590  0.41762  Biso   1.000  O
  O163     1.0000 0.48310  0.61090  0.44710  Biso   1.000  O
  O164     1.0000 0.37610  0.60030  0.45080  Biso   1.000  O
  O165     1.0000 0.41250  0.44030  0.35660  Biso   1.000  O
  O166     1.0000 0.99460  0.49900  0.57030  Biso   1.000  O
  O167     1.0000 0.36110  0.48470  0.54740  Biso   1.000  O
  O168     1.0000 0.00650  0.68220  0.52250  Biso   1.000  O
  O169     1.0000 0.64710  0.63780  0.41660  Biso   1.000  O
  O170     1.0000 0.37800  0.54020  0.36570  Biso   1.000  O
  O171     1.0000 0.32240  0.51100  0.45120  Biso   1.000  O
  O172     1.0000 0.00350  0.60300  0.59190  Biso   1.000  O
  O173     1.0000 0.67530  0.55160  0.48900  Biso   1.000  O
  O174     1.0000 0.08210  0.60920  0.51940  Biso   1.000  O
  O175     1.0000 0.73250  0.65390  0.49190  Biso   1.000  O
  O176     1.0000 0.42690  0.50770  0.45400  Biso   1.000  O
  N29      1.0000 0.80600  0.67540  0.58260  Biso   1.000  N
  H141     1.0000 0.77970  0.65360  0.59420  Biso   1.000  H
  H142     1.0000 0.83660  0.66620  0.59940  Biso   1.000  H
  N30      1.0000 0.81430  0.75000  0.50140  Biso   1.000  N
  H143     1.0000 0.83970  0.76320  0.47940  Biso   1.000  H
  H144     1.0000 0.78210  0.76230  0.49050  Biso   1.000  H
  N31      1.0000 0.55550  0.70930  0.44580  Biso   1.000  N
  H145     1.0000 0.53010  0.71440  0.47090  Biso   1.000  H
  H146     1.0000 0.58650  0.72340  0.45770  Biso   1.000  H
  N32      1.0000 0.55100  0.65330  0.35050  Biso   1.000  N
  H147     1.0000 0.57890  0.64380  0.32970  Biso   1.000  H
  H148     1.0000 0.52130  0.63730  0.33770  Biso   1.000  H
  C43      1.0000 0.79240  0.73200  0.59470  Biso   1.000  C
  H149     1.0000 0.75420  0.73770  0.58770  Biso   1.000  H
  C44      1.0000 0.82460  0.76680  0.55700  Biso   1.000  C
  H150     1.0000 0.81450  0.80410  0.56150  Biso   1.000  H
  H151     1.0000 0.86260  0.76340  0.56490  Biso   1.000  H
  C45      1.0000 0.80380  0.74550  0.65320  Biso   1.000  C
  H152     1.0000 0.78120  0.72420  0.67590  Biso   1.000  H
  H153     1.0000 0.79670  0.78290  0.65930  Biso   1.000  H
  H154     1.0000 0.84080  0.73800  0.66110  Biso   1.000  H
  C46      1.0000 0.54440  0.71100  0.34990  Biso   1.000  C
  H155     1.0000 0.58290  0.71840  0.34670  Biso   1.000  H
  C47      1.0000 0.53970  0.73460  0.39530  Biso   1.000  C
  H156     1.0000 0.50220  0.74430  0.39890  Biso   1.000  H
  H157     1.0000 0.55960  0.76790  0.39270  Biso   1.000  H
  C48      1.0000 0.53030  0.73670  0.29740  Biso   1.000  C
  H158     1.0000 0.52770  0.77480  0.30200  Biso   1.000  H
  H159     1.0000 0.49660  0.72280  0.28500  Biso   1.000  H
  H160     1.0000 0.55780  0.72880  0.27150  Biso   1.000  H
  Ni33     1.0000 0.08987  0.17319  0.08048  Biso   1.000  Ni
  Ni34     1.0000 0.00013  0.18467  0.16717  Biso   1.000  Ni
  Ni35     1.0000 0.07022  0.43545  0.12929  Biso   1.000  Ni
  Ni36     1.0000 0.00438  0.40357  0.02773  Biso   1.000  Ni
  W57      1.0000 0.94559  0.05344  0.14632  Biso   1.000  W
  W58      1.0000 0.94290  0.95188  0.05262  Biso   1.000  W
  W59      1.0000 0.03758  0.95338  0.15408  Biso   1.000  W
  W60      1.0000 0.10682  0.64431  0.97485  Biso   1.000  W
  W61      1.0000 0.09962  0.56866  0.08992  Biso   1.000  W
  W62      1.0000 0.99048  0.63998  0.05022  Biso   1.000  W
  W63      1.0000 0.04908  0.29943  0.10507  Biso   1.000  W
  O177     1.0000 0.99820  0.09850  0.16800  Biso   1.000  O
  O178     1.0000 0.99192  0.42658  0.10465  Biso   1.000  O
  O179     1.0000 0.09760  0.25380  0.08060  Biso   1.000  O
  O180     1.0000 0.08002  0.16962  0.16100  Biso   1.000  O
  O181     1.0000 0.00600  0.17530  0.08250  Biso   1.000  O
  O182     1.0000 0.01070  0.01630  0.08580  Biso   1.000  O
  O183     1.0000 0.93000  0.10010  0.08650  Biso   1.000  O
  O184     1.0000 0.08238  0.42430  0.04590  Biso   1.000  O
  O185     1.0000 0.05290  0.51690  0.11090  Biso   1.000  O
  O186     1.0000 0.04920  0.62390  0.10030  Biso   1.000  O
  O187     1.0000 0.14340  0.58750  0.94030  Biso   1.000  O
  O188     1.0000 0.92970  0.00540  0.99900  Biso   1.000  O
  O189     1.0000 0.95260  0.63890  0.98470  Biso   1.000  O
  O190     1.0000 0.97750  0.99350  0.18220  Biso   1.000  O
  O191     1.0000 0.08340  0.35290  0.13780  Biso   1.000  O
  O192     1.0000 0.13430  0.62200  0.04020  Biso   1.000  O
  O193     1.0000 0.04880  0.67760  0.01100  Biso   1.000  O
  O194     1.0000 0.90810  0.99650  0.10300  Biso   1.000  O
  O195     1.0000 0.01100  0.32470  0.05160  Biso   1.000  O
  O196     1.0000 0.98060  0.91790  0.10920  Biso   1.000  O
  O197     1.0000 0.00810  0.26750  0.15390  Biso   1.000  O
  O198     1.0000 0.04600  0.57310  0.00770  Biso   1.000  O
  N33      1.0000 0.91740  0.19400  0.17540  Biso   1.000  N
  H161     1.0000 0.90580  0.22030  0.15360  Biso   1.000  H
  H162     1.0000 0.90060  0.16340  0.16620  Biso   1.000  H
  N34      1.0000 0.99860  0.18570  0.25000  Biso   1.000  N
  H163     1.0000 0.02060  0.16030  0.26320  Biso   1.000  H
  H164     1.0000 0.00950  0.21790  0.26230  Biso   1.000  H
  N35      1.0000 0.05420  0.44450  0.20930  Biso   1.000  N
  H165     1.0000 0.02910  0.46990  0.21440  Biso   1.000  H
  H166     1.0000 0.04230  0.41350  0.22340  Biso   1.000  H
  N36      1.0000 0.14950  0.44900  0.15330  Biso   1.000  N
  H167     1.0000 0.17030  0.42110  0.14380  Biso   1.000  H
  H168     1.0000 0.16230  0.47870  0.13730  Biso   1.000  H
  C49      1.0000 0.90530  0.20760  0.23200  Biso   1.000  C
  H169     1.0000 0.91230  0.24580  0.23770  Biso   1.000  H
  C50      1.0000 0.94300  0.17540  0.26680  Biso   1.000  C
  H170     1.0000 0.93850  0.18550  0.30410  Biso   1.000  H
  H171     1.0000 0.93510  0.13740  0.26340  Biso   1.000  H
  C51      1.0000 0.84680  0.19620  0.24550  Biso   1.000  C
  H172     1.0000 0.82410  0.21880  0.22420  Biso   1.000  H
  H173     1.0000 0.84070  0.20330  0.28290  Biso   1.000  H
  H174     1.0000 0.83890  0.15920  0.23800  Biso   1.000  H
  C52      1.0000 0.15010  0.45560  0.21100  Biso   1.000  C
  H175     1.0000 0.15330  0.41710  0.21840  Biso   1.000  H
  C53      1.0000 0.10470  0.46030  0.23460  Biso   1.000  C
  H176     1.0000 0.10110  0.49780  0.24430  Biso   1.000  H
  H177     1.0000 0.10730  0.44040  0.26790  Biso   1.000  H
  C54      1.0000 0.20260  0.46970  0.23670  Biso   1.000  C
  H178     1.0000 0.19800  0.47230  0.27480  Biso   1.000  H
  H179     1.0000 0.21500  0.50340  0.22280  Biso   1.000  H
  H180     1.0000 0.22850  0.44220  0.22880  Biso   1.000  H
  Ni37     1.0000 0.91013  0.67319  0.41952  Biso   1.000  Ni
  Ni38     1.0000 0.99987  0.68467  0.33283  Biso   1.000  Ni
  Ni39     1.0000 0.92978  0.93545  0.37071  Biso   1.000  Ni
  Ni40     1.0000 0.99562  0.90357  0.47227  Biso   1.000  Ni
  W64      1.0000 0.05441  0.55344  0.35368  Biso   1.000  W
  W65      1.0000 0.05710  0.45188  0.44738  Biso   1.000  W
  W66      1.0000 0.96242  0.45338  0.34592  Biso   1.000  W
  W67      1.0000 0.89318  0.14431  0.52515  Biso   1.000  W
  W68      1.0000 0.90038  0.06866  0.41008  Biso   1.000  W
  W69      1.0000 0.00952  0.13998  0.44978  Biso   1.000  W
  W70      1.0000 0.95092  0.79943  0.39493  Biso   1.000  W
  O199     1.0000 0.00180  0.59850  0.33200  Biso   1.000  O
  O200     1.0000 0.00808  0.92658  0.39535  Biso   1.000  O
  O201     1.0000 0.90240  0.75380  0.41940  Biso   1.000  O
  O202     1.0000 0.91998  0.66962  0.33900  Biso   1.000  O
  O203     1.0000 0.99400  0.67530  0.41750  Biso   1.000  O
  O204     1.0000 0.98930  0.51630  0.41420  Biso   1.000  O
  O205     1.0000 0.07000  0.60010  0.41350  Biso   1.000  O
  O206     1.0000 0.91762  0.92430  0.45410  Biso   1.000  O
  O207     1.0000 0.94710  0.01690  0.38910  Biso   1.000  O
  O208     1.0000 0.95080  0.12390  0.39970  Biso   1.000  O
  O209     1.0000 0.85660  0.08750  0.55970  Biso   1.000  O
  O210     1.0000 0.07030  0.50540  0.50100  Biso   1.000  O
  O211     1.0000 0.04740  0.13890  0.51530  Biso   1.000  O
  O212     1.0000 0.02250  0.49350  0.31780  Biso   1.000  O
  O213     1.0000 0.91660  0.85290  0.36220  Biso   1.000  O
  O214     1.0000 0.86570  0.12200  0.45980  Biso   1.000  O
  O215     1.0000 0.95120  0.17760  0.48900  Biso   1.000  O
  O216     1.0000 0.09190  0.49650  0.39700  Biso   1.000  O
  O217     1.0000 0.98900  0.82470  0.44840  Biso   1.000  O
  O218     1.0000 0.01940  0.41790  0.39080  Biso   1.000  O
  O219     1.0000 0.99190  0.76750  0.34610  Biso   1.000  O
  O220     1.0000 0.95400  0.07310  0.49230  Biso   1.000  O
  N37      1.0000 0.08260  0.69400  0.32460  Biso   1.000  N
  H181     1.0000 0.09420  0.72030  0.34640  Biso   1.000  H
  H182     1.0000 0.09940  0.66340  0.33380  Biso   1.000  H
  N38      1.0000 0.00140  0.68570  0.25000  Biso   1.000  N
  H183     1.0000 0.97940  0.66030  0.23680  Biso   1.000  H
  H184     1.0000 0.99050  0.71790  0.23770  Biso   1.000  H
  N39      1.0000 0.94580  0.94450  0.29070  Biso   1.000  N
  H185     1.0000 0.97090  0.96990  0.28560  Biso   1.000  H
  H186     1.0000 0.95770  0.91350  0.27660  Biso   1.000  H
  N40      1.0000 0.85050  0.94900  0.34670  Biso   1.000  N
  H187     1.0000 0.82970  0.92110  0.35620  Biso   1.000  H
  H188     1.0000 0.83770  0.97870  0.36270  Biso   1.000  H
  C55      1.0000 0.09470  0.70760  0.26800  Biso   1.000  C
  H189     1.0000 0.08770  0.74580  0.26230  Biso   1.000  H
  C56      1.0000 0.05700  0.67540  0.23320  Biso   1.000  C
  H190     1.0000 0.06150  0.68550  0.19590  Biso   1.000  H
  H191     1.0000 0.06490  0.63740  0.23660  Biso   1.000  H
  C57      1.0000 0.15320  0.69620  0.25450  Biso   1.000  C
  H192     1.0000 0.17590  0.71880  0.27580  Biso   1.000  H
  H193     1.0000 0.15930  0.70330  0.21710  Biso   1.000  H
  H194     1.0000 0.16110  0.65920  0.26200  Biso   1.000  H
  C58      1.0000 0.84990  0.95560  0.28900  Biso   1.000  C
  H195     1.0000 0.84670  0.91710  0.28160  Biso   1.000  H
  C59      1.0000 0.89530  0.96030  0.26540  Biso   1.000  C
  H196     1.0000 0.89890  0.99780  0.25570  Biso   1.000  H
  H197     1.0000 0.89270  0.94040  0.23210  Biso   1.000  H
  C60      1.0000 0.79740  0.96970  0.26330  Biso   1.000  C
  H198     1.0000 0.80200  0.97230  0.22520  Biso   1.000  H
  H199     1.0000 0.78500  0.00340  0.27720  Biso   1.000  H
  H200     1.0000 0.77150  0.94220  0.27120  Biso   1.000  H
  Ni41     1.0000 0.58987  0.32681  0.91952  Biso   1.000  Ni
  Ni42     1.0000 0.50013  0.31533  0.83283  Biso   1.000  Ni
  Ni43     1.0000 0.57022  0.06455  0.87071  Biso   1.000  Ni
  Ni44     1.0000 0.50438  0.09643  0.97227  Biso   1.000  Ni
  W71      1.0000 0.44559  0.44656  0.85368  Biso   1.000  W
  W72      1.0000 0.44290  0.54811  0.94738  Biso   1.000  W
  W73      1.0000 0.53758  0.54662  0.84592  Biso   1.000  W
  W74      1.0000 0.60682  0.85569  0.02515  Biso   1.000  W
  W75      1.0000 0.59962  0.93134  0.91008  Biso   1.000  W
  W76      1.0000 0.49048  0.86002  0.94978  Biso   1.000  W
  W77      1.0000 0.54908  0.20057  0.89493  Biso   1.000  W
  O221     1.0000 0.49820  0.40150  0.83200  Biso   1.000  O
  O222     1.0000 0.49192  0.07342  0.89535  Biso   1.000  O
  O223     1.0000 0.59760  0.24620  0.91940  Biso   1.000  O
  O224     1.0000 0.58002  0.33038  0.83900  Biso   1.000  O
  O225     1.0000 0.50600  0.32470  0.91750  Biso   1.000  O
  O226     1.0000 0.51070  0.48370  0.91420  Biso   1.000  O
  O227     1.0000 0.43000  0.39990  0.91350  Biso   1.000  O
  O228     1.0000 0.58238  0.07570  0.95410  Biso   1.000  O
  O229     1.0000 0.55290  0.98310  0.88910  Biso   1.000  O
  O230     1.0000 0.54920  0.87610  0.89970  Biso   1.000  O
  O231     1.0000 0.64340  0.91250  0.05970  Biso   1.000  O
  O232     1.0000 0.42970  0.49460  0.00100  Biso   1.000  O
  O233     1.0000 0.45260  0.86110  0.01530  Biso   1.000  O
  O234     1.0000 0.47750  0.50650  0.81780  Biso   1.000  O
  O235     1.0000 0.58340  0.14710  0.86220  Biso   1.000  O
  O236     1.0000 0.63430  0.87800  0.95980  Biso   1.000  O
  O237     1.0000 0.54880  0.82240  0.98900  Biso   1.000  O
  O238     1.0000 0.40810  0.50350  0.89700  Biso   1.000  O
  O239     1.0000 0.51100  0.17530  0.94840  Biso   1.000  O
  O240     1.0000 0.48060  0.58210  0.89080  Biso   1.000  O
  O241     1.0000 0.50810  0.23250  0.84610  Biso   1.000  O
  O242     1.0000 0.54600  0.92690  0.99230  Biso   1.000  O
  N41      1.0000 0.41740  0.30600  0.82460  Biso   1.000  N
  H201     1.0000 0.40580  0.27970  0.84640  Biso   1.000  H
  H202     1.0000 0.40060  0.33660  0.83380  Biso   1.000  H
  N42      1.0000 0.49860  0.31430  0.75000  Biso   1.000  N
  H203     1.0000 0.52060  0.33970  0.73680  Biso   1.000  H
  H204     1.0000 0.50950  0.28210  0.73770  Biso   1.000  H
  N43      1.0000 0.55420  0.05550  0.79070  Biso   1.000  N
  H205     1.0000 0.52910  0.03010  0.78560  Biso   1.000  H
  H206     1.0000 0.54230  0.08650  0.77660  Biso   1.000  H
  N44      1.0000 0.64950  0.05100  0.84670  Biso   1.000  N
  H207     1.0000 0.67030  0.07890  0.85620  Biso   1.000  H
  H208     1.0000 0.66230  0.02130  0.86270  Biso   1.000  H
  C61      1.0000 0.40530  0.29240  0.76800  Biso   1.000  C
  H209     1.0000 0.41230  0.25420  0.76230  Biso   1.000  H
  C62      1.0000 0.44300  0.32460  0.73320  Biso   1.000  C
  H210     1.0000 0.43850  0.31450  0.69590  Biso   1.000  H
  H211     1.0000 0.43510  0.36260  0.73660  Biso   1.000  H
  C63      1.0000 0.34680  0.30380  0.75450  Biso   1.000  C
  H212     1.0000 0.32410  0.28120  0.77580  Biso   1.000  H
  H213     1.0000 0.34070  0.29670  0.71710  Biso   1.000  H
  H214     1.0000 0.33890  0.34080  0.76200  Biso   1.000  H
  C64      1.0000 0.65010  0.04440  0.78900  Biso   1.000  C
  H215     1.0000 0.65330  0.08290  0.78160  Biso   1.000  H
  C65      1.0000 0.60470  0.03970  0.76540  Biso   1.000  C
  H216     1.0000 0.60110  0.00220  0.75570  Biso   1.000  H
  H217     1.0000 0.60730  0.05960  0.73210  Biso   1.000  H
  C66      1.0000 0.70260  0.03030  0.76330  Biso   1.000  C
  H218     1.0000 0.69800  0.02770  0.72520  Biso   1.000  H
  H219     1.0000 0.71500  0.99660  0.77720  Biso   1.000  H
  H220     1.0000 0.72850  0.05780  0.77120  Biso   1.000  H
  Ni45     1.0000 0.41013  0.82681  0.58048  Biso   1.000  Ni
  Ni46     1.0000 0.49987  0.81533  0.66717  Biso   1.000  Ni
  Ni47     1.0000 0.42978  0.56455  0.62929  Biso   1.000  Ni
  Ni48     1.0000 0.49562  0.59643  0.52773  Biso   1.000  Ni
  W78      1.0000 0.55441  0.94656  0.64632  Biso   1.000  W
  W79      1.0000 0.55710  0.04811  0.55262  Biso   1.000  W
  W80      1.0000 0.46242  0.04662  0.65408  Biso   1.000  W
  W81      1.0000 0.39318  0.35569  0.47485  Biso   1.000  W
  W82      1.0000 0.40038  0.43134  0.58992  Biso   1.000  W
  W83      1.0000 0.50952  0.36002  0.55022  Biso   1.000  W
  W84      1.0000 0.45092  0.70057  0.60507  Biso   1.000  W
  O243     1.0000 0.50180  0.90150  0.66800  Biso   1.000  O
  O244     1.0000 0.50808  0.57342  0.60465  Biso   1.000  O
  O245     1.0000 0.40240  0.74620  0.58060  Biso   1.000  O
  O246     1.0000 0.41998  0.83038  0.66100  Biso   1.000  O
  O247     1.0000 0.49400  0.82470  0.58250  Biso   1.000  O
  O248     1.0000 0.48930  0.98370  0.58580  Biso   1.000  O
  O249     1.0000 0.57000  0.89990  0.58650  Biso   1.000  O
  O250     1.0000 0.41762  0.57570  0.54590  Biso   1.000  O
  O251     1.0000 0.44710  0.48310  0.61090  Biso   1.000  O
  O252     1.0000 0.45080  0.37610  0.60030  Biso   1.000  O
  O253     1.0000 0.35660  0.41250  0.44030  Biso   1.000  O
  O254     1.0000 0.57030  0.99460  0.49900  Biso   1.000  O
  O255     1.0000 0.54740  0.36110  0.48470  Biso   1.000  O
  O256     1.0000 0.52250  0.00650  0.68220  Biso   1.000  O
  O257     1.0000 0.41660  0.64710  0.63780  Biso   1.000  O
  O258     1.0000 0.36570  0.37800  0.54020  Biso   1.000  O
  O259     1.0000 0.45120  0.32240  0.51100  Biso   1.000  O
  O260     1.0000 0.59190  0.00350  0.60300  Biso   1.000  O
  O261     1.0000 0.48900  0.67530  0.55160  Biso   1.000  O
  O262     1.0000 0.51940  0.08210  0.60920  Biso   1.000  O
  O263     1.0000 0.49190  0.73250  0.65390  Biso   1.000  O
  O264     1.0000 0.45400  0.42690  0.50770  Biso   1.000  O
  N45      1.0000 0.58260  0.80600  0.67540  Biso   1.000  N
  H221     1.0000 0.59420  0.77970  0.65360  Biso   1.000  H
  H222     1.0000 0.59940  0.83660  0.66620  Biso   1.000  H
  N46      1.0000 0.50140  0.81430  0.75000  Biso   1.000  N
  H223     1.0000 0.47940  0.83970  0.76320  Biso   1.000  H
  H224     1.0000 0.49050  0.78210  0.76230  Biso   1.000  H
  N47      1.0000 0.44580  0.55550  0.70930  Biso   1.000  N
  H225     1.0000 0.47090  0.53010  0.71440  Biso   1.000  H
  H226     1.0000 0.45770  0.58650  0.72340  Biso   1.000  H
  N48      1.0000 0.35050  0.55100  0.65330  Biso   1.000  N
  H227     1.0000 0.32970  0.57890  0.64380  Biso   1.000  H
  H228     1.0000 0.33770  0.52130  0.63730  Biso   1.000  H
  C67      1.0000 0.59470  0.79240  0.73200  Biso   1.000  C
  H229     1.0000 0.58770  0.75420  0.73770  Biso   1.000  H
  C68      1.0000 0.55700  0.82460  0.76680  Biso   1.000  C
  H230     1.0000 0.56150  0.81450  0.80410  Biso   1.000  H
  H231     1.0000 0.56490  0.86260  0.76340  Biso   1.000  H
  C69      1.0000 0.65320  0.80380  0.74550  Biso   1.000  C
  H232     1.0000 0.67590  0.78120  0.72420  Biso   1.000  H
  H233     1.0000 0.65930  0.79670  0.78290  Biso   1.000  H
  H234     1.0000 0.66110  0.84080  0.73800  Biso   1.000  H
  C70      1.0000 0.34990  0.54440  0.71100  Biso   1.000  C
  H235     1.0000 0.34670  0.58290  0.71840  Biso   1.000  H
  C71      1.0000 0.39530  0.53970  0.73460  Biso   1.000  C
  H236     1.0000 0.39890  0.50220  0.74430  Biso   1.000  H
  H237     1.0000 0.39270  0.55960  0.76790  Biso   1.000  H
  C72      1.0000 0.29740  0.53030  0.73670  Biso   1.000  C
  H238     1.0000 0.30200  0.52770  0.77480  Biso   1.000  H
  H239     1.0000 0.28500  0.49660  0.72280  Biso   1.000  H
  H240     1.0000 0.27150  0.55780  0.72880  Biso   1.000  H
  P1       1.0000 0.05054  0.05054  0.05054  Biso   1.000  P
  O265     1.0000 0.08700  0.08700  0.08700  Biso   1.000  O
  P2       1.0000 0.44946  0.94946  0.55054  Biso   1.000  P
  O266     1.0000 0.41300  0.91300  0.58700  Biso   1.000  O
  P3       1.0000 0.94946  0.55054  0.44946  Biso   1.000  P
  O267     1.0000 0.91300  0.58700  0.41300  Biso   1.000  O
  P4       1.0000 0.55054  0.44946  0.94946  Biso   1.000  P
  O268     1.0000 0.58700  0.41300  0.91300  Biso   1.000  O
  P5       1.0000 0.97601  0.02399  0.52399  Biso   1.000  P
  O269     1.0000 0.01163  0.98837  0.48837  Biso   1.000  O
  P6       1.0000 0.52399  0.97601  0.02399  Biso   1.000  P
  O270     1.0000 0.48837  0.01163  0.98837  Biso   1.000  O
  P7       1.0000 0.02399  0.52399  0.97601  Biso   1.000  P
  O271     1.0000 0.98837  0.48837  0.01163  Biso   1.000  O
  P8       1.0000 0.47601  0.47601  0.47601  Biso   1.000  P
  O272     1.0000 0.51163  0.51163  0.51163  Biso   1.000  O
