data_image0
_cell_length_a       24.5063
_cell_length_b       24.5063
_cell_length_c       24.5063
_cell_angle_alpha    90
_cell_angle_beta     90
_cell_angle_gamma    90

_symmetry_space_group_name_H-M    "P 1"
_symmetry_int_tables_number       1

loop_
  _symmetry_equiv_pos_as_xyz
  'x, y, z'

loop_
  _atom_site_label
  _atom_site_occupancy
  _atom_site_fract_x
  _atom_site_fract_y
  _atom_site_fract_z
  _atom_site_thermal_displace_type
  _atom_site_B_iso_or_equiv
  _atom_site_type_symbol
  Co1      1.0000 0.89611  0.02906  0.06681  Biso   1.000  Co
  C1       1.0000 0.81340  0.11150  0.10580  Biso   1.000  C
  H1       1.0000 0.79060  0.09100  0.08210  Biso   1.000  H
  C2       1.0000 0.79050  0.15510  0.13260  Biso   1.000  C
  H2       1.0000 0.75270  0.16310  0.12910  Biso   1.000  H
  C3       1.0000 0.82490  0.18770  0.16550  Biso   1.000  C
  C4       1.0000 0.87840  0.17190  0.17090  Biso   1.000  C
  H3       1.0000 0.90250  0.19230  0.19330  Biso   1.000  H
  C5       1.0000 0.89710  0.12610  0.14380  Biso   1.000  C
  H4       1.0000 0.93410  0.11560  0.14860  Biso   1.000  H
  C6       1.0000 0.79350  0.96130  0.04200  Biso   1.000  C
  H5       1.0000 0.80710  0.96230  0.00580  Biso   1.000  H
  C7       1.0000 0.74540  0.93470  0.05150  Biso   1.000  C
  H6       1.0000 0.72620  0.91840  0.02210  Biso   1.000  H
  C8       1.0000 0.72480  0.93160  0.10320  Biso   1.000  C
  C9       1.0000 0.75380  0.95690  0.14430  Biso   1.000  C
  H7       1.0000 0.74060  0.95660  0.18080  Biso   1.000  H
  C10      1.0000 0.80210  0.98250  0.13180  Biso   1.000  C
  H8       1.0000 0.82210  0.99860  0.16090  Biso   1.000  H
  C11      1.0000 0.80230  0.23630  0.19260  Biso   1.000  C
  C12      1.0000 0.67490  0.90080  0.11570  Biso   1.000  C
  N1       1.0000 0.82280  0.98620  0.08170  Biso   1.000  N
  N2       1.0000 0.86520  0.09580  0.11080  Biso   1.000  N
  F1       1.0000 0.86540  0.06370  0.99780  Biso   1.000  F
  F2       1.0000 0.93280  0.96170  0.03160  Biso   1.000  F
  C13      1.0000 0.75620  0.26140  0.17200  Biso   1.000  C
  C14      1.0000 0.64430  0.91500  0.16050  Biso   1.000  C
  H9       1.0000 0.73840  0.24710  0.14070  Biso   1.000  H
  H10      1.0000 0.65420  0.94590  0.18170  Biso   1.000  H
  N3       1.0000 0.82800  0.25620  0.23860  Biso   1.000  N
  N4       1.0000 0.66050  0.85570  0.08500  Biso   1.000  N
  Co2      1.0000 0.60389  0.97094  0.56681  Biso   1.000  Co
  C15      1.0000 0.68660  0.88850  0.60580  Biso   1.000  C
  H11      1.0000 0.70940  0.90900  0.58210  Biso   1.000  H
  C16      1.0000 0.70950  0.84490  0.63260  Biso   1.000  C
  H12      1.0000 0.74730  0.83690  0.62910  Biso   1.000  H
  C17      1.0000 0.67510  0.81230  0.66550  Biso   1.000  C
  C18      1.0000 0.62160  0.82810  0.67090  Biso   1.000  C
  H13      1.0000 0.59750  0.80770  0.69330  Biso   1.000  H
  C19      1.0000 0.60290  0.87390  0.64380  Biso   1.000  C
  H14      1.0000 0.56590  0.88440  0.64860  Biso   1.000  H
  C20      1.0000 0.70650  0.03870  0.54200  Biso   1.000  C
  H15      1.0000 0.69290  0.03770  0.50580  Biso   1.000  H
  C21      1.0000 0.75460  0.06530  0.55150  Biso   1.000  C
  H16      1.0000 0.77380  0.08160  0.52210  Biso   1.000  H
  C22      1.0000 0.77520  0.06840  0.60320  Biso   1.000  C
  C23      1.0000 0.74620  0.04310  0.64430  Biso   1.000  C
  H17      1.0000 0.75940  0.04340  0.68080  Biso   1.000  H
  C24      1.0000 0.69790  0.01750  0.63180  Biso   1.000  C
  H18      1.0000 0.67790  0.00140  0.66090  Biso   1.000  H
  C25      1.0000 0.69770  0.76370  0.69260  Biso   1.000  C
  C26      1.0000 0.82510  0.09920  0.61570  Biso   1.000  C
  N5       1.0000 0.67720  0.01380  0.58170  Biso   1.000  N
  N6       1.0000 0.63480  0.90420  0.61080  Biso   1.000  N
  F3       1.0000 0.63460  0.93630  0.49780  Biso   1.000  F
  F4       1.0000 0.56720  0.03830  0.53160  Biso   1.000  F
  C27      1.0000 0.74380  0.73860  0.67200  Biso   1.000  C
  C28      1.0000 0.85570  0.08500  0.66050  Biso   1.000  C
  H19      1.0000 0.76160  0.75290  0.64070  Biso   1.000  H
  H20      1.0000 0.84580  0.05410  0.68170  Biso   1.000  H
  N7       1.0000 0.67200  0.74380  0.73860  Biso   1.000  N
  N8       1.0000 0.83950  0.14430  0.58500  Biso   1.000  N
  Co3      1.0000 0.10389  0.52906  0.43319  Biso   1.000  Co
  C29      1.0000 0.18660  0.61150  0.39420  Biso   1.000  C
  H21      1.0000 0.20940  0.59100  0.41790  Biso   1.000  H
  C30      1.0000 0.20950  0.65510  0.36740  Biso   1.000  C
  H22      1.0000 0.24730  0.66310  0.37090  Biso   1.000  H
  C31      1.0000 0.17510  0.68770  0.33450  Biso   1.000  C
  C32      1.0000 0.12160  0.67190  0.32910  Biso   1.000  C
  H23      1.0000 0.09750  0.69230  0.30670  Biso   1.000  H
  C33      1.0000 0.10290  0.62610  0.35620  Biso   1.000  C
  H24      1.0000 0.06590  0.61560  0.35140  Biso   1.000  H
  C34      1.0000 0.20650  0.46130  0.45800  Biso   1.000  C
  H25      1.0000 0.19290  0.46230  0.49420  Biso   1.000  H
  C35      1.0000 0.25460  0.43470  0.44850  Biso   1.000  C
  H26      1.0000 0.27380  0.41840  0.47790  Biso   1.000  H
  C36      1.0000 0.27520  0.43160  0.39680  Biso   1.000  C
  C37      1.0000 0.24620  0.45690  0.35570  Biso   1.000  C
  H27      1.0000 0.25940  0.45660  0.31920  Biso   1.000  H
  C38      1.0000 0.19790  0.48250  0.36820  Biso   1.000  C
  H28      1.0000 0.17790  0.49860  0.33910  Biso   1.000  H
  C39      1.0000 0.19770  0.73630  0.30740  Biso   1.000  C
  C40      1.0000 0.32510  0.40080  0.38430  Biso   1.000  C
  N9       1.0000 0.17720  0.48620  0.41830  Biso   1.000  N
  N10      1.0000 0.13480  0.59580  0.38920  Biso   1.000  N
  F5       1.0000 0.13460  0.56370  0.50220  Biso   1.000  F
  F6       1.0000 0.06720  0.46170  0.46840  Biso   1.000  F
  C41      1.0000 0.24380  0.76140  0.32800  Biso   1.000  C
  C42      1.0000 0.35570  0.41500  0.33950  Biso   1.000  C
  H29      1.0000 0.26160  0.74710  0.35930  Biso   1.000  H
  H30      1.0000 0.34580  0.44590  0.31830  Biso   1.000  H
  N11      1.0000 0.17200  0.75620  0.26140  Biso   1.000  N
  N12      1.0000 0.33950  0.35570  0.41500  Biso   1.000  N
  Co4      1.0000 0.39611  0.47094  0.93319  Biso   1.000  Co
  C43      1.0000 0.31340  0.38850  0.89420  Biso   1.000  C
  H31      1.0000 0.29060  0.40900  0.91790  Biso   1.000  H
  C44      1.0000 0.29050  0.34490  0.86740  Biso   1.000  C
  H32      1.0000 0.25270  0.33690  0.87090  Biso   1.000  H
  C45      1.0000 0.32490  0.31230  0.83450  Biso   1.000  C
  C46      1.0000 0.37840  0.32810  0.82910  Biso   1.000  C
  H33      1.0000 0.40250  0.30770  0.80670  Biso   1.000  H
  C47      1.0000 0.39710  0.37390  0.85620  Biso   1.000  C
  H34      1.0000 0.43410  0.38440  0.85140  Biso   1.000  H
  C48      1.0000 0.29350  0.53870  0.95800  Biso   1.000  C
  H35      1.0000 0.30710  0.53770  0.99420  Biso   1.000  H
  C49      1.0000 0.24540  0.56530  0.94850  Biso   1.000  C
  H36      1.0000 0.22620  0.58160  0.97790  Biso   1.000  H
  C50      1.0000 0.22480  0.56840  0.89680  Biso   1.000  C
  C51      1.0000 0.25380  0.54310  0.85570  Biso   1.000  C
  H37      1.0000 0.24060  0.54340  0.81920  Biso   1.000  H
  C52      1.0000 0.30210  0.51750  0.86820  Biso   1.000  C
  H38      1.0000 0.32210  0.50140  0.83910  Biso   1.000  H
  C53      1.0000 0.30230  0.26370  0.80740  Biso   1.000  C
  C54      1.0000 0.17490  0.59920  0.88430  Biso   1.000  C
  N13      1.0000 0.32280  0.51380  0.91830  Biso   1.000  N
  N14      1.0000 0.36520  0.40420  0.88920  Biso   1.000  N
  F7       1.0000 0.36540  0.43630  0.00220  Biso   1.000  F
  F8       1.0000 0.43280  0.53830  0.96840  Biso   1.000  F
  C55      1.0000 0.25620  0.23860  0.82800  Biso   1.000  C
  C56      1.0000 0.14430  0.58500  0.83950  Biso   1.000  C
  H39      1.0000 0.23840  0.25290  0.85930  Biso   1.000  H
  H40      1.0000 0.15420  0.55410  0.81830  Biso   1.000  H
  N15      1.0000 0.32800  0.24380  0.76140  Biso   1.000  N
  N16      1.0000 0.16050  0.64430  0.91500  Biso   1.000  N
  Co5      1.0000 0.06681  0.89611  0.02906  Biso   1.000  Co
  C57      1.0000 0.10580  0.81340  0.11150  Biso   1.000  C
  H41      1.0000 0.08210  0.79060  0.09100  Biso   1.000  H
  C58      1.0000 0.13260  0.79050  0.15510  Biso   1.000  C
  H42      1.0000 0.12910  0.75270  0.16310  Biso   1.000  H
  C59      1.0000 0.16550  0.82490  0.18770  Biso   1.000  C
  C60      1.0000 0.17090  0.87840  0.17190  Biso   1.000  C
  H43      1.0000 0.19330  0.90250  0.19230  Biso   1.000  H
  C61      1.0000 0.14380  0.89710  0.12610  Biso   1.000  C
  H44      1.0000 0.14860  0.93410  0.11560  Biso   1.000  H
  C62      1.0000 0.04200  0.79350  0.96130  Biso   1.000  C
  H45      1.0000 0.00580  0.80710  0.96230  Biso   1.000  H
  C63      1.0000 0.05150  0.74540  0.93470  Biso   1.000  C
  H46      1.0000 0.02210  0.72620  0.91840  Biso   1.000  H
  C64      1.0000 0.10320  0.72480  0.93160  Biso   1.000  C
  C65      1.0000 0.14430  0.75380  0.95690  Biso   1.000  C
  H47      1.0000 0.18080  0.74060  0.95660  Biso   1.000  H
  C66      1.0000 0.13180  0.80210  0.98250  Biso   1.000  C
  H48      1.0000 0.16090  0.82210  0.99860  Biso   1.000  H
  C67      1.0000 0.19260  0.80230  0.23630  Biso   1.000  C
  C68      1.0000 0.11570  0.67490  0.90080  Biso   1.000  C
  N17      1.0000 0.08170  0.82280  0.98620  Biso   1.000  N
  N18      1.0000 0.11080  0.86520  0.09580  Biso   1.000  N
  F9       1.0000 0.99780  0.86540  0.06370  Biso   1.000  F
  F10      1.0000 0.03160  0.93280  0.96170  Biso   1.000  F
  H49      1.0000 0.14070  0.73840  0.24710  Biso   1.000  H
  H50      1.0000 0.18170  0.65420  0.94590  Biso   1.000  H
  N19      1.0000 0.23860  0.82800  0.25620  Biso   1.000  N
  N20      1.0000 0.08500  0.66050  0.85570  Biso   1.000  N
  Co6      1.0000 0.56681  0.60389  0.97094  Biso   1.000  Co
  C69      1.0000 0.60580  0.68660  0.88850  Biso   1.000  C
  H51      1.0000 0.58210  0.70940  0.90900  Biso   1.000  H
  C70      1.0000 0.63260  0.70950  0.84490  Biso   1.000  C
  H52      1.0000 0.62910  0.74730  0.83690  Biso   1.000  H
  C71      1.0000 0.66550  0.67510  0.81230  Biso   1.000  C
  C72      1.0000 0.67090  0.62160  0.82810  Biso   1.000  C
  H53      1.0000 0.69330  0.59750  0.80770  Biso   1.000  H
  C73      1.0000 0.64380  0.60290  0.87390  Biso   1.000  C
  H54      1.0000 0.64860  0.56590  0.88440  Biso   1.000  H
  C74      1.0000 0.54200  0.70650  0.03870  Biso   1.000  C
  H55      1.0000 0.50580  0.69290  0.03770  Biso   1.000  H
  C75      1.0000 0.55150  0.75460  0.06530  Biso   1.000  C
  H56      1.0000 0.52210  0.77380  0.08160  Biso   1.000  H
  C76      1.0000 0.60320  0.77520  0.06840  Biso   1.000  C
  C77      1.0000 0.64430  0.74620  0.04310  Biso   1.000  C
  H57      1.0000 0.68080  0.75940  0.04340  Biso   1.000  H
  C78      1.0000 0.63180  0.69790  0.01750  Biso   1.000  C
  H58      1.0000 0.66090  0.67790  0.00140  Biso   1.000  H
  C79      1.0000 0.69260  0.69770  0.76370  Biso   1.000  C
  C80      1.0000 0.61570  0.82510  0.09920  Biso   1.000  C
  N21      1.0000 0.58170  0.67720  0.01380  Biso   1.000  N
  N22      1.0000 0.61080  0.63480  0.90420  Biso   1.000  N
  F11      1.0000 0.49780  0.63460  0.93630  Biso   1.000  F
  F12      1.0000 0.53160  0.56720  0.03830  Biso   1.000  F
  H59      1.0000 0.64070  0.76160  0.75290  Biso   1.000  H
  H60      1.0000 0.68170  0.84580  0.05410  Biso   1.000  H
  N23      1.0000 0.73860  0.67200  0.74380  Biso   1.000  N
  N24      1.0000 0.58500  0.83950  0.14430  Biso   1.000  N
  Co7      1.0000 0.43319  0.10389  0.52906  Biso   1.000  Co
  C81      1.0000 0.39420  0.18660  0.61150  Biso   1.000  C
  H61      1.0000 0.41790  0.20940  0.59100  Biso   1.000  H
  C82      1.0000 0.36740  0.20950  0.65510  Biso   1.000  C
  H62      1.0000 0.37090  0.24730  0.66310  Biso   1.000  H
  C83      1.0000 0.33450  0.17510  0.68770  Biso   1.000  C
  C84      1.0000 0.32910  0.12160  0.67190  Biso   1.000  C
  H63      1.0000 0.30670  0.09750  0.69230  Biso   1.000  H
  C85      1.0000 0.35620  0.10290  0.62610  Biso   1.000  C
  H64      1.0000 0.35140  0.06590  0.61560  Biso   1.000  H
  C86      1.0000 0.45800  0.20650  0.46130  Biso   1.000  C
  H65      1.0000 0.49420  0.19290  0.46230  Biso   1.000  H
  C87      1.0000 0.44850  0.25460  0.43470  Biso   1.000  C
  H66      1.0000 0.47790  0.27380  0.41840  Biso   1.000  H
  C88      1.0000 0.39680  0.27520  0.43160  Biso   1.000  C
  C89      1.0000 0.35570  0.24620  0.45690  Biso   1.000  C
  H67      1.0000 0.31920  0.25940  0.45660  Biso   1.000  H
  C90      1.0000 0.36820  0.19790  0.48250  Biso   1.000  C
  H68      1.0000 0.33910  0.17790  0.49860  Biso   1.000  H
  C91      1.0000 0.30740  0.19770  0.73630  Biso   1.000  C
  C92      1.0000 0.38430  0.32510  0.40080  Biso   1.000  C
  N25      1.0000 0.41830  0.17720  0.48620  Biso   1.000  N
  N26      1.0000 0.38920  0.13480  0.59580  Biso   1.000  N
  F13      1.0000 0.50220  0.13460  0.56370  Biso   1.000  F
  F14      1.0000 0.46840  0.06720  0.46170  Biso   1.000  F
  H69      1.0000 0.35930  0.26160  0.74710  Biso   1.000  H
  H70      1.0000 0.31830  0.34580  0.44590  Biso   1.000  H
  N27      1.0000 0.26140  0.17200  0.75620  Biso   1.000  N
  N28      1.0000 0.41500  0.33950  0.35570  Biso   1.000  N
  Co8      1.0000 0.93319  0.39611  0.47094  Biso   1.000  Co
  C93      1.0000 0.89420  0.31340  0.38850  Biso   1.000  C
  H71      1.0000 0.91790  0.29060  0.40900  Biso   1.000  H
  C94      1.0000 0.86740  0.29050  0.34490  Biso   1.000  C
  H72      1.0000 0.87090  0.25270  0.33690  Biso   1.000  H
  C95      1.0000 0.83450  0.32490  0.31230  Biso   1.000  C
  C96      1.0000 0.82910  0.37840  0.32810  Biso   1.000  C
  H73      1.0000 0.80670  0.40250  0.30770  Biso   1.000  H
  C97      1.0000 0.85620  0.39710  0.37390  Biso   1.000  C
  H74      1.0000 0.85140  0.43410  0.38440  Biso   1.000  H
  C98      1.0000 0.95800  0.29350  0.53870  Biso   1.000  C
  H75      1.0000 0.99420  0.30710  0.53770  Biso   1.000  H
  C99      1.0000 0.94850  0.24540  0.56530  Biso   1.000  C
  H76      1.0000 0.97790  0.22620  0.58160  Biso   1.000  H
  C100     1.0000 0.89680  0.22480  0.56840  Biso   1.000  C
  C101     1.0000 0.85570  0.25380  0.54310  Biso   1.000  C
  H77      1.0000 0.81920  0.24060  0.54340  Biso   1.000  H
  C102     1.0000 0.86820  0.30210  0.51750  Biso   1.000  C
  H78      1.0000 0.83910  0.32210  0.50140  Biso   1.000  H
  C103     1.0000 0.80740  0.30230  0.26370  Biso   1.000  C
  C104     1.0000 0.88430  0.17490  0.59920  Biso   1.000  C
  N29      1.0000 0.91830  0.32280  0.51380  Biso   1.000  N
  N30      1.0000 0.88920  0.36520  0.40420  Biso   1.000  N
  F15      1.0000 0.00220  0.36540  0.43630  Biso   1.000  F
  F16      1.0000 0.96840  0.43280  0.53830  Biso   1.000  F
  H79      1.0000 0.85930  0.23840  0.25290  Biso   1.000  H
  H80      1.0000 0.81830  0.15420  0.55410  Biso   1.000  H
  N31      1.0000 0.76140  0.32800  0.24380  Biso   1.000  N
  N32      1.0000 0.91500  0.16050  0.64430  Biso   1.000  N
  Co9      1.0000 0.02906  0.06681  0.89611  Biso   1.000  Co
  C105     1.0000 0.11150  0.10580  0.81340  Biso   1.000  C
  H81      1.0000 0.09100  0.08210  0.79060  Biso   1.000  H
  C106     1.0000 0.15510  0.13260  0.79050  Biso   1.000  C
  H82      1.0000 0.16310  0.12910  0.75270  Biso   1.000  H
  C107     1.0000 0.18770  0.16550  0.82490  Biso   1.000  C
  C108     1.0000 0.17190  0.17090  0.87840  Biso   1.000  C
  H83      1.0000 0.19230  0.19330  0.90250  Biso   1.000  H
  C109     1.0000 0.12610  0.14380  0.89710  Biso   1.000  C
  H84      1.0000 0.11560  0.14860  0.93410  Biso   1.000  H
  C110     1.0000 0.96130  0.04200  0.79350  Biso   1.000  C
  H85      1.0000 0.96230  0.00580  0.80710  Biso   1.000  H
  C111     1.0000 0.93470  0.05150  0.74540  Biso   1.000  C
  H86      1.0000 0.91840  0.02210  0.72620  Biso   1.000  H
  C112     1.0000 0.93160  0.10320  0.72480  Biso   1.000  C
  C113     1.0000 0.95690  0.14430  0.75380  Biso   1.000  C
  H87      1.0000 0.95660  0.18080  0.74060  Biso   1.000  H
  C114     1.0000 0.98250  0.13180  0.80210  Biso   1.000  C
  H88      1.0000 0.99860  0.16090  0.82210  Biso   1.000  H
  C115     1.0000 0.23630  0.19260  0.80230  Biso   1.000  C
  C116     1.0000 0.90080  0.11570  0.67490  Biso   1.000  C
  N33      1.0000 0.98620  0.08170  0.82280  Biso   1.000  N
  N34      1.0000 0.09580  0.11080  0.86520  Biso   1.000  N
  F17      1.0000 0.06370  0.99780  0.86540  Biso   1.000  F
  F18      1.0000 0.96170  0.03160  0.93280  Biso   1.000  F
  H89      1.0000 0.24710  0.14070  0.73840  Biso   1.000  H
  H90      1.0000 0.94590  0.18170  0.65420  Biso   1.000  H
  Co10     1.0000 0.97094  0.56681  0.60389  Biso   1.000  Co
  C117     1.0000 0.88850  0.60580  0.68660  Biso   1.000  C
  H91      1.0000 0.90900  0.58210  0.70940  Biso   1.000  H
  C118     1.0000 0.84490  0.63260  0.70950  Biso   1.000  C
  H92      1.0000 0.83690  0.62910  0.74730  Biso   1.000  H
  C119     1.0000 0.81230  0.66550  0.67510  Biso   1.000  C
  C120     1.0000 0.82810  0.67090  0.62160  Biso   1.000  C
  H93      1.0000 0.80770  0.69330  0.59750  Biso   1.000  H
  C121     1.0000 0.87390  0.64380  0.60290  Biso   1.000  C
  H94      1.0000 0.88440  0.64860  0.56590  Biso   1.000  H
  C122     1.0000 0.03870  0.54200  0.70650  Biso   1.000  C
  H95      1.0000 0.03770  0.50580  0.69290  Biso   1.000  H
  C123     1.0000 0.06530  0.55150  0.75460  Biso   1.000  C
  H96      1.0000 0.08160  0.52210  0.77380  Biso   1.000  H
  C124     1.0000 0.06840  0.60320  0.77520  Biso   1.000  C
  C125     1.0000 0.04310  0.64430  0.74620  Biso   1.000  C
  H97      1.0000 0.04340  0.68080  0.75940  Biso   1.000  H
  C126     1.0000 0.01750  0.63180  0.69790  Biso   1.000  C
  H98      1.0000 0.00140  0.66090  0.67790  Biso   1.000  H
  C127     1.0000 0.76370  0.69260  0.69770  Biso   1.000  C
  C128     1.0000 0.09920  0.61570  0.82510  Biso   1.000  C
  N35      1.0000 0.01380  0.58170  0.67720  Biso   1.000  N
  N36      1.0000 0.90420  0.61080  0.63480  Biso   1.000  N
  F19      1.0000 0.93630  0.49780  0.63460  Biso   1.000  F
  F20      1.0000 0.03830  0.53160  0.56720  Biso   1.000  F
  H99      1.0000 0.75290  0.64070  0.76160  Biso   1.000  H
  H100     1.0000 0.05410  0.68170  0.84580  Biso   1.000  H
  Co11     1.0000 0.52906  0.43319  0.10389  Biso   1.000  Co
  C129     1.0000 0.61150  0.39420  0.18660  Biso   1.000  C
  H101     1.0000 0.59100  0.41790  0.20940  Biso   1.000  H
  C130     1.0000 0.65510  0.36740  0.20950  Biso   1.000  C
  H102     1.0000 0.66310  0.37090  0.24730  Biso   1.000  H
  C131     1.0000 0.68770  0.33450  0.17510  Biso   1.000  C
  C132     1.0000 0.67190  0.32910  0.12160  Biso   1.000  C
  H103     1.0000 0.69230  0.30670  0.09750  Biso   1.000  H
  C133     1.0000 0.62610  0.35620  0.10290  Biso   1.000  C
  H104     1.0000 0.61560  0.35140  0.06590  Biso   1.000  H
  C134     1.0000 0.46130  0.45800  0.20650  Biso   1.000  C
  H105     1.0000 0.46230  0.49420  0.19290  Biso   1.000  H
  C135     1.0000 0.43470  0.44850  0.25460  Biso   1.000  C
  H106     1.0000 0.41840  0.47790  0.27380  Biso   1.000  H
  C136     1.0000 0.43160  0.39680  0.27520  Biso   1.000  C
  C137     1.0000 0.45690  0.35570  0.24620  Biso   1.000  C
  H107     1.0000 0.45660  0.31920  0.25940  Biso   1.000  H
  C138     1.0000 0.48250  0.36820  0.19790  Biso   1.000  C
  H108     1.0000 0.49860  0.33910  0.17790  Biso   1.000  H
  C139     1.0000 0.73630  0.30740  0.19770  Biso   1.000  C
  C140     1.0000 0.40080  0.38430  0.32510  Biso   1.000  C
  N37      1.0000 0.48620  0.41830  0.17720  Biso   1.000  N
  N38      1.0000 0.59580  0.38920  0.13480  Biso   1.000  N
  F21      1.0000 0.56370  0.50220  0.13460  Biso   1.000  F
  F22      1.0000 0.46170  0.46840  0.06720  Biso   1.000  F
  H109     1.0000 0.74710  0.35930  0.26160  Biso   1.000  H
  H110     1.0000 0.44590  0.31830  0.34580  Biso   1.000  H
  Co12     1.0000 0.47094  0.93319  0.39611  Biso   1.000  Co
  C141     1.0000 0.38850  0.89420  0.31340  Biso   1.000  C
  H111     1.0000 0.40900  0.91790  0.29060  Biso   1.000  H
  C142     1.0000 0.34490  0.86740  0.29050  Biso   1.000  C
  H112     1.0000 0.33690  0.87090  0.25270  Biso   1.000  H
  C143     1.0000 0.31230  0.83450  0.32490  Biso   1.000  C
  C144     1.0000 0.32810  0.82910  0.37840  Biso   1.000  C
  H113     1.0000 0.30770  0.80670  0.40250  Biso   1.000  H
  C145     1.0000 0.37390  0.85620  0.39710  Biso   1.000  C
  H114     1.0000 0.38440  0.85140  0.43410  Biso   1.000  H
  C146     1.0000 0.53870  0.95800  0.29350  Biso   1.000  C
  H115     1.0000 0.53770  0.99420  0.30710  Biso   1.000  H
  C147     1.0000 0.56530  0.94850  0.24540  Biso   1.000  C
  H116     1.0000 0.58160  0.97790  0.22620  Biso   1.000  H
  C148     1.0000 0.56840  0.89680  0.22480  Biso   1.000  C
  C149     1.0000 0.54310  0.85570  0.25380  Biso   1.000  C
  H117     1.0000 0.54340  0.81920  0.24060  Biso   1.000  H
  C150     1.0000 0.51750  0.86820  0.30210  Biso   1.000  C
  H118     1.0000 0.50140  0.83910  0.32210  Biso   1.000  H
  C151     1.0000 0.26370  0.80740  0.30230  Biso   1.000  C
  C152     1.0000 0.59920  0.88430  0.17490  Biso   1.000  C
  N39      1.0000 0.51380  0.91830  0.32280  Biso   1.000  N
  N40      1.0000 0.40420  0.88920  0.36520  Biso   1.000  N
  F23      1.0000 0.43630  0.00220  0.36540  Biso   1.000  F
  F24      1.0000 0.53830  0.96840  0.43280  Biso   1.000  F
  H119     1.0000 0.25290  0.85930  0.23840  Biso   1.000  H
  H120     1.0000 0.55410  0.81830  0.15420  Biso   1.000  H
  Co13     1.0000 0.10389  0.97094  0.93319  Biso   1.000  Co
  C153     1.0000 0.18660  0.88850  0.89420  Biso   1.000  C
  H121     1.0000 0.20940  0.90900  0.91790  Biso   1.000  H
  C154     1.0000 0.20950  0.84490  0.86740  Biso   1.000  C
  H122     1.0000 0.24730  0.83690  0.87090  Biso   1.000  H
  C155     1.0000 0.17510  0.81230  0.83450  Biso   1.000  C
  C156     1.0000 0.12160  0.82810  0.82910  Biso   1.000  C
  H123     1.0000 0.09750  0.80770  0.80670  Biso   1.000  H
  C157     1.0000 0.10290  0.87390  0.85620  Biso   1.000  C
  H124     1.0000 0.06590  0.88440  0.85140  Biso   1.000  H
  C158     1.0000 0.20650  0.03870  0.95800  Biso   1.000  C
  H125     1.0000 0.19290  0.03770  0.99420  Biso   1.000  H
  C159     1.0000 0.25460  0.06530  0.94850  Biso   1.000  C
  H126     1.0000 0.27380  0.08160  0.97790  Biso   1.000  H
  C160     1.0000 0.27520  0.06840  0.89680  Biso   1.000  C
  C161     1.0000 0.24620  0.04310  0.85570  Biso   1.000  C
  H127     1.0000 0.25940  0.04340  0.81920  Biso   1.000  H
  C162     1.0000 0.19790  0.01750  0.86820  Biso   1.000  C
  H128     1.0000 0.17790  0.00140  0.83910  Biso   1.000  H
  C163     1.0000 0.19770  0.76370  0.80740  Biso   1.000  C
  C164     1.0000 0.32510  0.09920  0.88430  Biso   1.000  C
  N41      1.0000 0.17720  0.01380  0.91830  Biso   1.000  N
  N42      1.0000 0.13480  0.90420  0.88920  Biso   1.000  N
  F25      1.0000 0.13460  0.93630  0.00220  Biso   1.000  F
  F26      1.0000 0.06720  0.03830  0.96840  Biso   1.000  F
  C165     1.0000 0.24380  0.73860  0.82800  Biso   1.000  C
  C166     1.0000 0.35570  0.08500  0.83950  Biso   1.000  C
  H129     1.0000 0.26160  0.75290  0.85930  Biso   1.000  H
  H130     1.0000 0.34580  0.05410  0.81830  Biso   1.000  H
  N43      1.0000 0.17200  0.74380  0.76140  Biso   1.000  N
  N44      1.0000 0.33950  0.14430  0.91500  Biso   1.000  N
  Co14     1.0000 0.39611  0.02906  0.43319  Biso   1.000  Co
  C167     1.0000 0.31340  0.11150  0.39420  Biso   1.000  C
  H131     1.0000 0.29060  0.09100  0.41790  Biso   1.000  H
  C168     1.0000 0.29050  0.15510  0.36740  Biso   1.000  C
  H132     1.0000 0.25270  0.16310  0.37090  Biso   1.000  H
  C169     1.0000 0.32490  0.18770  0.33450  Biso   1.000  C
  C170     1.0000 0.37840  0.17190  0.32910  Biso   1.000  C
  H133     1.0000 0.40250  0.19230  0.30670  Biso   1.000  H
  C171     1.0000 0.39710  0.12610  0.35620  Biso   1.000  C
  H134     1.0000 0.43410  0.11560  0.35140  Biso   1.000  H
  C172     1.0000 0.29350  0.96130  0.45800  Biso   1.000  C
  H135     1.0000 0.30710  0.96230  0.49420  Biso   1.000  H
  C173     1.0000 0.24540  0.93470  0.44850  Biso   1.000  C
  H136     1.0000 0.22620  0.91840  0.47790  Biso   1.000  H
  C174     1.0000 0.22480  0.93160  0.39680  Biso   1.000  C
  C175     1.0000 0.25380  0.95690  0.35570  Biso   1.000  C
  H137     1.0000 0.24060  0.95660  0.31920  Biso   1.000  H
  C176     1.0000 0.30210  0.98250  0.36820  Biso   1.000  C
  H138     1.0000 0.32210  0.99860  0.33910  Biso   1.000  H
  C177     1.0000 0.30230  0.23630  0.30740  Biso   1.000  C
  C178     1.0000 0.17490  0.90080  0.38430  Biso   1.000  C
  N45      1.0000 0.32280  0.98620  0.41830  Biso   1.000  N
  N46      1.0000 0.36520  0.09580  0.38920  Biso   1.000  N
  F27      1.0000 0.36540  0.06370  0.50220  Biso   1.000  F
  F28      1.0000 0.43280  0.96170  0.46840  Biso   1.000  F
  C179     1.0000 0.25620  0.26140  0.32800  Biso   1.000  C
  C180     1.0000 0.14430  0.91500  0.33950  Biso   1.000  C
  H139     1.0000 0.23840  0.24710  0.35930  Biso   1.000  H
  H140     1.0000 0.15420  0.94590  0.31830  Biso   1.000  H
  N47      1.0000 0.32800  0.25620  0.26140  Biso   1.000  N
  N48      1.0000 0.16050  0.85570  0.41500  Biso   1.000  N
  Co15     1.0000 0.89611  0.47094  0.56681  Biso   1.000  Co
  C181     1.0000 0.81340  0.38850  0.60580  Biso   1.000  C
  H141     1.0000 0.79060  0.40900  0.58210  Biso   1.000  H
  C182     1.0000 0.79050  0.34490  0.63260  Biso   1.000  C
  H142     1.0000 0.75270  0.33690  0.62910  Biso   1.000  H
  C183     1.0000 0.82490  0.31230  0.66550  Biso   1.000  C
  C184     1.0000 0.87840  0.32810  0.67090  Biso   1.000  C
  H143     1.0000 0.90250  0.30770  0.69330  Biso   1.000  H
  C185     1.0000 0.89710  0.37390  0.64380  Biso   1.000  C
  H144     1.0000 0.93410  0.38440  0.64860  Biso   1.000  H
  C186     1.0000 0.79350  0.53870  0.54200  Biso   1.000  C
  H145     1.0000 0.80710  0.53770  0.50580  Biso   1.000  H
  C187     1.0000 0.74540  0.56530  0.55150  Biso   1.000  C
  H146     1.0000 0.72620  0.58160  0.52210  Biso   1.000  H
  C188     1.0000 0.72480  0.56840  0.60320  Biso   1.000  C
  C189     1.0000 0.75380  0.54310  0.64430  Biso   1.000  C
  H147     1.0000 0.74060  0.54340  0.68080  Biso   1.000  H
  C190     1.0000 0.80210  0.51750  0.63180  Biso   1.000  C
  H148     1.0000 0.82210  0.50140  0.66090  Biso   1.000  H
  C191     1.0000 0.80230  0.26370  0.69260  Biso   1.000  C
  C192     1.0000 0.67490  0.59920  0.61570  Biso   1.000  C
  N49      1.0000 0.82280  0.51380  0.58170  Biso   1.000  N
  N50      1.0000 0.86520  0.40420  0.61080  Biso   1.000  N
  F29      1.0000 0.86540  0.43630  0.49780  Biso   1.000  F
  F30      1.0000 0.93280  0.53830  0.53160  Biso   1.000  F
  C193     1.0000 0.75620  0.23860  0.67200  Biso   1.000  C
  C194     1.0000 0.64430  0.58500  0.66050  Biso   1.000  C
  H149     1.0000 0.73840  0.25290  0.64070  Biso   1.000  H
  H150     1.0000 0.65420  0.55410  0.68170  Biso   1.000  H
  N51      1.0000 0.82800  0.24380  0.73860  Biso   1.000  N
  N52      1.0000 0.66050  0.64430  0.58500  Biso   1.000  N
  Co16     1.0000 0.60389  0.52906  0.06681  Biso   1.000  Co
  C195     1.0000 0.68660  0.61150  0.10580  Biso   1.000  C
  H151     1.0000 0.70940  0.59100  0.08210  Biso   1.000  H
  C196     1.0000 0.70950  0.65510  0.13260  Biso   1.000  C
  H152     1.0000 0.74730  0.66310  0.12910  Biso   1.000  H
  C197     1.0000 0.67510  0.68770  0.16550  Biso   1.000  C
  C198     1.0000 0.62160  0.67190  0.17090  Biso   1.000  C
  H153     1.0000 0.59750  0.69230  0.19330  Biso   1.000  H
  C199     1.0000 0.60290  0.62610  0.14380  Biso   1.000  C
  H154     1.0000 0.56590  0.61560  0.14860  Biso   1.000  H
  C200     1.0000 0.70650  0.46130  0.04200  Biso   1.000  C
  H155     1.0000 0.69290  0.46230  0.00580  Biso   1.000  H
  C201     1.0000 0.75460  0.43470  0.05150  Biso   1.000  C
  H156     1.0000 0.77380  0.41840  0.02210  Biso   1.000  H
  C202     1.0000 0.77520  0.43160  0.10320  Biso   1.000  C
  C203     1.0000 0.74620  0.45690  0.14430  Biso   1.000  C
  H157     1.0000 0.75940  0.45660  0.18080  Biso   1.000  H
  C204     1.0000 0.69790  0.48250  0.13180  Biso   1.000  C
  H158     1.0000 0.67790  0.49860  0.16090  Biso   1.000  H
  C205     1.0000 0.69770  0.73630  0.19260  Biso   1.000  C
  C206     1.0000 0.82510  0.40080  0.11570  Biso   1.000  C
  N53      1.0000 0.67720  0.48620  0.08170  Biso   1.000  N
  N54      1.0000 0.63480  0.59580  0.11080  Biso   1.000  N
  F31      1.0000 0.63460  0.56370  0.99780  Biso   1.000  F
  F32      1.0000 0.56720  0.46170  0.03160  Biso   1.000  F
  C207     1.0000 0.74380  0.76140  0.17200  Biso   1.000  C
  C208     1.0000 0.85570  0.41500  0.16050  Biso   1.000  C
  H159     1.0000 0.76160  0.74710  0.14070  Biso   1.000  H
  H160     1.0000 0.84580  0.44590  0.18170  Biso   1.000  H
  N55      1.0000 0.67200  0.75620  0.23860  Biso   1.000  N
  N56      1.0000 0.83950  0.35570  0.08500  Biso   1.000  N
  Co17     1.0000 0.93319  0.10389  0.97094  Biso   1.000  Co
  C209     1.0000 0.89420  0.18660  0.88850  Biso   1.000  C
  H161     1.0000 0.91790  0.20940  0.90900  Biso   1.000  H
  C210     1.0000 0.86740  0.20950  0.84490  Biso   1.000  C
  H162     1.0000 0.87090  0.24730  0.83690  Biso   1.000  H
  C211     1.0000 0.83450  0.17510  0.81230  Biso   1.000  C
  C212     1.0000 0.82910  0.12160  0.82810  Biso   1.000  C
  H163     1.0000 0.80670  0.09750  0.80770  Biso   1.000  H
  C213     1.0000 0.85620  0.10290  0.87390  Biso   1.000  C
  H164     1.0000 0.85140  0.06590  0.88440  Biso   1.000  H
  C214     1.0000 0.95800  0.20650  0.03870  Biso   1.000  C
  H165     1.0000 0.99420  0.19290  0.03770  Biso   1.000  H
  C215     1.0000 0.94850  0.25460  0.06530  Biso   1.000  C
  H166     1.0000 0.97790  0.27380  0.08160  Biso   1.000  H
  C216     1.0000 0.89680  0.27520  0.06840  Biso   1.000  C
  C217     1.0000 0.85570  0.24620  0.04310  Biso   1.000  C
  H167     1.0000 0.81920  0.25940  0.04340  Biso   1.000  H
  C218     1.0000 0.86820  0.19790  0.01750  Biso   1.000  C
  H168     1.0000 0.83910  0.17790  0.00140  Biso   1.000  H
  C219     1.0000 0.80740  0.19770  0.76370  Biso   1.000  C
  C220     1.0000 0.88430  0.32510  0.09920  Biso   1.000  C
  N57      1.0000 0.91830  0.17720  0.01380  Biso   1.000  N
  N58      1.0000 0.88920  0.13480  0.90420  Biso   1.000  N
  F33      1.0000 0.00220  0.13460  0.93630  Biso   1.000  F
  F34      1.0000 0.96840  0.06720  0.03830  Biso   1.000  F
  H169     1.0000 0.85930  0.26160  0.75290  Biso   1.000  H
  H170     1.0000 0.81830  0.34580  0.05410  Biso   1.000  H
  N59      1.0000 0.76140  0.17200  0.74380  Biso   1.000  N
  N60      1.0000 0.91500  0.33950  0.14430  Biso   1.000  N
  Co18     1.0000 0.43319  0.39611  0.02906  Biso   1.000  Co
  C221     1.0000 0.39420  0.31340  0.11150  Biso   1.000  C
  H171     1.0000 0.41790  0.29060  0.09100  Biso   1.000  H
  C222     1.0000 0.36740  0.29050  0.15510  Biso   1.000  C
  H172     1.0000 0.37090  0.25270  0.16310  Biso   1.000  H
  C223     1.0000 0.33450  0.32490  0.18770  Biso   1.000  C
  C224     1.0000 0.32910  0.37840  0.17190  Biso   1.000  C
  H173     1.0000 0.30670  0.40250  0.19230  Biso   1.000  H
  C225     1.0000 0.35620  0.39710  0.12610  Biso   1.000  C
  H174     1.0000 0.35140  0.43410  0.11560  Biso   1.000  H
  C226     1.0000 0.45800  0.29350  0.96130  Biso   1.000  C
  H175     1.0000 0.49420  0.30710  0.96230  Biso   1.000  H
  C227     1.0000 0.44850  0.24540  0.93470  Biso   1.000  C
  H176     1.0000 0.47790  0.22620  0.91840  Biso   1.000  H
  C228     1.0000 0.39680  0.22480  0.93160  Biso   1.000  C
  C229     1.0000 0.35570  0.25380  0.95690  Biso   1.000  C
  H177     1.0000 0.31920  0.24060  0.95660  Biso   1.000  H
  C230     1.0000 0.36820  0.30210  0.98250  Biso   1.000  C
  H178     1.0000 0.33910  0.32210  0.99860  Biso   1.000  H
  C231     1.0000 0.30740  0.30230  0.23630  Biso   1.000  C
  C232     1.0000 0.38430  0.17490  0.90080  Biso   1.000  C
  N61      1.0000 0.41830  0.32280  0.98620  Biso   1.000  N
  N62      1.0000 0.38920  0.36520  0.09580  Biso   1.000  N
  F35      1.0000 0.50220  0.36540  0.06370  Biso   1.000  F
  F36      1.0000 0.46840  0.43280  0.96170  Biso   1.000  F
  H179     1.0000 0.35930  0.23840  0.24710  Biso   1.000  H
  H180     1.0000 0.31830  0.15420  0.94590  Biso   1.000  H
  N63      1.0000 0.26140  0.32800  0.25620  Biso   1.000  N
  N64      1.0000 0.41500  0.16050  0.85570  Biso   1.000  N
  Co19     1.0000 0.56681  0.89611  0.47094  Biso   1.000  Co
  C233     1.0000 0.60580  0.81340  0.38850  Biso   1.000  C
  H181     1.0000 0.58210  0.79060  0.40900  Biso   1.000  H
  C234     1.0000 0.63260  0.79050  0.34490  Biso   1.000  C
  H182     1.0000 0.62910  0.75270  0.33690  Biso   1.000  H
  C235     1.0000 0.66550  0.82490  0.31230  Biso   1.000  C
  C236     1.0000 0.67090  0.87840  0.32810  Biso   1.000  C
  H183     1.0000 0.69330  0.90250  0.30770  Biso   1.000  H
  C237     1.0000 0.64380  0.89710  0.37390  Biso   1.000  C
  H184     1.0000 0.64860  0.93410  0.38440  Biso   1.000  H
  C238     1.0000 0.54200  0.79350  0.53870  Biso   1.000  C
  H185     1.0000 0.50580  0.80710  0.53770  Biso   1.000  H
  C239     1.0000 0.55150  0.74540  0.56530  Biso   1.000  C
  H186     1.0000 0.52210  0.72620  0.58160  Biso   1.000  H
  C240     1.0000 0.60320  0.72480  0.56840  Biso   1.000  C
  C241     1.0000 0.64430  0.75380  0.54310  Biso   1.000  C
  H187     1.0000 0.68080  0.74060  0.54340  Biso   1.000  H
  C242     1.0000 0.63180  0.80210  0.51750  Biso   1.000  C
  H188     1.0000 0.66090  0.82210  0.50140  Biso   1.000  H
  C243     1.0000 0.69260  0.80230  0.26370  Biso   1.000  C
  C244     1.0000 0.61570  0.67490  0.59920  Biso   1.000  C
  N65      1.0000 0.58170  0.82280  0.51380  Biso   1.000  N
  N66      1.0000 0.61080  0.86520  0.40420  Biso   1.000  N
  F37      1.0000 0.49780  0.86540  0.43630  Biso   1.000  F
  F38      1.0000 0.53160  0.93280  0.53830  Biso   1.000  F
  H189     1.0000 0.64070  0.73840  0.25290  Biso   1.000  H
  H190     1.0000 0.68170  0.65420  0.55410  Biso   1.000  H
  N67      1.0000 0.73860  0.82800  0.24380  Biso   1.000  N
  N68      1.0000 0.58500  0.66050  0.64430  Biso   1.000  N
  Co20     1.0000 0.06681  0.60389  0.52906  Biso   1.000  Co
  C245     1.0000 0.10580  0.68660  0.61150  Biso   1.000  C
  H191     1.0000 0.08210  0.70940  0.59100  Biso   1.000  H
  C246     1.0000 0.13260  0.70950  0.65510  Biso   1.000  C
  H192     1.0000 0.12910  0.74730  0.66310  Biso   1.000  H
  C247     1.0000 0.16550  0.67510  0.68770  Biso   1.000  C
  C248     1.0000 0.17090  0.62160  0.67190  Biso   1.000  C
  H193     1.0000 0.19330  0.59750  0.69230  Biso   1.000  H
  C249     1.0000 0.14380  0.60290  0.62610  Biso   1.000  C
  H194     1.0000 0.14860  0.56590  0.61560  Biso   1.000  H
  C250     1.0000 0.04200  0.70650  0.46130  Biso   1.000  C
  H195     1.0000 0.00580  0.69290  0.46230  Biso   1.000  H
  C251     1.0000 0.05150  0.75460  0.43470  Biso   1.000  C
  H196     1.0000 0.02210  0.77380  0.41840  Biso   1.000  H
  C252     1.0000 0.10320  0.77520  0.43160  Biso   1.000  C
  C253     1.0000 0.14430  0.74620  0.45690  Biso   1.000  C
  H197     1.0000 0.18080  0.75940  0.45660  Biso   1.000  H
  C254     1.0000 0.13180  0.69790  0.48250  Biso   1.000  C
  H198     1.0000 0.16090  0.67790  0.49860  Biso   1.000  H
  C255     1.0000 0.19260  0.69770  0.73630  Biso   1.000  C
  C256     1.0000 0.11570  0.82510  0.40080  Biso   1.000  C
  N69      1.0000 0.08170  0.67720  0.48620  Biso   1.000  N
  N70      1.0000 0.11080  0.63480  0.59580  Biso   1.000  N
  F39      1.0000 0.99780  0.63460  0.56370  Biso   1.000  F
  F40      1.0000 0.03160  0.56720  0.46170  Biso   1.000  F
  H199     1.0000 0.14070  0.76160  0.74710  Biso   1.000  H
  H200     1.0000 0.18170  0.84580  0.44590  Biso   1.000  H
  N71      1.0000 0.23860  0.67200  0.75620  Biso   1.000  N
  N72      1.0000 0.08500  0.83950  0.35570  Biso   1.000  N
  Co21     1.0000 0.97094  0.93319  0.10389  Biso   1.000  Co
  C257     1.0000 0.88850  0.89420  0.18660  Biso   1.000  C
  H201     1.0000 0.90900  0.91790  0.20940  Biso   1.000  H
  C258     1.0000 0.84490  0.86740  0.20950  Biso   1.000  C
  H202     1.0000 0.83690  0.87090  0.24730  Biso   1.000  H
  C259     1.0000 0.81230  0.83450  0.17510  Biso   1.000  C
  C260     1.0000 0.82810  0.82910  0.12160  Biso   1.000  C
  H203     1.0000 0.80770  0.80670  0.09750  Biso   1.000  H
  C261     1.0000 0.87390  0.85620  0.10290  Biso   1.000  C
  H204     1.0000 0.88440  0.85140  0.06590  Biso   1.000  H
  C262     1.0000 0.03870  0.95800  0.20650  Biso   1.000  C
  H205     1.0000 0.03770  0.99420  0.19290  Biso   1.000  H
  C263     1.0000 0.06530  0.94850  0.25460  Biso   1.000  C
  H206     1.0000 0.08160  0.97790  0.27380  Biso   1.000  H
  C264     1.0000 0.06840  0.89680  0.27520  Biso   1.000  C
  C265     1.0000 0.04310  0.85570  0.24620  Biso   1.000  C
  H207     1.0000 0.04340  0.81920  0.25940  Biso   1.000  H
  C266     1.0000 0.01750  0.86820  0.19790  Biso   1.000  C
  H208     1.0000 0.00140  0.83910  0.17790  Biso   1.000  H
  C267     1.0000 0.76370  0.80740  0.19770  Biso   1.000  C
  C268     1.0000 0.09920  0.88430  0.32510  Biso   1.000  C
  N73      1.0000 0.01380  0.91830  0.17720  Biso   1.000  N
  N74      1.0000 0.90420  0.88920  0.13480  Biso   1.000  N
  F41      1.0000 0.93630  0.00220  0.13460  Biso   1.000  F
  F42      1.0000 0.03830  0.96840  0.06720  Biso   1.000  F
  H209     1.0000 0.75290  0.85930  0.26160  Biso   1.000  H
  H210     1.0000 0.05410  0.81830  0.34580  Biso   1.000  H
  Co22     1.0000 0.02906  0.43319  0.39611  Biso   1.000  Co
  C269     1.0000 0.11150  0.39420  0.31340  Biso   1.000  C
  H211     1.0000 0.09100  0.41790  0.29060  Biso   1.000  H
  C270     1.0000 0.15510  0.36740  0.29050  Biso   1.000  C
  H212     1.0000 0.16310  0.37090  0.25270  Biso   1.000  H
  C271     1.0000 0.18770  0.33450  0.32490  Biso   1.000  C
  C272     1.0000 0.17190  0.32910  0.37840  Biso   1.000  C
  H213     1.0000 0.19230  0.30670  0.40250  Biso   1.000  H
  C273     1.0000 0.12610  0.35620  0.39710  Biso   1.000  C
  H214     1.0000 0.11560  0.35140  0.43410  Biso   1.000  H
  C274     1.0000 0.96130  0.45800  0.29350  Biso   1.000  C
  H215     1.0000 0.96230  0.49420  0.30710  Biso   1.000  H
  C275     1.0000 0.93470  0.44850  0.24540  Biso   1.000  C
  H216     1.0000 0.91840  0.47790  0.22620  Biso   1.000  H
  C276     1.0000 0.93160  0.39680  0.22480  Biso   1.000  C
  C277     1.0000 0.95690  0.35570  0.25380  Biso   1.000  C
  H217     1.0000 0.95660  0.31920  0.24060  Biso   1.000  H
  C278     1.0000 0.98250  0.36820  0.30210  Biso   1.000  C
  H218     1.0000 0.99860  0.33910  0.32210  Biso   1.000  H
  C279     1.0000 0.23630  0.30740  0.30230  Biso   1.000  C
  C280     1.0000 0.90080  0.38430  0.17490  Biso   1.000  C
  N75      1.0000 0.98620  0.41830  0.32280  Biso   1.000  N
  N76      1.0000 0.09580  0.38920  0.36520  Biso   1.000  N
  F43      1.0000 0.06370  0.50220  0.36540  Biso   1.000  F
  F44      1.0000 0.96170  0.46840  0.43280  Biso   1.000  F
  H219     1.0000 0.24710  0.35930  0.23840  Biso   1.000  H
  H220     1.0000 0.94590  0.31830  0.15420  Biso   1.000  H
  Co23     1.0000 0.47094  0.56681  0.89611  Biso   1.000  Co
  C281     1.0000 0.38850  0.60580  0.81340  Biso   1.000  C
  H221     1.0000 0.40900  0.58210  0.79060  Biso   1.000  H
  C282     1.0000 0.34490  0.63260  0.79050  Biso   1.000  C
  H222     1.0000 0.33690  0.62910  0.75270  Biso   1.000  H
  C283     1.0000 0.31230  0.66550  0.82490  Biso   1.000  C
  C284     1.0000 0.32810  0.67090  0.87840  Biso   1.000  C
  H223     1.0000 0.30770  0.69330  0.90250  Biso   1.000  H
  C285     1.0000 0.37390  0.64380  0.89710  Biso   1.000  C
  H224     1.0000 0.38440  0.64860  0.93410  Biso   1.000  H
  C286     1.0000 0.53870  0.54200  0.79350  Biso   1.000  C
  H225     1.0000 0.53770  0.50580  0.80710  Biso   1.000  H
  C287     1.0000 0.56530  0.55150  0.74540  Biso   1.000  C
  H226     1.0000 0.58160  0.52210  0.72620  Biso   1.000  H
  C288     1.0000 0.56840  0.60320  0.72480  Biso   1.000  C
  C289     1.0000 0.54310  0.64430  0.75380  Biso   1.000  C
  H227     1.0000 0.54340  0.68080  0.74060  Biso   1.000  H
  C290     1.0000 0.51750  0.63180  0.80210  Biso   1.000  C
  H228     1.0000 0.50140  0.66090  0.82210  Biso   1.000  H
  C291     1.0000 0.26370  0.69260  0.80230  Biso   1.000  C
  C292     1.0000 0.59920  0.61570  0.67490  Biso   1.000  C
  N77      1.0000 0.51380  0.58170  0.82280  Biso   1.000  N
  N78      1.0000 0.40420  0.61080  0.86520  Biso   1.000  N
  F45      1.0000 0.43630  0.49780  0.86540  Biso   1.000  F
  F46      1.0000 0.53830  0.53160  0.93280  Biso   1.000  F
  H229     1.0000 0.25290  0.64070  0.73840  Biso   1.000  H
  H230     1.0000 0.55410  0.68170  0.65420  Biso   1.000  H
  Co24     1.0000 0.52906  0.06681  0.60389  Biso   1.000  Co
  C293     1.0000 0.61150  0.10580  0.68660  Biso   1.000  C
  H231     1.0000 0.59100  0.08210  0.70940  Biso   1.000  H
  C294     1.0000 0.65510  0.13260  0.70950  Biso   1.000  C
  H232     1.0000 0.66310  0.12910  0.74730  Biso   1.000  H
  C295     1.0000 0.68770  0.16550  0.67510  Biso   1.000  C
  C296     1.0000 0.67190  0.17090  0.62160  Biso   1.000  C
  H233     1.0000 0.69230  0.19330  0.59750  Biso   1.000  H
  C297     1.0000 0.62610  0.14380  0.60290  Biso   1.000  C
  H234     1.0000 0.61560  0.14860  0.56590  Biso   1.000  H
  C298     1.0000 0.46130  0.04200  0.70650  Biso   1.000  C
  H235     1.0000 0.46230  0.00580  0.69290  Biso   1.000  H
  C299     1.0000 0.43470  0.05150  0.75460  Biso   1.000  C
  H236     1.0000 0.41840  0.02210  0.77380  Biso   1.000  H
  C300     1.0000 0.43160  0.10320  0.77520  Biso   1.000  C
  C301     1.0000 0.45690  0.14430  0.74620  Biso   1.000  C
  H237     1.0000 0.45660  0.18080  0.75940  Biso   1.000  H
  C302     1.0000 0.48250  0.13180  0.69790  Biso   1.000  C
  H238     1.0000 0.49860  0.16090  0.67790  Biso   1.000  H
  C303     1.0000 0.73630  0.19260  0.69770  Biso   1.000  C
  C304     1.0000 0.40080  0.11570  0.82510  Biso   1.000  C
  N79      1.0000 0.48620  0.08170  0.67720  Biso   1.000  N
  N80      1.0000 0.59580  0.11080  0.63480  Biso   1.000  N
  F47      1.0000 0.56370  0.99780  0.63460  Biso   1.000  F
  F48      1.0000 0.46170  0.03160  0.56720  Biso   1.000  F
  H239     1.0000 0.74710  0.14070  0.76160  Biso   1.000  H
  H240     1.0000 0.44590  0.18170  0.84580  Biso   1.000  H
  Co25     1.0000 0.00000  0.00000  0.00000  Biso   1.000  Co
  Co26     1.0000 0.50000  0.00000  0.50000  Biso   1.000  Co
  Co27     1.0000 0.00000  0.50000  0.50000  Biso   1.000  Co
  Co28     1.0000 0.50000  0.50000  0.00000  Biso   1.000  Co
