data_image0
_cell_length_a       27.31
_cell_length_b       28.43
_cell_length_c       30.556
_cell_angle_alpha    90
_cell_angle_beta     90
_cell_angle_gamma    90

_symmetry_space_group_name_H-M    "P 1"
_symmetry_int_tables_number       1

loop_
  _symmetry_equiv_pos_as_xyz
  'x, y, z'

loop_
  _atom_site_label
  _atom_site_occupancy
  _atom_site_fract_x
  _atom_site_fract_y
  _atom_site_fract_z
  _atom_site_thermal_displace_type
  _atom_site_B_iso_or_equiv
  _atom_site_type_symbol
  Cu1      1.0000 0.42036  0.96441  0.28246  Biso   1.000  Cu
  N1       1.0000 0.42500  0.94740  0.22060  Biso   1.000  N
  O1       1.0000 0.41020  0.02780  0.26280  Biso   1.000  O
  C1       1.0000 0.41870  0.98660  0.19640  Biso   1.000  C
  C2       1.0000 0.43250  0.90450  0.20200  Biso   1.000  C
  C3       1.0000 0.40820  0.03080  0.22110  Biso   1.000  C
  O2       1.0000 0.41880  0.98720  0.15430  Biso   1.000  O
  C4       1.0000 0.48040  0.88850  0.19770  Biso   1.000  C
  C5       1.0000 0.39380  0.87700  0.18710  Biso   1.000  C
  O3       1.0000 0.40210  0.06610  0.19800  Biso   1.000  O
  Mn1      1.0000 0.39542  0.05340  0.12896  Biso   1.000  Mn
  C6       1.0000 0.48950  0.84500  0.17850  Biso   1.000  C
  C7       1.0000 0.52760  0.91970  0.21130  Biso   1.000  C
  C8       1.0000 0.40300  0.83360  0.16800  Biso   1.000  C
  C9       1.0000 0.33820  0.89110  0.19040  Biso   1.000  C
  O4       1.0000 0.46470  0.07640  0.10550  Biso   1.000  O
  O5       1.0000 0.38600  0.12890  0.11820  Biso   1.000  O
  O6       1.0000 0.36900  0.03010  0.06900  Biso   1.000  O
  O7       1.0000 0.31660  0.04850  0.13930  Biso   1.000  O
  H1       1.0000 0.52160  0.83440  0.17570  Biso   1.000  H
  C10      1.0000 0.45090  0.81760  0.16370  Biso   1.000  C
  H2       1.0000 0.54300  0.90670  0.23720  Biso   1.000  H
  H3       1.0000 0.51790  0.95180  0.21740  Biso   1.000  H
  C11      1.0000 0.56550  0.91810  0.16960  Biso   1.000  C
  H4       1.0000 0.37710  0.81520  0.15800  Biso   1.000  H
  H5       1.0000 0.33390  0.91470  0.21300  Biso   1.000  H
  H6       1.0000 0.31880  0.86380  0.19820  Biso   1.000  H
  C12      1.0000 0.32000  0.91200  0.14420  Biso   1.000  C
  C13      1.0000 0.46620  0.11800  0.09550  Biso   1.000  C
  C14      1.0000 0.42380  0.15020  0.09990  Biso   1.000  C
  C15      1.0000 0.32190  0.03890  0.06510  Biso   1.000  C
  C16      1.0000 0.29660  0.04790  0.10410  Biso   1.000  C
  H7       1.0000 0.45700  0.78850  0.15090  Biso   1.000  H
  H8       1.0000 0.59470  0.93520  0.17680  Biso   1.000  H
  H9       1.0000 0.55020  0.93220  0.14450  Biso   1.000  H
  H10      1.0000 0.57370  0.88600  0.16310  Biso   1.000  H
  H11      1.0000 0.28630  0.92110  0.14660  Biso   1.000  H
  H12      1.0000 0.32300  0.88770  0.12220  Biso   1.000  H
  H13      1.0000 0.33970  0.93820  0.13630  Biso   1.000  H
  N2       1.0000 0.50370  0.14290  0.08020  Biso   1.000  N
  O8       1.0000 0.42390  0.19140  0.08980  Biso   1.000  O
  N3       1.0000 0.29780  0.04130  0.02500  Biso   1.000  N
  O9       1.0000 0.24820  0.05630  0.09660  Biso   1.000  O
  C17      1.0000 0.54820  0.11520  0.06700  Biso   1.000  C
  Cu2      1.0000 0.49114  0.20915  0.07318  Biso   1.000  Cu
  C18      1.0000 0.32320  0.03240  0.98770  Biso   1.000  C
  Cu3      1.0000 0.23425  0.06710  0.03628  Biso   1.000  Cu
  C19      1.0000 0.56010  0.10950  0.02310  Biso   1.000  C
  C20      1.0000 0.57730  0.09480  0.09910  Biso   1.000  C
  N4       1.0000 0.47760  0.27260  0.05360  Biso   1.000  N
  O10      1.0000 0.55950  0.22880  0.06610  Biso   1.000  O
  C21      1.0000 0.30740  0.99380  0.96350  Biso   1.000  C
  C22      1.0000 0.35900  0.06210  0.97080  Biso   1.000  C
  O11      1.0000 0.22510  0.08280  0.97400  Biso   1.000  O
  N5       1.0000 0.16370  0.07340  0.04160  Biso   1.000  N
  C23      1.0000 0.60100  0.08340  0.01130  Biso   1.000  C
  C24      1.0000 0.52440  0.13040  0.98670  Biso   1.000  C
  C25      1.0000 0.61820  0.06870  0.08740  Biso   1.000  C
  C26      1.0000 0.56970  0.10710  0.14910  Biso   1.000  C
  C27      1.0000 0.51620  0.29880  0.05320  Biso   1.000  C
  C28      1.0000 0.43220  0.29310  0.04050  Biso   1.000  C
  C29      1.0000 0.56260  0.27280  0.05920  Biso   1.000  C
  C30      1.0000 0.32740  0.98490  0.92250  Biso   1.000  C
  C31      1.0000 0.26690  0.96380  0.98280  Biso   1.000  C
  C32      1.0000 0.37900  0.05320  0.92980  Biso   1.000  C
  C33      1.0000 0.37680  0.10680  0.99610  Biso   1.000  C
  H14      1.0000 0.60900  0.07960  0.98190  Biso   1.000  H
  C34      1.0000 0.63010  0.06300  0.04340  Biso   1.000  C
  H15      1.0000 0.50920  0.10490  0.97060  Biso   1.000  H
  H16      1.0000 0.49870  0.14870  0.00060  Biso   1.000  H
  C35      1.0000 0.55410  0.16220  0.95490  Biso   1.000  C
  H17      1.0000 0.63770  0.05510  0.10890  Biso   1.000  H
  H18      1.0000 0.59970  0.12100  0.16030  Biso   1.000  H
  H19      1.0000 0.54420  0.13070  0.15150  Biso   1.000  H
  C36      1.0000 0.55640  0.06620  0.17740  Biso   1.000  C
  O12      1.0000 0.51760  0.34280  0.04730  Biso   1.000  O
  C37      1.0000 0.42020  0.29030  0.99640  Biso   1.000  C
  C38      1.0000 0.39950  0.31320  0.07000  Biso   1.000  C
  O13      1.0000 0.60300  0.29510  0.06000  Biso   1.000  O
  H20      1.0000 0.31690  0.95910  0.90640  Biso   1.000  H
  C39      1.0000 0.36320  0.01460  0.90570  Biso   1.000  C
  H21      1.0000 0.27620  0.95530  0.01240  Biso   1.000  H
  H22      1.0000 0.26470  0.93500  0.96600  Biso   1.000  H
  C40      1.0000 0.21450  0.98720  0.98430  Biso   1.000  C
  H23      1.0000 0.40290  0.07300  0.91850  Biso   1.000  H
  H24      1.0000 0.40990  0.10040  0.00600  Biso   1.000  H
  H25      1.0000 0.35660  0.10960  0.02200  Biso   1.000  H
  C41      1.0000 0.37800  0.15660  0.97380  Biso   1.000  C
  H26      1.0000 0.65750  0.04550  0.03560  Biso   1.000  H
  H27      1.0000 0.53250  0.17500  0.93310  Biso   1.000  H
  H28      1.0000 0.57910  0.14390  0.94090  Biso   1.000  H
  H29      1.0000 0.56900  0.18740  0.97100  Biso   1.000  H
  H30      1.0000 0.55280  0.07660  0.20710  Biso   1.000  H
  H31      1.0000 0.58170  0.04290  0.17580  Biso   1.000  H
  H32      1.0000 0.52610  0.05290  0.16740  Biso   1.000  H
  Mn2      1.0000 0.58800  0.37101  0.06438  Biso   1.000  Mn
  C42      1.0000 0.45320  0.26950  0.96570  Biso   1.000  C
  C43      1.0000 0.37550  0.30760  0.98170  Biso   1.000  C
  C44      1.0000 0.41210  0.31210  0.11850  Biso   1.000  C
  C45      1.0000 0.35490  0.33050  0.05530  Biso   1.000  C
  H33      1.0000 0.37660  0.00870  0.87820  Biso   1.000  H
  H34      1.0000 0.19120  0.96490  0.99530  Biso   1.000  H
  H35      1.0000 0.20520  0.99670  0.95540  Biso   1.000  H
  H36      1.0000 0.21530  0.01420  0.00320  Biso   1.000  H
  H37      1.0000 0.39050  0.17940  0.99400  Biso   1.000  H
  H38      1.0000 0.34510  0.16530  0.96540  Biso   1.000  H
  H39      1.0000 0.39830  0.15550  0.94820  Biso   1.000  H
  O14      1.0000 0.59190  0.36050  0.13630  Biso   1.000  O
  O15      1.0000 0.56340  0.43870  0.09100  Biso   1.000  O
  O16      1.0000 0.60150  0.39880  0.00130  Biso   1.000  O
  O17      1.0000 0.66460  0.38840  0.06760  Biso   1.000  O
  C46      1.0000 0.44700  0.27500  0.91560  Biso   1.000  C
  H40      1.0000 0.45350  0.23600  0.97180  Biso   1.000  H
  H41      1.0000 0.48560  0.28120  0.97280  Biso   1.000  H
  C47      1.0000 0.34290  0.32770  0.01120  Biso   1.000  C
  H42      1.0000 0.36750  0.30570  0.95220  Biso   1.000  H
  C48      1.0000 0.43900  0.35860  0.13170  Biso   1.000  C
  H43      1.0000 0.38240  0.30870  0.13550  Biso   1.000  H
  H44      1.0000 0.43310  0.28530  0.12460  Biso   1.000  H
  H45      1.0000 0.33300  0.34400  0.07500  Biso   1.000  H
  C49      1.0000 0.58360  0.39680  0.15600  Biso   1.000  C
  C50      1.0000 0.57060  0.44100  0.13130  Biso   1.000  C
  C51      1.0000 0.64440  0.40970  0.99530  Biso   1.000  C
  C52      1.0000 0.67990  0.40370  0.03150  Biso   1.000  C
  H46      1.0000 0.41820  0.25860  0.90630  Biso   1.000  H
  H47      1.0000 0.47530  0.26130  0.90120  Biso   1.000  H
  H48      1.0000 0.44480  0.30740  0.90820  Biso   1.000  H
  H49      1.0000 0.31300  0.33930  0.00140  Biso   1.000  H
  H50      1.0000 0.41820  0.38500  0.12570  Biso   1.000  H
  H51      1.0000 0.44650  0.35780  0.16240  Biso   1.000  H
  H52      1.0000 0.46880  0.36140  0.11530  Biso   1.000  H
  O18      1.0000 0.58650  0.40060  0.19750  Biso   1.000  O
  N6       1.0000 0.56960  0.47880  0.15620  Biso   1.000  N
  C53      1.0000 0.55840  0.52450  0.13910  Biso   1.000  C
  C54      1.0000 0.63110  0.43430  0.92110  Biso   1.000  C
  C55      1.0000 0.51450  0.54580  0.15060  Biso   1.000  C
  C56      1.0000 0.59030  0.54700  0.11040  Biso   1.000  C
  C57      1.0000 0.61170  0.39760  0.89650  Biso   1.000  C
  C58      1.0000 0.62100  0.48060  0.90970  Biso   1.000  C
  C59      1.0000 0.47460  0.52070  0.17940  Biso   1.000  C
  C60      1.0000 0.50240  0.58950  0.13350  Biso   1.000  C
  C61      1.0000 0.57810  0.59080  0.09330  Biso   1.000  C
  C62      1.0000 0.64090  0.52890  0.10310  Biso   1.000  C
  C63      1.0000 0.61680  0.34880  0.90830  Biso   1.000  C
  C64      1.0000 0.58230  0.40730  0.86050  Biso   1.000  C
  C65      1.0000 0.64480  0.52590  0.92900  Biso   1.000  C
  C66      1.0000 0.59150  0.49030  0.87370  Biso   1.000  C
  C67      1.0000 0.45780  0.47870  0.14710  Biso   1.000  C
  H53      1.0000 0.44750  0.54160  0.18610  Biso   1.000  H
  H54      1.0000 0.48830  0.50860  0.20640  Biso   1.000  H
  C68      1.0000 0.53420  0.61200  0.10490  Biso   1.000  C
  H55      1.0000 0.47300  0.60380  0.14130  Biso   1.000  H
  H56      1.0000 0.59940  0.60580  0.07410  Biso   1.000  H
  H57      1.0000 0.65360  0.54230  0.07610  Biso   1.000  H
  H58      1.0000 0.63960  0.49500  0.09940  Biso   1.000  H
  C69      1.0000 0.67660  0.54070  0.14100  Biso   1.000  C
  H59      1.0000 0.63250  0.33090  0.88520  Biso   1.000  H
  C70      1.0000 0.56100  0.33360  0.91450  Biso   1.000  C
  H60      1.0000 0.63520  0.34510  0.93520  Biso   1.000  H
  C71      1.0000 0.57220  0.45360  0.84910  Biso   1.000  C
  H61      1.0000 0.56940  0.38270  0.84400  Biso   1.000  H
  C72      1.0000 0.61440  0.54830  0.96730  Biso   1.000  C
  H62      1.0000 0.64840  0.54890  0.90580  Biso   1.000  H
  H63      1.0000 0.67730  0.51820  0.93970  Biso   1.000  H
  H64      1.0000 0.58480  0.52130  0.86600  Biso   1.000  H
  H65      1.0000 0.44430  0.49180  0.12080  Biso   1.000  H
  H66      1.0000 0.43340  0.45980  0.16140  Biso   1.000  H
  H67      1.0000 0.48560  0.45950  0.14000  Biso   1.000  H
  H68      1.0000 0.52610  0.64130  0.09350  Biso   1.000  H
  H69      1.0000 0.67920  0.57420  0.14400  Biso   1.000  H
  H70      1.0000 0.66430  0.52740  0.16770  Biso   1.000  H
  H71      1.0000 0.70820  0.52760  0.13470  Biso   1.000  H
  H72      1.0000 0.55940  0.30050  0.92070  Biso   1.000  H
  H73      1.0000 0.54700  0.35080  0.93840  Biso   1.000  H
  H74      1.0000 0.54310  0.34020  0.88820  Biso   1.000  H
  H75      1.0000 0.55250  0.46000  0.82500  Biso   1.000  H
  H76      1.0000 0.58280  0.55770  0.95660  Biso   1.000  H
  H77      1.0000 0.61040  0.52570  0.99030  Biso   1.000  H
  H78      1.0000 0.63140  0.57530  0.97840  Biso   1.000  H
  Cu4      1.0000 0.07964  0.03559  0.78246  Biso   1.000  Cu
  N7       1.0000 0.07500  0.05260  0.72060  Biso   1.000  N
  O19      1.0000 0.08980  0.97220  0.76280  Biso   1.000  O
  C73      1.0000 0.08130  0.01340  0.69640  Biso   1.000  C
  C74      1.0000 0.06750  0.09550  0.70200  Biso   1.000  C
  C75      1.0000 0.09180  0.96920  0.72110  Biso   1.000  C
  O20      1.0000 0.08120  0.01280  0.65430  Biso   1.000  O
  C76      1.0000 0.01960  0.11150  0.69770  Biso   1.000  C
  C77      1.0000 0.10620  0.12300  0.68710  Biso   1.000  C
  O21      1.0000 0.09790  0.93390  0.69800  Biso   1.000  O
  Mn3      1.0000 0.10458  0.94660  0.62896  Biso   1.000  Mn
  C78      1.0000 0.01050  0.15500  0.67850  Biso   1.000  C
  C79      1.0000 0.97240  0.08030  0.71130  Biso   1.000  C
  C80      1.0000 0.09700  0.16640  0.66800  Biso   1.000  C
  C81      1.0000 0.16180  0.10890  0.69040  Biso   1.000  C
  O22      1.0000 0.03530  0.92360  0.60550  Biso   1.000  O
  O23      1.0000 0.11400  0.87110  0.61820  Biso   1.000  O
  O24      1.0000 0.13100  0.96990  0.56900  Biso   1.000  O
  O25      1.0000 0.18340  0.95150  0.63930  Biso   1.000  O
  H79      1.0000 0.97840  0.16560  0.67570  Biso   1.000  H
  C82      1.0000 0.04910  0.18240  0.66370  Biso   1.000  C
  H80      1.0000 0.95700  0.09330  0.73720  Biso   1.000  H
  H81      1.0000 0.98210  0.04820  0.71740  Biso   1.000  H
  C83      1.0000 0.93450  0.08190  0.66960  Biso   1.000  C
  H82      1.0000 0.12290  0.18480  0.65800  Biso   1.000  H
  H83      1.0000 0.16610  0.08530  0.71300  Biso   1.000  H
  H84      1.0000 0.18120  0.13620  0.69820  Biso   1.000  H
  C84      1.0000 0.18000  0.08800  0.64420  Biso   1.000  C
  C85      1.0000 0.03380  0.88200  0.59550  Biso   1.000  C
  C86      1.0000 0.07620  0.84980  0.59990  Biso   1.000  C
  C87      1.0000 0.17810  0.96110  0.56510  Biso   1.000  C
  C88      1.0000 0.20340  0.95210  0.60410  Biso   1.000  C
  H85      1.0000 0.04300  0.21150  0.65090  Biso   1.000  H
  H86      1.0000 0.90530  0.06480  0.67680  Biso   1.000  H
  H87      1.0000 0.94980  0.06780  0.64450  Biso   1.000  H
  H88      1.0000 0.92630  0.11400  0.66310  Biso   1.000  H
  H89      1.0000 0.21370  0.07890  0.64660  Biso   1.000  H
  H90      1.0000 0.17700  0.11230  0.62220  Biso   1.000  H
  H91      1.0000 0.16030  0.06180  0.63630  Biso   1.000  H
  N8       1.0000 0.99630  0.85710  0.58020  Biso   1.000  N
  O26      1.0000 0.07610  0.80860  0.58980  Biso   1.000  O
  N9       1.0000 0.20220  0.95870  0.52500  Biso   1.000  N
  O27      1.0000 0.25180  0.94370  0.59660  Biso   1.000  O
  C89      1.0000 0.95180  0.88480  0.56700  Biso   1.000  C
  Cu5      1.0000 0.00886  0.79085  0.57318  Biso   1.000  Cu
  C90      1.0000 0.17680  0.96760  0.48770  Biso   1.000  C
  Cu6      1.0000 0.26575  0.93290  0.53628  Biso   1.000  Cu
  C91      1.0000 0.93990  0.89050  0.52310  Biso   1.000  C
  C92      1.0000 0.92270  0.90520  0.59910  Biso   1.000  C
  N10      1.0000 0.02240  0.72740  0.55360  Biso   1.000  N
  O28      1.0000 0.94050  0.77120  0.56610  Biso   1.000  O
  C93      1.0000 0.19260  0.00620  0.46350  Biso   1.000  C
  C94      1.0000 0.14100  0.93790  0.47080  Biso   1.000  C
  O29      1.0000 0.27490  0.91720  0.47400  Biso   1.000  O
  N11      1.0000 0.33630  0.92660  0.54160  Biso   1.000  N
  C95      1.0000 0.89900  0.91660  0.51130  Biso   1.000  C
  C96      1.0000 0.97560  0.86960  0.48670  Biso   1.000  C
  C97      1.0000 0.88180  0.93130  0.58740  Biso   1.000  C
  C98      1.0000 0.93030  0.89290  0.64910  Biso   1.000  C
  C99      1.0000 0.98380  0.70120  0.55320  Biso   1.000  C
  C100     1.0000 0.06780  0.70690  0.54050  Biso   1.000  C
  C101     1.0000 0.93740  0.72720  0.55920  Biso   1.000  C
  C102     1.0000 0.17260  0.01510  0.42250  Biso   1.000  C
  C103     1.0000 0.23310  0.03620  0.48280  Biso   1.000  C
  C104     1.0000 0.12100  0.94680  0.42980  Biso   1.000  C
  C105     1.0000 0.12320  0.89320  0.49610  Biso   1.000  C
  H92      1.0000 0.89100  0.92040  0.48190  Biso   1.000  H
  C106     1.0000 0.86990  0.93700  0.54340  Biso   1.000  C
  H93      1.0000 0.99080  0.89510  0.47060  Biso   1.000  H
  H94      1.0000 0.00130  0.85130  0.50060  Biso   1.000  H
  C107     1.0000 0.94590  0.83780  0.45490  Biso   1.000  C
  H95      1.0000 0.86230  0.94490  0.60890  Biso   1.000  H
  H96      1.0000 0.90030  0.87900  0.66030  Biso   1.000  H
  H97      1.0000 0.95580  0.86930  0.65150  Biso   1.000  H
  C108     1.0000 0.94360  0.93380  0.67740  Biso   1.000  C
  O30      1.0000 0.98240  0.65720  0.54730  Biso   1.000  O
  C109     1.0000 0.07980  0.70970  0.49640  Biso   1.000  C
  C110     1.0000 0.10050  0.68680  0.57000  Biso   1.000  C
  O31      1.0000 0.89700  0.70490  0.56000  Biso   1.000  O
  H98      1.0000 0.18310  0.04090  0.40640  Biso   1.000  H
  C111     1.0000 0.13680  0.98540  0.40570  Biso   1.000  C
  H99      1.0000 0.22380  0.04470  0.51240  Biso   1.000  H
  H100     1.0000 0.23530  0.06500  0.46600  Biso   1.000  H
  C112     1.0000 0.28550  0.01280  0.48430  Biso   1.000  C
  H101     1.0000 0.09710  0.92700  0.41850  Biso   1.000  H
  H102     1.0000 0.09010  0.89960  0.50600  Biso   1.000  H
  H103     1.0000 0.14340  0.89040  0.52200  Biso   1.000  H
  C113     1.0000 0.12200  0.84340  0.47380  Biso   1.000  C
  H104     1.0000 0.84250  0.95450  0.53560  Biso   1.000  H
  H105     1.0000 0.96750  0.82500  0.43310  Biso   1.000  H
  H106     1.0000 0.92090  0.85610  0.44090  Biso   1.000  H
  H107     1.0000 0.93100  0.81260  0.47100  Biso   1.000  H
  H108     1.0000 0.94720  0.92340  0.70710  Biso   1.000  H
  H109     1.0000 0.91830  0.95710  0.67580  Biso   1.000  H
  H110     1.0000 0.97390  0.94710  0.66740  Biso   1.000  H
  Mn4      1.0000 0.91200  0.62899  0.56438  Biso   1.000  Mn
  C114     1.0000 0.04680  0.73050  0.46570  Biso   1.000  C
  C115     1.0000 0.12450  0.69240  0.48170  Biso   1.000  C
  C116     1.0000 0.08790  0.68790  0.61850  Biso   1.000  C
  C117     1.0000 0.14510  0.66950  0.55530  Biso   1.000  C
  H111     1.0000 0.12340  0.99130  0.37820  Biso   1.000  H
  H112     1.0000 0.30880  0.03510  0.49530  Biso   1.000  H
  H113     1.0000 0.29480  0.00330  0.45540  Biso   1.000  H
  H114     1.0000 0.28470  0.98580  0.50320  Biso   1.000  H
  H115     1.0000 0.10950  0.82060  0.49400  Biso   1.000  H
  H116     1.0000 0.15490  0.83470  0.46540  Biso   1.000  H
  H117     1.0000 0.10170  0.84450  0.44820  Biso   1.000  H
  O32      1.0000 0.90810  0.63950  0.63630  Biso   1.000  O
  O33      1.0000 0.93660  0.56130  0.59100  Biso   1.000  O
  O34      1.0000 0.89850  0.60120  0.50130  Biso   1.000  O
  O35      1.0000 0.83540  0.61160  0.56760  Biso   1.000  O
  C118     1.0000 0.05300  0.72500  0.41560  Biso   1.000  C
  H118     1.0000 0.04650  0.76400  0.47180  Biso   1.000  H
  H119     1.0000 0.01440  0.71880  0.47280  Biso   1.000  H
  C119     1.0000 0.15710  0.67230  0.51120  Biso   1.000  C
  H120     1.0000 0.13250  0.69430  0.45220  Biso   1.000  H
  C120     1.0000 0.06100  0.64140  0.63170  Biso   1.000  C
  H121     1.0000 0.11760  0.69130  0.63550  Biso   1.000  H
  H122     1.0000 0.06690  0.71470  0.62460  Biso   1.000  H
  H123     1.0000 0.16700  0.65600  0.57500  Biso   1.000  H
  C121     1.0000 0.91640  0.60320  0.65600  Biso   1.000  C
  C122     1.0000 0.92940  0.55900  0.63130  Biso   1.000  C
  C123     1.0000 0.85560  0.59030  0.49530  Biso   1.000  C
  C124     1.0000 0.82010  0.59630  0.53150  Biso   1.000  C
  H124     1.0000 0.08180  0.74140  0.40630  Biso   1.000  H
  H125     1.0000 0.02470  0.73870  0.40120  Biso   1.000  H
  H126     1.0000 0.05520  0.69260  0.40820  Biso   1.000  H
  H127     1.0000 0.18700  0.66070  0.50140  Biso   1.000  H
  H128     1.0000 0.08180  0.61500  0.62570  Biso   1.000  H
  H129     1.0000 0.05350  0.64220  0.66240  Biso   1.000  H
  H130     1.0000 0.03120  0.63860  0.61530  Biso   1.000  H
  O36      1.0000 0.91350  0.59940  0.69750  Biso   1.000  O
  N12      1.0000 0.93040  0.52120  0.65620  Biso   1.000  N
  C125     1.0000 0.94160  0.47550  0.63910  Biso   1.000  C
  C126     1.0000 0.86890  0.56570  0.42110  Biso   1.000  C
  C127     1.0000 0.98550  0.45420  0.65060  Biso   1.000  C
  C128     1.0000 0.90970  0.45300  0.61040  Biso   1.000  C
  C129     1.0000 0.88830  0.60240  0.39650  Biso   1.000  C
  C130     1.0000 0.87900  0.51940  0.40970  Biso   1.000  C
  C131     1.0000 0.02540  0.47930  0.67940  Biso   1.000  C
  C132     1.0000 0.99760  0.41050  0.63350  Biso   1.000  C
  C133     1.0000 0.92190  0.40920  0.59330  Biso   1.000  C
  C134     1.0000 0.85910  0.47110  0.60310  Biso   1.000  C
  C135     1.0000 0.88320  0.65120  0.40830  Biso   1.000  C
  C136     1.0000 0.91770  0.59270  0.36050  Biso   1.000  C
  C137     1.0000 0.85520  0.47410  0.42900  Biso   1.000  C
  C138     1.0000 0.90850  0.50970  0.37370  Biso   1.000  C
  C139     1.0000 0.04220  0.52130  0.64710  Biso   1.000  C
  H131     1.0000 0.05250  0.45840  0.68610  Biso   1.000  H
  H132     1.0000 0.01170  0.49140  0.70640  Biso   1.000  H
  C140     1.0000 0.96580  0.38800  0.60490  Biso   1.000  C
  H133     1.0000 0.02700  0.39620  0.64130  Biso   1.000  H
  H134     1.0000 0.90060  0.39420  0.57410  Biso   1.000  H
  H135     1.0000 0.84640  0.45770  0.57610  Biso   1.000  H
  H136     1.0000 0.86040  0.50500  0.59940  Biso   1.000  H
  C141     1.0000 0.82340  0.45930  0.64100  Biso   1.000  C
  H137     1.0000 0.86750  0.66910  0.38520  Biso   1.000  H
  C142     1.0000 0.93900  0.66640  0.41450  Biso   1.000  C
  H138     1.0000 0.86480  0.65490  0.43520  Biso   1.000  H
  C143     1.0000 0.92780  0.54640  0.34910  Biso   1.000  C
  H139     1.0000 0.93060  0.61730  0.34400  Biso   1.000  H
  C144     1.0000 0.88560  0.45170  0.46730  Biso   1.000  C
  H140     1.0000 0.85160  0.45110  0.40580  Biso   1.000  H
  H141     1.0000 0.82270  0.48180  0.43970  Biso   1.000  H
  H142     1.0000 0.91520  0.47870  0.36600  Biso   1.000  H
  H143     1.0000 0.05570  0.50820  0.62080  Biso   1.000  H
  H144     1.0000 0.06660  0.54020  0.66140  Biso   1.000  H
  H145     1.0000 0.01440  0.54050  0.64000  Biso   1.000  H
  H146     1.0000 0.97390  0.35870  0.59350  Biso   1.000  H
  H147     1.0000 0.82080  0.42580  0.64400  Biso   1.000  H
  H148     1.0000 0.83570  0.47260  0.66770  Biso   1.000  H
  H149     1.0000 0.79180  0.47240  0.63470  Biso   1.000  H
  H150     1.0000 0.94060  0.69950  0.42070  Biso   1.000  H
  H151     1.0000 0.95300  0.64920  0.43840  Biso   1.000  H
  H152     1.0000 0.95690  0.65980  0.38820  Biso   1.000  H
  H153     1.0000 0.94750  0.54000  0.32500  Biso   1.000  H
  H154     1.0000 0.91720  0.44230  0.45660  Biso   1.000  H
  H155     1.0000 0.88960  0.47430  0.49030  Biso   1.000  H
  H156     1.0000 0.86860  0.42470  0.47840  Biso   1.000  H
  Cu7      1.0000 0.57964  0.46441  0.21754  Biso   1.000  Cu
  N13      1.0000 0.57500  0.44740  0.27940  Biso   1.000  N
  O37      1.0000 0.58980  0.52780  0.23720  Biso   1.000  O
  C145     1.0000 0.58130  0.48660  0.30360  Biso   1.000  C
  C146     1.0000 0.56750  0.40450  0.29800  Biso   1.000  C
  C147     1.0000 0.59180  0.53080  0.27890  Biso   1.000  C
  O38      1.0000 0.58120  0.48720  0.34570  Biso   1.000  O
  C148     1.0000 0.51960  0.38850  0.30230  Biso   1.000  C
  C149     1.0000 0.60620  0.37700  0.31290  Biso   1.000  C
  O39      1.0000 0.59790  0.56610  0.30200  Biso   1.000  O
  Mn5      1.0000 0.60458  0.55340  0.37104  Biso   1.000  Mn
  C150     1.0000 0.51050  0.34500  0.32150  Biso   1.000  C
  C151     1.0000 0.47240  0.41970  0.28870  Biso   1.000  C
  C152     1.0000 0.59700  0.33360  0.33200  Biso   1.000  C
  C153     1.0000 0.66180  0.39110  0.30960  Biso   1.000  C
  O40      1.0000 0.53530  0.57640  0.39450  Biso   1.000  O
  O41      1.0000 0.61400  0.62890  0.38180  Biso   1.000  O
  O42      1.0000 0.63100  0.53010  0.43100  Biso   1.000  O
  O43      1.0000 0.68340  0.54850  0.36070  Biso   1.000  O
  H157     1.0000 0.47840  0.33440  0.32430  Biso   1.000  H
  C154     1.0000 0.54910  0.31760  0.33630  Biso   1.000  C
  H158     1.0000 0.45700  0.40670  0.26280  Biso   1.000  H
  H159     1.0000 0.48210  0.45180  0.28260  Biso   1.000  H
  C155     1.0000 0.43450  0.41810  0.33040  Biso   1.000  C
  H160     1.0000 0.62290  0.31520  0.34200  Biso   1.000  H
  H161     1.0000 0.66610  0.41470  0.28700  Biso   1.000  H
  H162     1.0000 0.68120  0.36380  0.30180  Biso   1.000  H
  C156     1.0000 0.68000  0.41200  0.35580  Biso   1.000  C
  C157     1.0000 0.53380  0.61800  0.40450  Biso   1.000  C
  C158     1.0000 0.57620  0.65020  0.40010  Biso   1.000  C
  C159     1.0000 0.67810  0.53890  0.43490  Biso   1.000  C
  C160     1.0000 0.70340  0.54790  0.39590  Biso   1.000  C
  H163     1.0000 0.54300  0.28850  0.34910  Biso   1.000  H
  H164     1.0000 0.40530  0.43520  0.32320  Biso   1.000  H
  H165     1.0000 0.44980  0.43220  0.35550  Biso   1.000  H
  H166     1.0000 0.42630  0.38600  0.33690  Biso   1.000  H
  H167     1.0000 0.71370  0.42110  0.35340  Biso   1.000  H
  H168     1.0000 0.67700  0.38770  0.37780  Biso   1.000  H
  H169     1.0000 0.66030  0.43820  0.36370  Biso   1.000  H
  N14      1.0000 0.49630  0.64290  0.41980  Biso   1.000  N
  O44      1.0000 0.57610  0.69140  0.41020  Biso   1.000  O
  N15      1.0000 0.70220  0.54130  0.47500  Biso   1.000  N
  O45      1.0000 0.75180  0.55630  0.40340  Biso   1.000  O
  C161     1.0000 0.45180  0.61520  0.43300  Biso   1.000  C
  Cu8      1.0000 0.50886  0.70915  0.42682  Biso   1.000  Cu
  C162     1.0000 0.67680  0.53240  0.51230  Biso   1.000  C
  Cu9      1.0000 0.76575  0.56710  0.46372  Biso   1.000  Cu
  C163     1.0000 0.43990  0.60950  0.47690  Biso   1.000  C
  C164     1.0000 0.42270  0.59480  0.40090  Biso   1.000  C
  N16      1.0000 0.52240  0.77260  0.44640  Biso   1.000  N
  O46      1.0000 0.44050  0.72880  0.43390  Biso   1.000  O
  C165     1.0000 0.69260  0.49380  0.53650  Biso   1.000  C
  C166     1.0000 0.64100  0.56210  0.52920  Biso   1.000  C
  O47      1.0000 0.77490  0.58280  0.52600  Biso   1.000  O
  N17      1.0000 0.83630  0.57340  0.45840  Biso   1.000  N
  C167     1.0000 0.39900  0.58340  0.48870  Biso   1.000  C
  C168     1.0000 0.47560  0.63040  0.51330  Biso   1.000  C
  C169     1.0000 0.38180  0.56870  0.41260  Biso   1.000  C
  C170     1.0000 0.43030  0.60710  0.35090  Biso   1.000  C
  C171     1.0000 0.48380  0.79880  0.44680  Biso   1.000  C
  C172     1.0000 0.56780  0.79310  0.45950  Biso   1.000  C
  C173     1.0000 0.43740  0.77280  0.44080  Biso   1.000  C
  C174     1.0000 0.67260  0.48490  0.57750  Biso   1.000  C
  C175     1.0000 0.73310  0.46380  0.51720  Biso   1.000  C
  C176     1.0000 0.62100  0.55320  0.57020  Biso   1.000  C
  C177     1.0000 0.62320  0.60680  0.50390  Biso   1.000  C
  H170     1.0000 0.39100  0.57960  0.51810  Biso   1.000  H
  C178     1.0000 0.36990  0.56300  0.45660  Biso   1.000  C
  H171     1.0000 0.49080  0.60490  0.52940  Biso   1.000  H
  H172     1.0000 0.50130  0.64870  0.49940  Biso   1.000  H
  C179     1.0000 0.44590  0.66220  0.54510  Biso   1.000  C
  H173     1.0000 0.36230  0.55510  0.39110  Biso   1.000  H
  H174     1.0000 0.40030  0.62100  0.33970  Biso   1.000  H
  H175     1.0000 0.45580  0.63070  0.34850  Biso   1.000  H
  C180     1.0000 0.44360  0.56620  0.32260  Biso   1.000  C
  O48      1.0000 0.48240  0.84280  0.45270  Biso   1.000  O
  C181     1.0000 0.57980  0.79030  0.50360  Biso   1.000  C
  C182     1.0000 0.60050  0.81320  0.43000  Biso   1.000  C
  O49      1.0000 0.39700  0.79510  0.44000  Biso   1.000  O
  H176     1.0000 0.68310  0.45910  0.59360  Biso   1.000  H
  C183     1.0000 0.63680  0.51460  0.59430  Biso   1.000  C
  H177     1.0000 0.72380  0.45530  0.48760  Biso   1.000  H
  H178     1.0000 0.73530  0.43500  0.53400  Biso   1.000  H
  C184     1.0000 0.78550  0.48720  0.51570  Biso   1.000  C
  H179     1.0000 0.59710  0.57300  0.58150  Biso   1.000  H
  H180     1.0000 0.59010  0.60040  0.49400  Biso   1.000  H
  H181     1.0000 0.64340  0.60960  0.47800  Biso   1.000  H
  C185     1.0000 0.62200  0.65660  0.52620  Biso   1.000  C
  H182     1.0000 0.34250  0.54550  0.46440  Biso   1.000  H
  H183     1.0000 0.46750  0.67500  0.56690  Biso   1.000  H
  H184     1.0000 0.42090  0.64390  0.55910  Biso   1.000  H
  H185     1.0000 0.43100  0.68740  0.52900  Biso   1.000  H
  H186     1.0000 0.44720  0.57660  0.29290  Biso   1.000  H
  H187     1.0000 0.41830  0.54290  0.32420  Biso   1.000  H
  H188     1.0000 0.47390  0.55290  0.33260  Biso   1.000  H
  Mn6      1.0000 0.41200  0.87101  0.43562  Biso   1.000  Mn
  C186     1.0000 0.54680  0.76950  0.53430  Biso   1.000  C
  C187     1.0000 0.62450  0.80760  0.51830  Biso   1.000  C
  C188     1.0000 0.58790  0.81210  0.38150  Biso   1.000  C
  C189     1.0000 0.64510  0.83050  0.44470  Biso   1.000  C
  H189     1.0000 0.62340  0.50870  0.62180  Biso   1.000  H
  H190     1.0000 0.80880  0.46490  0.50470  Biso   1.000  H
  H191     1.0000 0.79480  0.49670  0.54460  Biso   1.000  H
  H192     1.0000 0.78470  0.51420  0.49680  Biso   1.000  H
  H193     1.0000 0.60950  0.67940  0.50600  Biso   1.000  H
  H194     1.0000 0.65490  0.66530  0.53460  Biso   1.000  H
  H195     1.0000 0.60170  0.65550  0.55180  Biso   1.000  H
  O50      1.0000 0.40810  0.86050  0.36370  Biso   1.000  O
  O51      1.0000 0.43660  0.93870  0.40900  Biso   1.000  O
  O52      1.0000 0.39850  0.89880  0.49870  Biso   1.000  O
  O53      1.0000 0.33540  0.88840  0.43240  Biso   1.000  O
  C190     1.0000 0.55300  0.77500  0.58440  Biso   1.000  C
  H196     1.0000 0.54650  0.73600  0.52820  Biso   1.000  H
  H197     1.0000 0.51440  0.78120  0.52720  Biso   1.000  H
  C191     1.0000 0.65710  0.82770  0.48880  Biso   1.000  C
  H198     1.0000 0.63250  0.80570  0.54780  Biso   1.000  H
  C192     1.0000 0.56100  0.85860  0.36830  Biso   1.000  C
  H199     1.0000 0.61760  0.80870  0.36450  Biso   1.000  H
  H200     1.0000 0.56690  0.78530  0.37540  Biso   1.000  H
  H201     1.0000 0.66700  0.84400  0.42500  Biso   1.000  H
  C193     1.0000 0.41640  0.89680  0.34400  Biso   1.000  C
  C194     1.0000 0.42940  0.94100  0.36870  Biso   1.000  C
  C195     1.0000 0.35560  0.90970  0.50470  Biso   1.000  C
  C196     1.0000 0.32010  0.90370  0.46850  Biso   1.000  C
  H202     1.0000 0.58180  0.75860  0.59370  Biso   1.000  H
  H203     1.0000 0.52470  0.76130  0.59880  Biso   1.000  H
  H204     1.0000 0.55520  0.80740  0.59180  Biso   1.000  H
  H205     1.0000 0.68700  0.83930  0.49860  Biso   1.000  H
  H206     1.0000 0.58180  0.88500  0.37430  Biso   1.000  H
  H207     1.0000 0.55350  0.85780  0.33760  Biso   1.000  H
  H208     1.0000 0.53120  0.86140  0.38470  Biso   1.000  H
  O54      1.0000 0.41350  0.90060  0.30250  Biso   1.000  O
  N18      1.0000 0.43040  0.97880  0.34380  Biso   1.000  N
  C197     1.0000 0.44160  0.02450  0.36090  Biso   1.000  C
  C198     1.0000 0.36890  0.93430  0.57890  Biso   1.000  C
  C199     1.0000 0.48550  0.04580  0.34940  Biso   1.000  C
  C200     1.0000 0.40970  0.04700  0.38960  Biso   1.000  C
  C201     1.0000 0.38830  0.89760  0.60350  Biso   1.000  C
  C202     1.0000 0.37900  0.98060  0.59030  Biso   1.000  C
  C203     1.0000 0.52540  0.02070  0.32060  Biso   1.000  C
  C204     1.0000 0.49760  0.08950  0.36650  Biso   1.000  C
  C205     1.0000 0.42190  0.09080  0.40670  Biso   1.000  C
  C206     1.0000 0.35910  0.02890  0.39690  Biso   1.000  C
  C207     1.0000 0.38320  0.84880  0.59170  Biso   1.000  C
  C208     1.0000 0.41770  0.90730  0.63950  Biso   1.000  C
  C209     1.0000 0.35520  0.02590  0.57100  Biso   1.000  C
  C210     1.0000 0.40850  0.99030  0.62630  Biso   1.000  C
  C211     1.0000 0.54220  0.97870  0.35290  Biso   1.000  C
  H209     1.0000 0.55250  0.04160  0.31390  Biso   1.000  H
  H210     1.0000 0.51170  0.00860  0.29360  Biso   1.000  H
  C212     1.0000 0.46580  0.11200  0.39510  Biso   1.000  C
  H211     1.0000 0.52700  0.10380  0.35870  Biso   1.000  H
  H212     1.0000 0.40060  0.10580  0.42590  Biso   1.000  H
  H213     1.0000 0.34640  0.04230  0.42390  Biso   1.000  H
  H214     1.0000 0.36040  0.99500  0.40060  Biso   1.000  H
  C213     1.0000 0.32340  0.04070  0.35900  Biso   1.000  C
  H215     1.0000 0.36750  0.83090  0.61480  Biso   1.000  H
  C214     1.0000 0.43900  0.83360  0.58550  Biso   1.000  C
  H216     1.0000 0.36480  0.84510  0.56480  Biso   1.000  H
  C215     1.0000 0.42780  0.95360  0.65090  Biso   1.000  C
  H217     1.0000 0.43060  0.88270  0.65600  Biso   1.000  H
  C216     1.0000 0.38560  0.04830  0.53270  Biso   1.000  C
  H218     1.0000 0.35160  0.04890  0.59420  Biso   1.000  H
  H219     1.0000 0.32270  0.01820  0.56030  Biso   1.000  H
  H220     1.0000 0.41520  0.02130  0.63400  Biso   1.000  H
  H221     1.0000 0.55570  0.99180  0.37920  Biso   1.000  H
  H222     1.0000 0.56660  0.95980  0.33860  Biso   1.000  H
  H223     1.0000 0.51440  0.95950  0.36000  Biso   1.000  H
  H224     1.0000 0.47390  0.14130  0.40650  Biso   1.000  H
  H225     1.0000 0.32080  0.07420  0.35600  Biso   1.000  H
  H226     1.0000 0.33570  0.02740  0.33230  Biso   1.000  H
  H227     1.0000 0.29180  0.02760  0.36530  Biso   1.000  H
  H228     1.0000 0.44060  0.80050  0.57930  Biso   1.000  H
  H229     1.0000 0.45300  0.85080  0.56160  Biso   1.000  H
  H230     1.0000 0.45690  0.84020  0.61180  Biso   1.000  H
  H231     1.0000 0.44750  0.96000  0.67500  Biso   1.000  H
  H232     1.0000 0.41720  0.05770  0.54340  Biso   1.000  H
  H233     1.0000 0.38960  0.02570  0.50970  Biso   1.000  H
  H234     1.0000 0.36860  0.07530  0.52160  Biso   1.000  H
  Cu10     1.0000 0.92036  0.53559  0.71754  Biso   1.000  Cu
  N19      1.0000 0.92500  0.55260  0.77940  Biso   1.000  N
  O55      1.0000 0.91020  0.47220  0.73720  Biso   1.000  O
  C217     1.0000 0.91870  0.51340  0.80360  Biso   1.000  C
  C218     1.0000 0.93250  0.59550  0.79800  Biso   1.000  C
  C219     1.0000 0.90820  0.46920  0.77890  Biso   1.000  C
  O56      1.0000 0.91880  0.51280  0.84570  Biso   1.000  O
  C220     1.0000 0.98040  0.61150  0.80230  Biso   1.000  C
  C221     1.0000 0.89380  0.62300  0.81290  Biso   1.000  C
  O57      1.0000 0.90210  0.43390  0.80200  Biso   1.000  O
  Mn7      1.0000 0.89542  0.44660  0.87104  Biso   1.000  Mn
  C222     1.0000 0.98950  0.65500  0.82150  Biso   1.000  C
  C223     1.0000 0.02760  0.58030  0.78870  Biso   1.000  C
  C224     1.0000 0.90300  0.66640  0.83200  Biso   1.000  C
  C225     1.0000 0.83820  0.60890  0.80960  Biso   1.000  C
  O58      1.0000 0.96470  0.42360  0.89450  Biso   1.000  O
  O59      1.0000 0.88600  0.37110  0.88180  Biso   1.000  O
  O60      1.0000 0.86900  0.46990  0.93100  Biso   1.000  O
  O61      1.0000 0.81660  0.45150  0.86070  Biso   1.000  O
  H235     1.0000 0.02160  0.66560  0.82430  Biso   1.000  H
  C226     1.0000 0.95090  0.68240  0.83630  Biso   1.000  C
  H236     1.0000 0.04300  0.59330  0.76280  Biso   1.000  H
  H237     1.0000 0.01790  0.54820  0.78260  Biso   1.000  H
  C227     1.0000 0.06550  0.58190  0.83040  Biso   1.000  C
  H238     1.0000 0.87710  0.68480  0.84200  Biso   1.000  H
  H239     1.0000 0.83390  0.58530  0.78700  Biso   1.000  H
  H240     1.0000 0.81880  0.63620  0.80180  Biso   1.000  H
  C228     1.0000 0.82000  0.58800  0.85580  Biso   1.000  C
  C229     1.0000 0.96620  0.38200  0.90450  Biso   1.000  C
  C230     1.0000 0.92380  0.34980  0.90010  Biso   1.000  C
  C231     1.0000 0.82190  0.46110  0.93490  Biso   1.000  C
  C232     1.0000 0.79660  0.45210  0.89590  Biso   1.000  C
  H241     1.0000 0.95700  0.71150  0.84910  Biso   1.000  H
  H242     1.0000 0.09470  0.56480  0.82320  Biso   1.000  H
  H243     1.0000 0.05020  0.56780  0.85550  Biso   1.000  H
  H244     1.0000 0.07370  0.61400  0.83690  Biso   1.000  H
  H245     1.0000 0.78630  0.57890  0.85340  Biso   1.000  H
  H246     1.0000 0.82300  0.61230  0.87780  Biso   1.000  H
  H247     1.0000 0.83970  0.56180  0.86370  Biso   1.000  H
  N20      1.0000 0.00370  0.35710  0.91980  Biso   1.000  N
  O62      1.0000 0.92390  0.30860  0.91020  Biso   1.000  O
  N21      1.0000 0.79780  0.45870  0.97500  Biso   1.000  N
  O63      1.0000 0.74820  0.44370  0.90340  Biso   1.000  O
  C233     1.0000 0.04820  0.38480  0.93300  Biso   1.000  C
  Cu11     1.0000 0.99114  0.29085  0.92682  Biso   1.000  Cu
  C234     1.0000 0.82320  0.46760  0.01230  Biso   1.000  C
  Cu12     1.0000 0.73425  0.43290  0.96372  Biso   1.000  Cu
  C235     1.0000 0.06010  0.39050  0.97690  Biso   1.000  C
  C236     1.0000 0.07730  0.40520  0.90090  Biso   1.000  C
  N22      1.0000 0.97760  0.22740  0.94640  Biso   1.000  N
  O64      1.0000 0.05950  0.27120  0.93390  Biso   1.000  O
  C237     1.0000 0.80740  0.50620  0.03650  Biso   1.000  C
  C238     1.0000 0.85900  0.43790  0.02920  Biso   1.000  C
  O65      1.0000 0.72510  0.41720  0.02600  Biso   1.000  O
  N23      1.0000 0.66370  0.42660  0.95840  Biso   1.000  N
  C239     1.0000 0.10100  0.41660  0.98870  Biso   1.000  C
  C240     1.0000 0.02440  0.36960  0.01330  Biso   1.000  C
  C241     1.0000 0.11820  0.43130  0.91260  Biso   1.000  C
  C242     1.0000 0.06970  0.39290  0.85090  Biso   1.000  C
  C243     1.0000 0.01620  0.20120  0.94680  Biso   1.000  C
  C244     1.0000 0.93220  0.20690  0.95950  Biso   1.000  C
  C245     1.0000 0.06260  0.22720  0.94080  Biso   1.000  C
  C246     1.0000 0.82740  0.51510  0.07750  Biso   1.000  C
  C247     1.0000 0.76690  0.53620  0.01720  Biso   1.000  C
  C248     1.0000 0.87900  0.44680  0.07020  Biso   1.000  C
  C249     1.0000 0.87680  0.39320  0.00390  Biso   1.000  C
  H248     1.0000 0.10900  0.42040  0.01810  Biso   1.000  H
  C250     1.0000 0.13010  0.43700  0.95660  Biso   1.000  C
  H249     1.0000 0.00920  0.39510  0.02940  Biso   1.000  H
  H250     1.0000 0.99870  0.35130  0.99940  Biso   1.000  H
  C251     1.0000 0.05410  0.33780  0.04510  Biso   1.000  C
  H251     1.0000 0.13770  0.44490  0.89110  Biso   1.000  H
  H252     1.0000 0.09970  0.37900  0.83970  Biso   1.000  H
  H253     1.0000 0.04420  0.36930  0.84850  Biso   1.000  H
  C252     1.0000 0.05640  0.43380  0.82260  Biso   1.000  C
  O66      1.0000 0.01760  0.15720  0.95270  Biso   1.000  O
  C253     1.0000 0.92020  0.20970  0.00360  Biso   1.000  C
  C254     1.0000 0.89950  0.18680  0.93000  Biso   1.000  C
  O67      1.0000 0.10300  0.20490  0.94000  Biso   1.000  O
  H254     1.0000 0.81690  0.54090  0.09360  Biso   1.000  H
  C255     1.0000 0.86320  0.48540  0.09430  Biso   1.000  C
  H255     1.0000 0.77620  0.54470  0.98760  Biso   1.000  H
  H256     1.0000 0.76470  0.56500  0.03400  Biso   1.000  H
  C256     1.0000 0.71450  0.51280  0.01570  Biso   1.000  C
  H257     1.0000 0.90290  0.42700  0.08150  Biso   1.000  H
  H258     1.0000 0.90990  0.39960  0.99400  Biso   1.000  H
  H259     1.0000 0.85660  0.39040  0.97800  Biso   1.000  H
  C257     1.0000 0.87800  0.34340  0.02620  Biso   1.000  C
  H260     1.0000 0.15750  0.45450  0.96440  Biso   1.000  H
  H261     1.0000 0.03250  0.32500  0.06690  Biso   1.000  H
  H262     1.0000 0.07910  0.35610  0.05910  Biso   1.000  H
  H263     1.0000 0.06900  0.31260  0.02900  Biso   1.000  H
  H264     1.0000 0.05280  0.42340  0.79290  Biso   1.000  H
  H265     1.0000 0.08170  0.45710  0.82420  Biso   1.000  H
  H266     1.0000 0.02610  0.44710  0.83260  Biso   1.000  H
  Mn8      1.0000 0.08800  0.12899  0.93562  Biso   1.000  Mn
  C258     1.0000 0.95320  0.23050  0.03430  Biso   1.000  C
  C259     1.0000 0.87550  0.19240  0.01830  Biso   1.000  C
  C260     1.0000 0.91210  0.18790  0.88150  Biso   1.000  C
  C261     1.0000 0.85490  0.16950  0.94470  Biso   1.000  C
  H267     1.0000 0.87660  0.49130  0.12180  Biso   1.000  H
  H268     1.0000 0.69120  0.53510  0.00470  Biso   1.000  H
  H269     1.0000 0.70520  0.50330  0.04460  Biso   1.000  H
  H270     1.0000 0.71530  0.48580  0.99680  Biso   1.000  H
  H271     1.0000 0.89050  0.32060  0.00600  Biso   1.000  H
  H272     1.0000 0.84510  0.33470  0.03460  Biso   1.000  H
  H273     1.0000 0.89830  0.34450  0.05180  Biso   1.000  H
  O68      1.0000 0.09190  0.13950  0.86370  Biso   1.000  O
  O69      1.0000 0.06340  0.06130  0.90900  Biso   1.000  O
  O70      1.0000 0.10150  0.10120  0.99870  Biso   1.000  O
  O71      1.0000 0.16460  0.11160  0.93240  Biso   1.000  O
  C262     1.0000 0.94700  0.22500  0.08440  Biso   1.000  C
  H274     1.0000 0.95350  0.26400  0.02820  Biso   1.000  H
  H275     1.0000 0.98560  0.21880  0.02720  Biso   1.000  H
  C263     1.0000 0.84290  0.17230  0.98880  Biso   1.000  C
  H276     1.0000 0.86750  0.19430  0.04780  Biso   1.000  H
  C264     1.0000 0.93900  0.14140  0.86830  Biso   1.000  C
  H277     1.0000 0.88240  0.19130  0.86450  Biso   1.000  H
  H278     1.0000 0.93310  0.21470  0.87540  Biso   1.000  H
  H279     1.0000 0.83300  0.15600  0.92500  Biso   1.000  H
  C265     1.0000 0.08360  0.10320  0.84400  Biso   1.000  C
  C266     1.0000 0.07060  0.05900  0.86870  Biso   1.000  C
  C267     1.0000 0.14440  0.09030  0.00470  Biso   1.000  C
  C268     1.0000 0.17990  0.09630  0.96850  Biso   1.000  C
  H280     1.0000 0.91820  0.24140  0.09370  Biso   1.000  H
  H281     1.0000 0.97530  0.23870  0.09880  Biso   1.000  H
  H282     1.0000 0.94480  0.19260  0.09180  Biso   1.000  H
  H283     1.0000 0.81300  0.16070  0.99860  Biso   1.000  H
  H284     1.0000 0.91820  0.11500  0.87430  Biso   1.000  H
  H285     1.0000 0.94650  0.14220  0.83760  Biso   1.000  H
  H286     1.0000 0.96880  0.13860  0.88470  Biso   1.000  H
  O72      1.0000 0.08650  0.09940  0.80250  Biso   1.000  O
  N24      1.0000 0.06960  0.02120  0.84380  Biso   1.000  N
  C269     1.0000 0.05840  0.97550  0.86090  Biso   1.000  C
  C270     1.0000 0.13110  0.06570  0.07890  Biso   1.000  C
  C271     1.0000 0.01450  0.95420  0.84940  Biso   1.000  C
  C272     1.0000 0.09030  0.95300  0.88960  Biso   1.000  C
  C273     1.0000 0.11170  0.10240  0.10350  Biso   1.000  C
  C274     1.0000 0.12100  0.01940  0.09030  Biso   1.000  C
  C275     1.0000 0.97460  0.97930  0.82060  Biso   1.000  C
  C276     1.0000 0.00240  0.91050  0.86650  Biso   1.000  C
  C277     1.0000 0.07810  0.90920  0.90670  Biso   1.000  C
  C278     1.0000 0.14090  0.97110  0.89690  Biso   1.000  C
  C279     1.0000 0.11680  0.15120  0.09170  Biso   1.000  C
  C280     1.0000 0.08230  0.09270  0.13950  Biso   1.000  C
  C281     1.0000 0.14480  0.97410  0.07100  Biso   1.000  C
  C282     1.0000 0.09150  0.00970  0.12630  Biso   1.000  C
  C283     1.0000 0.95780  0.02130  0.85290  Biso   1.000  C
  H287     1.0000 0.94750  0.95840  0.81390  Biso   1.000  H
  H288     1.0000 0.98830  0.99140  0.79360  Biso   1.000  H
  C284     1.0000 0.03420  0.88800  0.89510  Biso   1.000  C
  H289     1.0000 0.97300  0.89620  0.85870  Biso   1.000  H
  H290     1.0000 0.09940  0.89420  0.92590  Biso   1.000  H
  H291     1.0000 0.15360  0.95770  0.92390  Biso   1.000  H
  H292     1.0000 0.13960  0.00500  0.90060  Biso   1.000  H
  C285     1.0000 0.17660  0.95930  0.85900  Biso   1.000  C
  H293     1.0000 0.13250  0.16910  0.11480  Biso   1.000  H
  C286     1.0000 0.06100  0.16640  0.08550  Biso   1.000  C
  H294     1.0000 0.13520  0.15490  0.06480  Biso   1.000  H
  C287     1.0000 0.07220  0.04640  0.15090  Biso   1.000  C
  H295     1.0000 0.06940  0.11730  0.15600  Biso   1.000  H
  C288     1.0000 0.11440  0.95170  0.03270  Biso   1.000  C
  H296     1.0000 0.14840  0.95110  0.09420  Biso   1.000  H
  H297     1.0000 0.17730  0.98180  0.06030  Biso   1.000  H
  H298     1.0000 0.08480  0.97870  0.13400  Biso   1.000  H
  H299     1.0000 0.94430  0.00820  0.87920  Biso   1.000  H
  H300     1.0000 0.93340  0.04020  0.83860  Biso   1.000  H
  H301     1.0000 0.98560  0.04050  0.86000  Biso   1.000  H
  H302     1.0000 0.02610  0.85870  0.90650  Biso   1.000  H
  H303     1.0000 0.17920  0.92580  0.85600  Biso   1.000  H
  H304     1.0000 0.16430  0.97260  0.83230  Biso   1.000  H
  H305     1.0000 0.20820  0.97240  0.86530  Biso   1.000  H
  H306     1.0000 0.05940  0.19950  0.07930  Biso   1.000  H
  H307     1.0000 0.04700  0.14920  0.06160  Biso   1.000  H
  H308     1.0000 0.04310  0.15980  0.11180  Biso   1.000  H
  H309     1.0000 0.05250  0.04000  0.17500  Biso   1.000  H
  H310     1.0000 0.08280  0.94230  0.04340  Biso   1.000  H
  H311     1.0000 0.11040  0.97430  0.00970  Biso   1.000  H
  H312     1.0000 0.13140  0.92470  0.02160  Biso   1.000  H
  Mn9      1.0000 0.66769  0.85462  0.83716  Biso   1.000  Mn
  Mn10     1.0000 0.82438  0.82745  0.15538  Biso   1.000  Mn
  Cu13     1.0000 0.68414  0.01372  0.74680  Biso   1.000  Cu
  Cu14     1.0000 0.74433  0.81463  0.99630  Biso   1.000  Cu
  Cu15     1.0000 0.99767  0.73849  0.16389  Biso   1.000  Cu
  C289     1.0000 0.68310  0.95200  0.80950  Biso   1.000  C
  C290     1.0000 0.69160  0.92220  0.77190  Biso   1.000  C
  C291     1.0000 0.74470  0.91960  0.67420  Biso   1.000  C
  C292     1.0000 0.69850  0.92310  0.69290  Biso   1.000  C
  C293     1.0000 0.65800  0.90460  0.67130  Biso   1.000  C
  C294     1.0000 0.66380  0.88270  0.63100  Biso   1.000  C
  H313     1.0000 0.63670  0.87040  0.61650  Biso   1.000  H
  C295     1.0000 0.71000  0.87930  0.61220  Biso   1.000  C
  H314     1.0000 0.71390  0.86460  0.58530  Biso   1.000  H
  C296     1.0000 0.75050  0.89770  0.63390  Biso   1.000  C
  H315     1.0000 0.78140  0.89540  0.62130  Biso   1.000  H
  C297     1.0000 0.60360  0.90900  0.68990  Biso   1.000  C
  H316     1.0000 0.60370  0.92320  0.71870  Biso   1.000  H
  H317     1.0000 0.58360  0.92810  0.67060  Biso   1.000  H
  C298     1.0000 0.79080  0.93990  0.69880  Biso   1.000  C
  H318     1.0000 0.78720  0.93600  0.73010  Biso   1.000  H
  H319     1.0000 0.82020  0.92350  0.68950  Biso   1.000  H
  C299     1.0000 0.79500  0.99330  0.68700  Biso   1.000  C
  H320     1.0000 0.82230  0.00680  0.70190  Biso   1.000  H
  H321     1.0000 0.76530  0.00910  0.69600  Biso   1.000  H
  H322     1.0000 0.79880  0.99670  0.65600  Biso   1.000  H
  C300     1.0000 0.58320  0.85750  0.69200  Biso   1.000  C
  H323     1.0000 0.55250  0.85740  0.70750  Biso   1.000  H
  H324     1.0000 0.60620  0.83790  0.70750  Biso   1.000  H
  H325     1.0000 0.57850  0.84560  0.66310  Biso   1.000  H
  C301     1.0000 0.56220  0.82960  0.82960  Biso   1.000  C
  C302     1.0000 0.59120  0.78760  0.82400  Biso   1.000  C
  C303     1.0000 0.54970  0.69670  0.74720  Biso   1.000  C
  H326     1.0000 0.54450  0.66920  0.72910  Biso   1.000  H
  H327     1.0000 0.51820  0.70550  0.75950  Biso   1.000  H
  C304     1.0000 0.58890  0.70660  0.82570  Biso   1.000  C
  C305     1.0000 0.61720  0.68810  0.85940  Biso   1.000  C
  C306     1.0000 0.64150  0.64560  0.85350  Biso   1.000  C
  H328     1.0000 0.66040  0.63320  0.87610  Biso   1.000  H
  C307     1.0000 0.63770  0.62170  0.81400  Biso   1.000  C
  H329     1.0000 0.65400  0.59330  0.81010  Biso   1.000  H
  C308     1.0000 0.60950  0.64020  0.78030  Biso   1.000  C
  H330     1.0000 0.60690  0.62420  0.75390  Biso   1.000  H
  C309     1.0000 0.58510  0.68270  0.78610  Biso   1.000  C
  C310     1.0000 0.56800  0.73790  0.71720  Biso   1.000  C
  H331     1.0000 0.54340  0.74440  0.69540  Biso   1.000  H
  H332     1.0000 0.59780  0.72900  0.70320  Biso   1.000  H
  H333     1.0000 0.57310  0.76550  0.73470  Biso   1.000  H
  C311     1.0000 0.62180  0.71760  0.90260  Biso   1.000  C
  H334     1.0000 0.63730  0.74730  0.89520  Biso   1.000  H
  H335     1.0000 0.58890  0.72490  0.91260  Biso   1.000  H
  C312     1.0000 0.65000  0.69640  0.94170  Biso   1.000  C
  H336     1.0000 0.65040  0.71860  0.96550  Biso   1.000  H
  H337     1.0000 0.68300  0.68950  0.93300  Biso   1.000  H
  H338     1.0000 0.63420  0.66800  0.95110  Biso   1.000  H
  C313     1.0000 0.68370  0.83390  0.92830  Biso   1.000  C
  C314     1.0000 0.73270  0.82660  0.90880  Biso   1.000  C
  C315     1.0000 0.81840  0.80840  0.92620  Biso   1.000  C
  C316     1.0000 0.84880  0.84730  0.92190  Biso   1.000  C
  C317     1.0000 0.89880  0.84120  0.91580  Biso   1.000  C
  H339     1.0000 0.91920  0.86730  0.91290  Biso   1.000  H
  C318     1.0000 0.91850  0.79610  0.91410  Biso   1.000  C
  H340     1.0000 0.95200  0.79210  0.91000  Biso   1.000  H
  C319     1.0000 0.88810  0.75720  0.91840  Biso   1.000  C
  H341     1.0000 0.90120  0.72710  0.91730  Biso   1.000  H
  C320     1.0000 0.83810  0.76330  0.92450  Biso   1.000  C
  C321     1.0000 0.80280  0.72160  0.93890  Biso   1.000  C
  H342     1.0000 0.82170  0.69530  0.95000  Biso   1.000  H
  H343     1.0000 0.78060  0.73210  0.96170  Biso   1.000  H
  C322     1.0000 0.82650  0.89770  0.92420  Biso   1.000  C
  H344     1.0000 0.85130  0.91930  0.93470  Biso   1.000  H
  H345     1.0000 0.79990  0.89770  0.94520  Biso   1.000  H
  C323     1.0000 0.77320  0.70650  0.89700  Biso   1.000  C
  H346     1.0000 0.75200  0.68070  0.90410  Biso   1.000  H
  H347     1.0000 0.79560  0.69710  0.87440  Biso   1.000  H
  H348     1.0000 0.75390  0.73260  0.88680  Biso   1.000  H
  C324     1.0000 0.80700  0.91590  0.87890  Biso   1.000  C
  H349     1.0000 0.79440  0.94730  0.88230  Biso   1.000  H
  H350     1.0000 0.78100  0.89560  0.86890  Biso   1.000  H
  H351     1.0000 0.83290  0.91590  0.85790  Biso   1.000  H
  C325     1.0000 0.80780  0.81580  0.06450  Biso   1.000  C
  C326     1.0000 0.75770  0.80970  0.08470  Biso   1.000  C
  C327     1.0000 0.67300  0.79680  0.06890  Biso   1.000  C
  C328     1.0000 0.63860  0.83270  0.07610  Biso   1.000  C
  C329     1.0000 0.59000  0.81920  0.08460  Biso   1.000  C
  C330     1.0000 0.57870  0.76950  0.08140  Biso   1.000  C
  C331     1.0000 0.60740  0.73510  0.06920  Biso   1.000  C
  C332     1.0000 0.65550  0.74850  0.06550  Biso   1.000  C
  C333     1.0000 0.65850  0.88200  0.07130  Biso   1.000  C
  H352     1.0000 0.69160  0.87890  0.06030  Biso   1.000  H
  H353     1.0000 0.66120  0.89480  0.10070  Biso   1.000  H
  C334     1.0000 0.69560  0.71280  0.05580  Biso   1.000  C
  H354     1.0000 0.72560  0.72540  0.06810  Biso   1.000  H
  H355     1.0000 0.69990  0.71260  0.02420  Biso   1.000  H
  C335     1.0000 0.69200  0.65930  0.07100  Biso   1.000  C
  H356     1.0000 0.72240  0.64360  0.06320  Biso   1.000  H
  H357     1.0000 0.66560  0.64430  0.05600  Biso   1.000  H
  H358     1.0000 0.68760  0.65780  0.10170  Biso   1.000  H
  C336     1.0000 0.63300  0.92140  0.04200  Biso   1.000  C
  H359     1.0000 0.65100  0.95010  0.04420  Biso   1.000  H
  H360     1.0000 0.60000  0.92670  0.05310  Biso   1.000  H
  H361     1.0000 0.63130  0.91120  0.01250  Biso   1.000  H
  C337     1.0000 0.81220  0.92330  0.18110  Biso   1.000  C
  C338     1.0000 0.80050  0.89610  0.22100  Biso   1.000  C
  C339     1.0000 0.78870  0.89780  0.29610  Biso   1.000  C
  C340     1.0000 0.82270  0.86800  0.31560  Biso   1.000  C
  C341     1.0000 0.81010  0.84290  0.35290  Biso   1.000  C
  H362     1.0000 0.83280  0.82290  0.36590  Biso   1.000  H
  C342     1.0000 0.76350  0.84750  0.37080  Biso   1.000  C
  H363     1.0000 0.75510  0.83070  0.39570  Biso   1.000  H
  C343     1.0000 0.72960  0.87730  0.35130  Biso   1.000  C
  H364     1.0000 0.69840  0.88040  0.36320  Biso   1.000  H
  C344     1.0000 0.74220  0.90250  0.31390  Biso   1.000  C
  C345     1.0000 0.70280  0.93400  0.29460  Biso   1.000  C
  H365     1.0000 0.67450  0.91470  0.28790  Biso   1.000  H
  H366     1.0000 0.71490  0.94670  0.26730  Biso   1.000  H
  C346     1.0000 0.87510  0.86480  0.29850  Biso   1.000  C
  H367     1.0000 0.88720  0.89690  0.29830  Biso   1.000  H
  H368     1.0000 0.87210  0.85570  0.26800  Biso   1.000  H
  C347     1.0000 0.91760  0.83500  0.31660  Biso   1.000  C
  H369     1.0000 0.94660  0.84040  0.29960  Biso   1.000  H
  H370     1.0000 0.90910  0.80210  0.31510  Biso   1.000  H
  H371     1.0000 0.92370  0.84340  0.34650  Biso   1.000  H
  C348     1.0000 0.68500  0.97700  0.32500  Biso   1.000  C
  H372     1.0000 0.66060  0.99490  0.30940  Biso   1.000  H
  H373     1.0000 0.71250  0.99690  0.33140  Biso   1.000  H
  H374     1.0000 0.67130  0.96500  0.35140  Biso   1.000  H
  C349     1.0000 0.92660  0.80660  0.16800  Biso   1.000  C
  C350     1.0000 0.89740  0.76380  0.17060  Biso   1.000  C
  C351     1.0000 0.90410  0.67720  0.17580  Biso   1.000  C
  C352     1.0000 0.88050  0.66100  0.13850  Biso   1.000  C
  C353     1.0000 0.85630  0.61800  0.13910  Biso   1.000  C
  H375     1.0000 0.84050  0.60720  0.11410  Biso   1.000  H
  C354     1.0000 0.85570  0.59120  0.17720  Biso   1.000  C
  H376     1.0000 0.83950  0.56250  0.17760  Biso   1.000  H
  C355     1.0000 0.87930  0.60740  0.21450  Biso   1.000  C
  H377     1.0000 0.87880  0.58950  0.24000  Biso   1.000  H
  C356     1.0000 0.90350  0.65040  0.21390  Biso   1.000  C
  C357     1.0000 0.86740  0.68800  0.09420  Biso   1.000  C
  H378     1.0000 0.87880  0.66990  0.06930  Biso   1.000  H
  H379     1.0000 0.88340  0.71840  0.09370  Biso   1.000  H
  C358     1.0000 0.89800  0.68140  0.25850  Biso   1.000  C
  H380     1.0000 0.87320  0.70530  0.25370  Biso   1.000  H
  H381     1.0000 0.88620  0.66100  0.28160  Biso   1.000  H
  C359     1.0000 0.80940  0.69500  0.09200  Biso   1.000  C
  H382     1.0000 0.80130  0.71330  0.06640  Biso   1.000  H
  H383     1.0000 0.79800  0.71030  0.11750  Biso   1.000  H
  H384     1.0000 0.79390  0.66450  0.08930  Biso   1.000  H
  C360     1.0000 0.94600  0.70600  0.27450  Biso   1.000  C
  H385     1.0000 0.93850  0.72480  0.29970  Biso   1.000  H
  H386     1.0000 0.95830  0.72550  0.25150  Biso   1.000  H
  H387     1.0000 0.96950  0.68240  0.28200  Biso   1.000  H
  N25      1.0000 0.69070  0.94690  0.73580  Biso   1.000  N
  N26      1.0000 0.56670  0.74710  0.82590  Biso   1.000  N
  N27      1.0000 0.76900  0.81740  0.93870  Biso   1.000  N
  N28      1.0000 0.72230  0.80640  0.05510  Biso   1.000  N
  N29      1.0000 0.80070  0.91930  0.25650  Biso   1.000  N
  N30      1.0000 0.93060  0.72580  0.17400  Biso   1.000  N
  O73      1.0000 0.68400  0.99430  0.80840  Biso   1.000  O
  O74      1.0000 0.67780  0.93030  0.84710  Biso   1.000  O
  O75      1.0000 0.69200  0.87670  0.77570  Biso   1.000  O
  O76      1.0000 0.52100  0.82730  0.83470  Biso   1.000  O
  O77      1.0000 0.58510  0.86830  0.82870  Biso   1.000  O
  O78      1.0000 0.63850  0.78640  0.81900  Biso   1.000  O
  O79      1.0000 0.73730  0.83100  0.86760  Biso   1.000  O
  O80      1.0000 0.64420  0.84850  0.90450  Biso   1.000  O
  O81      1.0000 0.68120  0.82510  0.96980  Biso   1.000  O
  O82      1.0000 0.80760  0.81960  0.02110  Biso   1.000  O
  O83      1.0000 0.84220  0.82660  0.08640  Biso   1.000  O
  O84      1.0000 0.75460  0.80750  0.12450  Biso   1.000  O
  O85      1.0000 0.79800  0.85070  0.21830  Biso   1.000  O
  O86      1.0000 0.81610  0.90300  0.14530  Biso   1.000  O
  O87      1.0000 0.81590  0.96910  0.18460  Biso   1.000  O
  O88      1.0000 0.85300  0.76140  0.17470  Biso   1.000  O
  O89      1.0000 0.90280  0.84490  0.16620  Biso   1.000  O
  O90      1.0000 0.97540  0.80330  0.16670  Biso   1.000  O
  Mn11     1.0000 0.83231  0.14538  0.33716  Biso   1.000  Mn
  Mn12     1.0000 0.67562  0.17255  0.65538  Biso   1.000  Mn
  Cu16     1.0000 0.81586  0.98628  0.24680  Biso   1.000  Cu
  Cu17     1.0000 0.75567  0.18537  0.49630  Biso   1.000  Cu
  Cu18     1.0000 0.50233  0.26151  0.66389  Biso   1.000  Cu
  C361     1.0000 0.81690  0.04800  0.30950  Biso   1.000  C
  C362     1.0000 0.80840  0.07780  0.27190  Biso   1.000  C
  C363     1.0000 0.75530  0.08040  0.17420  Biso   1.000  C
  C364     1.0000 0.80150  0.07690  0.19290  Biso   1.000  C
  C365     1.0000 0.84200  0.09540  0.17130  Biso   1.000  C
  C366     1.0000 0.83620  0.11730  0.13100  Biso   1.000  C
  H388     1.0000 0.86330  0.12960  0.11650  Biso   1.000  H
  C367     1.0000 0.79000  0.12070  0.11220  Biso   1.000  C
  H389     1.0000 0.78610  0.13540  0.08530  Biso   1.000  H
  C368     1.0000 0.74950  0.10230  0.13390  Biso   1.000  C
  H390     1.0000 0.71860  0.10460  0.12130  Biso   1.000  H
  C369     1.0000 0.89640  0.09100  0.18990  Biso   1.000  C
  H391     1.0000 0.89630  0.07680  0.21870  Biso   1.000  H
  H392     1.0000 0.91640  0.07190  0.17060  Biso   1.000  H
  C370     1.0000 0.70920  0.06010  0.19880  Biso   1.000  C
  H393     1.0000 0.71280  0.06400  0.23010  Biso   1.000  H
  H394     1.0000 0.67980  0.07650  0.18950  Biso   1.000  H
  C371     1.0000 0.70500  0.00670  0.18700  Biso   1.000  C
  H395     1.0000 0.67770  0.99320  0.20190  Biso   1.000  H
  H396     1.0000 0.73470  0.99090  0.19600  Biso   1.000  H
  H397     1.0000 0.70120  0.00330  0.15600  Biso   1.000  H
  C372     1.0000 0.91680  0.14250  0.19200  Biso   1.000  C
  H398     1.0000 0.94750  0.14260  0.20750  Biso   1.000  H
  H399     1.0000 0.89380  0.16210  0.20750  Biso   1.000  H
  H400     1.0000 0.92150  0.15440  0.16310  Biso   1.000  H
  C373     1.0000 0.93780  0.17040  0.32960  Biso   1.000  C
  C374     1.0000 0.90880  0.21240  0.32400  Biso   1.000  C
  C375     1.0000 0.95030  0.30330  0.24720  Biso   1.000  C
  H401     1.0000 0.95550  0.33080  0.22910  Biso   1.000  H
  H402     1.0000 0.98180  0.29450  0.25950  Biso   1.000  H
  C376     1.0000 0.91110  0.29340  0.32570  Biso   1.000  C
  C377     1.0000 0.88280  0.31190  0.35940  Biso   1.000  C
  C378     1.0000 0.85850  0.35440  0.35350  Biso   1.000  C
  H403     1.0000 0.83960  0.36680  0.37610  Biso   1.000  H
  C379     1.0000 0.86230  0.37830  0.31400  Biso   1.000  C
  H404     1.0000 0.84600  0.40670  0.31010  Biso   1.000  H
  C380     1.0000 0.89050  0.35980  0.28030  Biso   1.000  C
  H405     1.0000 0.89310  0.37580  0.25390  Biso   1.000  H
  C381     1.0000 0.91490  0.31730  0.28610  Biso   1.000  C
  C382     1.0000 0.93200  0.26210  0.21720  Biso   1.000  C
  H406     1.0000 0.95660  0.25560  0.19540  Biso   1.000  H
  H407     1.0000 0.90220  0.27100  0.20320  Biso   1.000  H
  H408     1.0000 0.92690  0.23450  0.23470  Biso   1.000  H
  C383     1.0000 0.87820  0.28240  0.40260  Biso   1.000  C
  H409     1.0000 0.86270  0.25270  0.39520  Biso   1.000  H
  H410     1.0000 0.91110  0.27510  0.41260  Biso   1.000  H
  C384     1.0000 0.85000  0.30360  0.44170  Biso   1.000  C
  H411     1.0000 0.84960  0.28140  0.46550  Biso   1.000  H
  H412     1.0000 0.81700  0.31050  0.43300  Biso   1.000  H
  H413     1.0000 0.86580  0.33200  0.45110  Biso   1.000  H
  C385     1.0000 0.81630  0.16610  0.42830  Biso   1.000  C
  C386     1.0000 0.76730  0.17340  0.40880  Biso   1.000  C
  C387     1.0000 0.68160  0.19160  0.42620  Biso   1.000  C
  C388     1.0000 0.65120  0.15270  0.42190  Biso   1.000  C
  C389     1.0000 0.60120  0.15880  0.41580  Biso   1.000  C
  H414     1.0000 0.58080  0.13270  0.41290  Biso   1.000  H
  C390     1.0000 0.58150  0.20390  0.41410  Biso   1.000  C
  H415     1.0000 0.54800  0.20790  0.41000  Biso   1.000  H
  C391     1.0000 0.61190  0.24280  0.41840  Biso   1.000  C
  H416     1.0000 0.59880  0.27290  0.41730  Biso   1.000  H
  C392     1.0000 0.66190  0.23670  0.42450  Biso   1.000  C
  C393     1.0000 0.69720  0.27840  0.43890  Biso   1.000  C
  H417     1.0000 0.67830  0.30470  0.45000  Biso   1.000  H
  H418     1.0000 0.71940  0.26790  0.46170  Biso   1.000  H
  C394     1.0000 0.67350  0.10230  0.42420  Biso   1.000  C
  H419     1.0000 0.64870  0.08070  0.43470  Biso   1.000  H
  H420     1.0000 0.70010  0.10230  0.44520  Biso   1.000  H
  C395     1.0000 0.72680  0.29350  0.39700  Biso   1.000  C
  H421     1.0000 0.74800  0.31930  0.40410  Biso   1.000  H
  H422     1.0000 0.70440  0.30290  0.37440  Biso   1.000  H
  H423     1.0000 0.74610  0.26740  0.38680  Biso   1.000  H
  C396     1.0000 0.69300  0.08410  0.37890  Biso   1.000  C
  H424     1.0000 0.70560  0.05270  0.38230  Biso   1.000  H
  H425     1.0000 0.71900  0.10440  0.36890  Biso   1.000  H
  H426     1.0000 0.66710  0.08410  0.35790  Biso   1.000  H
  C397     1.0000 0.69220  0.18420  0.56450  Biso   1.000  C
  C398     1.0000 0.74230  0.19030  0.58470  Biso   1.000  C
  C399     1.0000 0.82700  0.20320  0.56890  Biso   1.000  C
  C400     1.0000 0.86140  0.16730  0.57610  Biso   1.000  C
  C401     1.0000 0.91000  0.18080  0.58460  Biso   1.000  C
  C402     1.0000 0.92130  0.23050  0.58140  Biso   1.000  C
  C403     1.0000 0.89260  0.26490  0.56920  Biso   1.000  C
  C404     1.0000 0.84450  0.25150  0.56550  Biso   1.000  C
  C405     1.0000 0.84150  0.11800  0.57130  Biso   1.000  C
  H427     1.0000 0.80840  0.12110  0.56030  Biso   1.000  H
  H428     1.0000 0.83880  0.10520  0.60070  Biso   1.000  H
  C406     1.0000 0.80440  0.28720  0.55580  Biso   1.000  C
  H429     1.0000 0.77440  0.27460  0.56810  Biso   1.000  H
  H430     1.0000 0.80010  0.28740  0.52420  Biso   1.000  H
  C407     1.0000 0.80800  0.34070  0.57100  Biso   1.000  C
  H431     1.0000 0.77760  0.35640  0.56320  Biso   1.000  H
  H432     1.0000 0.83440  0.35570  0.55600  Biso   1.000  H
  H433     1.0000 0.81240  0.34220  0.60170  Biso   1.000  H
  C408     1.0000 0.86700  0.07860  0.54200  Biso   1.000  C
  H434     1.0000 0.84900  0.04990  0.54420  Biso   1.000  H
  H435     1.0000 0.90000  0.07330  0.55310  Biso   1.000  H
  H436     1.0000 0.86870  0.08880  0.51250  Biso   1.000  H
  C409     1.0000 0.68780  0.07670  0.68110  Biso   1.000  C
  C410     1.0000 0.69950  0.10390  0.72100  Biso   1.000  C
  C411     1.0000 0.71130  0.10220  0.79610  Biso   1.000  C
  C412     1.0000 0.67730  0.13200  0.81560  Biso   1.000  C
  C413     1.0000 0.68990  0.15710  0.85290  Biso   1.000  C
  H437     1.0000 0.66720  0.17710  0.86590  Biso   1.000  H
  C414     1.0000 0.73650  0.15250  0.87080  Biso   1.000  C
  H438     1.0000 0.74490  0.16930  0.89570  Biso   1.000  H
  C415     1.0000 0.77040  0.12270  0.85130  Biso   1.000  C
  H439     1.0000 0.80160  0.11960  0.86320  Biso   1.000  H
  C416     1.0000 0.75780  0.09750  0.81390  Biso   1.000  C
  C417     1.0000 0.79720  0.06600  0.79460  Biso   1.000  C
  H440     1.0000 0.82550  0.08530  0.78790  Biso   1.000  H
  H441     1.0000 0.78510  0.05330  0.76730  Biso   1.000  H
  C418     1.0000 0.62490  0.13520  0.79850  Biso   1.000  C
  H442     1.0000 0.61280  0.10310  0.79830  Biso   1.000  H
  H443     1.0000 0.62790  0.14430  0.76800  Biso   1.000  H
  C419     1.0000 0.58240  0.16500  0.81660  Biso   1.000  C
  H444     1.0000 0.55340  0.15960  0.79960  Biso   1.000  H
  H445     1.0000 0.59090  0.19790  0.81510  Biso   1.000  H
  H446     1.0000 0.57630  0.15660  0.84650  Biso   1.000  H
  C420     1.0000 0.81500  0.02300  0.82500  Biso   1.000  C
  H447     1.0000 0.83940  0.00510  0.80940  Biso   1.000  H
  H448     1.0000 0.78750  0.00310  0.83140  Biso   1.000  H
  H449     1.0000 0.82870  0.03500  0.85140  Biso   1.000  H
  C421     1.0000 0.57340  0.19340  0.66800  Biso   1.000  C
  C422     1.0000 0.60260  0.23620  0.67060  Biso   1.000  C
  C423     1.0000 0.59590  0.32280  0.67580  Biso   1.000  C
  C424     1.0000 0.61950  0.33900  0.63850  Biso   1.000  C
  C425     1.0000 0.64370  0.38200  0.63910  Biso   1.000  C
  H450     1.0000 0.65950  0.39280  0.61410  Biso   1.000  H
  C426     1.0000 0.64430  0.40880  0.67720  Biso   1.000  C
  H451     1.0000 0.66050  0.43750  0.67760  Biso   1.000  H
  C427     1.0000 0.62070  0.39260  0.71450  Biso   1.000  C
  H452     1.0000 0.62120  0.41050  0.74000  Biso   1.000  H
  C428     1.0000 0.59650  0.34960  0.71390  Biso   1.000  C
  C429     1.0000 0.63260  0.31200  0.59420  Biso   1.000  C
  H453     1.0000 0.62120  0.33010  0.56930  Biso   1.000  H
  H454     1.0000 0.61660  0.28160  0.59370  Biso   1.000  H
  C430     1.0000 0.60200  0.31860  0.75850  Biso   1.000  C
  H455     1.0000 0.62680  0.29470  0.75370  Biso   1.000  H
  H456     1.0000 0.61380  0.33900  0.78160  Biso   1.000  H
  C431     1.0000 0.69060  0.30500  0.59200  Biso   1.000  C
  H457     1.0000 0.69870  0.28670  0.56640  Biso   1.000  H
  H458     1.0000 0.70200  0.28970  0.61750  Biso   1.000  H
  H459     1.0000 0.70610  0.33550  0.58930  Biso   1.000  H
  C432     1.0000 0.55400  0.29400  0.77450  Biso   1.000  C
  H460     1.0000 0.56150  0.27520  0.79970  Biso   1.000  H
  H461     1.0000 0.54170  0.27450  0.75150  Biso   1.000  H
  H462     1.0000 0.53050  0.31760  0.78200  Biso   1.000  H
  N31      1.0000 0.80930  0.05310  0.23580  Biso   1.000  N
  N32      1.0000 0.93330  0.25290  0.32590  Biso   1.000  N
  N33      1.0000 0.73100  0.18260  0.43870  Biso   1.000  N
  N34      1.0000 0.77770  0.19360  0.55510  Biso   1.000  N
  N35      1.0000 0.69930  0.08070  0.75650  Biso   1.000  N
  N36      1.0000 0.56940  0.27420  0.67400  Biso   1.000  N
  O91      1.0000 0.81600  0.00570  0.30840  Biso   1.000  O
  O92      1.0000 0.82220  0.06970  0.34710  Biso   1.000  O
  O93      1.0000 0.80800  0.12330  0.27570  Biso   1.000  O
  O94      1.0000 0.97900  0.17270  0.33470  Biso   1.000  O
  O95      1.0000 0.91490  0.13170  0.32870  Biso   1.000  O
  O96      1.0000 0.86150  0.21360  0.31900  Biso   1.000  O
  O97      1.0000 0.76270  0.16900  0.36760  Biso   1.000  O
  O98      1.0000 0.85580  0.15150  0.40450  Biso   1.000  O
  O99      1.0000 0.81880  0.17490  0.46980  Biso   1.000  O
  O100     1.0000 0.69240  0.18040  0.52110  Biso   1.000  O
  O101     1.0000 0.65780  0.17340  0.58640  Biso   1.000  O
  O102     1.0000 0.74540  0.19250  0.62450  Biso   1.000  O
  O103     1.0000 0.70200  0.14930  0.71830  Biso   1.000  O
  O104     1.0000 0.68390  0.09700  0.64530  Biso   1.000  O
  O105     1.0000 0.68410  0.03090  0.68460  Biso   1.000  O
  O106     1.0000 0.64700  0.23860  0.67470  Biso   1.000  O
  O107     1.0000 0.59720  0.15510  0.66620  Biso   1.000  O
  O108     1.0000 0.52460  0.19670  0.66670  Biso   1.000  O
  Mn13     1.0000 0.33231  0.35462  0.66284  Biso   1.000  Mn
  Mn14     1.0000 0.17562  0.32745  0.34462  Biso   1.000  Mn
  Cu19     1.0000 0.31586  0.51372  0.75320  Biso   1.000  Cu
  Cu20     1.0000 0.25567  0.31463  0.50370  Biso   1.000  Cu
  Cu21     1.0000 0.00233  0.23849  0.33611  Biso   1.000  Cu
  C433     1.0000 0.31690  0.45200  0.69050  Biso   1.000  C
  C434     1.0000 0.30840  0.42220  0.72810  Biso   1.000  C
  C435     1.0000 0.25530  0.41960  0.82580  Biso   1.000  C
  C436     1.0000 0.30150  0.42310  0.80710  Biso   1.000  C
  C437     1.0000 0.34200  0.40460  0.82870  Biso   1.000  C
  C438     1.0000 0.33620  0.38270  0.86900  Biso   1.000  C
  H463     1.0000 0.36330  0.37040  0.88350  Biso   1.000  H
  C439     1.0000 0.29000  0.37930  0.88780  Biso   1.000  C
  H464     1.0000 0.28610  0.36460  0.91470  Biso   1.000  H
  C440     1.0000 0.24950  0.39770  0.86610  Biso   1.000  C
  H465     1.0000 0.21860  0.39540  0.87870  Biso   1.000  H
  C441     1.0000 0.39640  0.40900  0.81010  Biso   1.000  C
  H466     1.0000 0.39630  0.42320  0.78130  Biso   1.000  H
  H467     1.0000 0.41640  0.42810  0.82940  Biso   1.000  H
  C442     1.0000 0.20920  0.43990  0.80120  Biso   1.000  C
  H468     1.0000 0.21280  0.43600  0.76990  Biso   1.000  H
  H469     1.0000 0.17980  0.42350  0.81050  Biso   1.000  H
  C443     1.0000 0.20500  0.49330  0.81300  Biso   1.000  C
  H470     1.0000 0.17770  0.50680  0.79810  Biso   1.000  H
  H471     1.0000 0.23470  0.50910  0.80400  Biso   1.000  H
  H472     1.0000 0.20120  0.49670  0.84400  Biso   1.000  H
  C444     1.0000 0.41680  0.35750  0.80800  Biso   1.000  C
  H473     1.0000 0.44750  0.35740  0.79250  Biso   1.000  H
  H474     1.0000 0.39380  0.33790  0.79250  Biso   1.000  H
  H475     1.0000 0.42150  0.34560  0.83690  Biso   1.000  H
  C445     1.0000 0.43780  0.32960  0.67040  Biso   1.000  C
  C446     1.0000 0.40880  0.28760  0.67600  Biso   1.000  C
  C447     1.0000 0.45030  0.19670  0.75280  Biso   1.000  C
  H476     1.0000 0.45550  0.16920  0.77090  Biso   1.000  H
  H477     1.0000 0.48180  0.20550  0.74050  Biso   1.000  H
  C448     1.0000 0.41110  0.20660  0.67430  Biso   1.000  C
  C449     1.0000 0.38280  0.18810  0.64060  Biso   1.000  C
  C450     1.0000 0.35850  0.14560  0.64650  Biso   1.000  C
  H478     1.0000 0.33960  0.13320  0.62390  Biso   1.000  H
  C451     1.0000 0.36230  0.12170  0.68600  Biso   1.000  C
  H479     1.0000 0.34600  0.09330  0.68990  Biso   1.000  H
  C452     1.0000 0.39050  0.14020  0.71970  Biso   1.000  C
  H480     1.0000 0.39310  0.12420  0.74610  Biso   1.000  H
  C453     1.0000 0.41490  0.18270  0.71390  Biso   1.000  C
  C454     1.0000 0.43200  0.23790  0.78280  Biso   1.000  C
  H481     1.0000 0.45660  0.24440  0.80460  Biso   1.000  H
  H482     1.0000 0.40220  0.22900  0.79680  Biso   1.000  H
  H483     1.0000 0.42690  0.26550  0.76530  Biso   1.000  H
  C455     1.0000 0.37820  0.21760  0.59740  Biso   1.000  C
  H484     1.0000 0.36270  0.24730  0.60480  Biso   1.000  H
  H485     1.0000 0.41110  0.22490  0.58740  Biso   1.000  H
  C456     1.0000 0.35000  0.19640  0.55830  Biso   1.000  C
  H486     1.0000 0.34960  0.21860  0.53450  Biso   1.000  H
  H487     1.0000 0.31700  0.18950  0.56700  Biso   1.000  H
  H488     1.0000 0.36580  0.16800  0.54890  Biso   1.000  H
  C457     1.0000 0.31630  0.33390  0.57170  Biso   1.000  C
  C458     1.0000 0.26730  0.32660  0.59120  Biso   1.000  C
  C459     1.0000 0.18160  0.30840  0.57380  Biso   1.000  C
  C460     1.0000 0.15120  0.34730  0.57810  Biso   1.000  C
  C461     1.0000 0.10120  0.34120  0.58420  Biso   1.000  C
  H489     1.0000 0.08080  0.36730  0.58710  Biso   1.000  H
  C462     1.0000 0.08150  0.29610  0.58590  Biso   1.000  C
  H490     1.0000 0.04800  0.29210  0.59000  Biso   1.000  H
  C463     1.0000 0.11190  0.25720  0.58160  Biso   1.000  C
  H491     1.0000 0.09880  0.22710  0.58270  Biso   1.000  H
  C464     1.0000 0.16190  0.26330  0.57550  Biso   1.000  C
  C465     1.0000 0.19720  0.22160  0.56110  Biso   1.000  C
  H492     1.0000 0.17830  0.19530  0.55000  Biso   1.000  H
  H493     1.0000 0.21940  0.23210  0.53830  Biso   1.000  H
  C466     1.0000 0.17350  0.39770  0.57580  Biso   1.000  C
  H494     1.0000 0.14870  0.41930  0.56530  Biso   1.000  H
  H495     1.0000 0.20010  0.39770  0.55480  Biso   1.000  H
  C467     1.0000 0.22680  0.20650  0.60300  Biso   1.000  C
  H496     1.0000 0.24800  0.18070  0.59590  Biso   1.000  H
  H497     1.0000 0.20440  0.19710  0.62560  Biso   1.000  H
  H498     1.0000 0.24610  0.23260  0.61320  Biso   1.000  H
  C468     1.0000 0.19300  0.41590  0.62110  Biso   1.000  C
  H499     1.0000 0.20560  0.44730  0.61770  Biso   1.000  H
  H500     1.0000 0.21900  0.39560  0.63110  Biso   1.000  H
  H501     1.0000 0.16710  0.41590  0.64210  Biso   1.000  H
  C469     1.0000 0.19220  0.31580  0.43550  Biso   1.000  C
  C470     1.0000 0.24230  0.30970  0.41530  Biso   1.000  C
  C471     1.0000 0.32700  0.29680  0.43110  Biso   1.000  C
  C472     1.0000 0.36140  0.33270  0.42390  Biso   1.000  C
  C473     1.0000 0.41000  0.31920  0.41540  Biso   1.000  C
  C474     1.0000 0.42130  0.26950  0.41860  Biso   1.000  C
  C475     1.0000 0.39260  0.23510  0.43080  Biso   1.000  C
  C476     1.0000 0.34450  0.24850  0.43450  Biso   1.000  C
  C477     1.0000 0.34150  0.38200  0.42870  Biso   1.000  C
  H502     1.0000 0.30840  0.37890  0.43970  Biso   1.000  H
  H503     1.0000 0.33880  0.39480  0.39930  Biso   1.000  H
  C478     1.0000 0.30440  0.21280  0.44420  Biso   1.000  C
  H504     1.0000 0.27440  0.22540  0.43190  Biso   1.000  H
  H505     1.0000 0.30010  0.21260  0.47580  Biso   1.000  H
  C479     1.0000 0.30800  0.15930  0.42900  Biso   1.000  C
  H506     1.0000 0.27760  0.14360  0.43680  Biso   1.000  H
  H507     1.0000 0.33440  0.14430  0.44400  Biso   1.000  H
  H508     1.0000 0.31240  0.15780  0.39830  Biso   1.000  H
  C480     1.0000 0.36700  0.42140  0.45800  Biso   1.000  C
  H509     1.0000 0.34900  0.45010  0.45580  Biso   1.000  H
  H510     1.0000 0.40000  0.42670  0.44690  Biso   1.000  H
  H511     1.0000 0.36870  0.41120  0.48750  Biso   1.000  H
  C481     1.0000 0.18780  0.42330  0.31890  Biso   1.000  C
  C482     1.0000 0.19950  0.39610  0.27900  Biso   1.000  C
  C483     1.0000 0.21130  0.39780  0.20390  Biso   1.000  C
  C484     1.0000 0.17730  0.36800  0.18440  Biso   1.000  C
  C485     1.0000 0.18990  0.34290  0.14710  Biso   1.000  C
  H512     1.0000 0.16720  0.32290  0.13410  Biso   1.000  H
  C486     1.0000 0.23650  0.34750  0.12920  Biso   1.000  C
  H513     1.0000 0.24490  0.33070  0.10430  Biso   1.000  H
  C487     1.0000 0.27040  0.37730  0.14870  Biso   1.000  C
  H514     1.0000 0.30160  0.38040  0.13680  Biso   1.000  H
  C488     1.0000 0.25780  0.40250  0.18610  Biso   1.000  C
  C489     1.0000 0.29720  0.43400  0.20540  Biso   1.000  C
  H515     1.0000 0.32550  0.41470  0.21210  Biso   1.000  H
  H516     1.0000 0.28510  0.44670  0.23270  Biso   1.000  H
  C490     1.0000 0.12490  0.36480  0.20150  Biso   1.000  C
  H517     1.0000 0.11280  0.39690  0.20170  Biso   1.000  H
  H518     1.0000 0.12790  0.35570  0.23200  Biso   1.000  H
  C491     1.0000 0.08240  0.33500  0.18340  Biso   1.000  C
  H519     1.0000 0.05340  0.34040  0.20040  Biso   1.000  H
  H520     1.0000 0.09090  0.30210  0.18490  Biso   1.000  H
  H521     1.0000 0.07630  0.34340  0.15350  Biso   1.000  H
  C492     1.0000 0.31500  0.47700  0.17500  Biso   1.000  C
  H522     1.0000 0.33940  0.49490  0.19060  Biso   1.000  H
  H523     1.0000 0.28750  0.49690  0.16860  Biso   1.000  H
  H524     1.0000 0.32870  0.46500  0.14860  Biso   1.000  H
  C493     1.0000 0.07340  0.30660  0.33200  Biso   1.000  C
  C494     1.0000 0.10260  0.26380  0.32940  Biso   1.000  C
  C495     1.0000 0.09590  0.17720  0.32420  Biso   1.000  C
  C496     1.0000 0.11950  0.16100  0.36150  Biso   1.000  C
  C497     1.0000 0.14370  0.11800  0.36090  Biso   1.000  C
  H525     1.0000 0.15950  0.10720  0.38590  Biso   1.000  H
  C498     1.0000 0.14430  0.09120  0.32280  Biso   1.000  C
  H526     1.0000 0.16050  0.06250  0.32240  Biso   1.000  H
  C499     1.0000 0.12070  0.10740  0.28550  Biso   1.000  C
  H527     1.0000 0.12120  0.08950  0.26000  Biso   1.000  H
  C500     1.0000 0.09650  0.15040  0.28610  Biso   1.000  C
  C501     1.0000 0.13260  0.18800  0.40580  Biso   1.000  C
  H528     1.0000 0.12120  0.16990  0.43070  Biso   1.000  H
  H529     1.0000 0.11660  0.21840  0.40630  Biso   1.000  H
  C502     1.0000 0.10200  0.18140  0.24150  Biso   1.000  C
  H530     1.0000 0.12680  0.20530  0.24630  Biso   1.000  H
  H531     1.0000 0.11380  0.16100  0.21840  Biso   1.000  H
  C503     1.0000 0.19060  0.19500  0.40800  Biso   1.000  C
  H532     1.0000 0.19870  0.21330  0.43360  Biso   1.000  H
  H533     1.0000 0.20200  0.21030  0.38250  Biso   1.000  H
  H534     1.0000 0.20610  0.16450  0.41070  Biso   1.000  H
  C504     1.0000 0.05400  0.20600  0.22550  Biso   1.000  C
  H535     1.0000 0.06150  0.22480  0.20030  Biso   1.000  H
  H536     1.0000 0.04170  0.22550  0.24850  Biso   1.000  H
  H537     1.0000 0.03050  0.18240  0.21800  Biso   1.000  H
  N37      1.0000 0.30930  0.44690  0.76420  Biso   1.000  N
  N38      1.0000 0.43330  0.24710  0.67410  Biso   1.000  N
  N39      1.0000 0.23100  0.31740  0.56130  Biso   1.000  N
  N40      1.0000 0.27770  0.30640  0.44490  Biso   1.000  N
  N41      1.0000 0.19930  0.41930  0.24350  Biso   1.000  N
  N42      1.0000 0.06940  0.22580  0.32600  Biso   1.000  N
  O109     1.0000 0.31600  0.49430  0.69160  Biso   1.000  O
  O110     1.0000 0.32220  0.43030  0.65290  Biso   1.000  O
  O111     1.0000 0.30800  0.37670  0.72430  Biso   1.000  O
  O112     1.0000 0.47900  0.32730  0.66530  Biso   1.000  O
  O113     1.0000 0.41490  0.36830  0.67130  Biso   1.000  O
  O114     1.0000 0.36150  0.28640  0.68100  Biso   1.000  O
  O115     1.0000 0.26270  0.33100  0.63240  Biso   1.000  O
  O116     1.0000 0.35580  0.34850  0.59550  Biso   1.000  O
  O117     1.0000 0.31880  0.32510  0.53020  Biso   1.000  O
  O118     1.0000 0.19240  0.31960  0.47890  Biso   1.000  O
  O119     1.0000 0.15780  0.32660  0.41360  Biso   1.000  O
  O120     1.0000 0.24540  0.30750  0.37550  Biso   1.000  O
  O121     1.0000 0.20200  0.35070  0.28170  Biso   1.000  O
  O122     1.0000 0.18390  0.40300  0.35470  Biso   1.000  O
  O123     1.0000 0.18410  0.46910  0.31540  Biso   1.000  O
  O124     1.0000 0.14700  0.26140  0.32530  Biso   1.000  O
  O125     1.0000 0.09720  0.34490  0.33380  Biso   1.000  O
  O126     1.0000 0.02460  0.30330  0.33330  Biso   1.000  O
  Mn15     1.0000 0.16769  0.64538  0.16284  Biso   1.000  Mn
  Mn16     1.0000 0.32438  0.67255  0.84462  Biso   1.000  Mn
  Cu22     1.0000 0.18414  0.48628  0.25320  Biso   1.000  Cu
  Cu23     1.0000 0.24433  0.68537  0.00370  Biso   1.000  Cu
  Cu24     1.0000 0.49767  0.76151  0.83611  Biso   1.000  Cu
  C505     1.0000 0.18310  0.54800  0.19050  Biso   1.000  C
  C506     1.0000 0.19160  0.57780  0.22810  Biso   1.000  C
  C507     1.0000 0.24470  0.58040  0.32580  Biso   1.000  C
  C508     1.0000 0.19850  0.57690  0.30710  Biso   1.000  C
  C509     1.0000 0.15800  0.59540  0.32870  Biso   1.000  C
  C510     1.0000 0.16380  0.61730  0.36900  Biso   1.000  C
  H538     1.0000 0.13670  0.62960  0.38350  Biso   1.000  H
  C511     1.0000 0.21000  0.62070  0.38780  Biso   1.000  C
  H539     1.0000 0.21390  0.63540  0.41470  Biso   1.000  H
  C512     1.0000 0.25050  0.60230  0.36610  Biso   1.000  C
  H540     1.0000 0.28140  0.60460  0.37870  Biso   1.000  H
  C513     1.0000 0.10360  0.59100  0.31010  Biso   1.000  C
  H541     1.0000 0.10370  0.57680  0.28130  Biso   1.000  H
  H542     1.0000 0.08360  0.57190  0.32940  Biso   1.000  H
  C514     1.0000 0.29080  0.56010  0.30120  Biso   1.000  C
  H543     1.0000 0.28720  0.56400  0.26990  Biso   1.000  H
  H544     1.0000 0.32020  0.57650  0.31050  Biso   1.000  H
  C515     1.0000 0.29500  0.50670  0.31300  Biso   1.000  C
  H545     1.0000 0.32230  0.49320  0.29810  Biso   1.000  H
  H546     1.0000 0.26530  0.49090  0.30400  Biso   1.000  H
  H547     1.0000 0.29880  0.50330  0.34400  Biso   1.000  H
  C516     1.0000 0.08320  0.64250  0.30800  Biso   1.000  C
  H548     1.0000 0.05250  0.64260  0.29250  Biso   1.000  H
  H549     1.0000 0.10620  0.66210  0.29250  Biso   1.000  H
  H550     1.0000 0.07850  0.65440  0.33690  Biso   1.000  H
  C517     1.0000 0.06220  0.67040  0.17040  Biso   1.000  C
  C518     1.0000 0.09120  0.71240  0.17600  Biso   1.000  C
  C519     1.0000 0.04970  0.80330  0.25280  Biso   1.000  C
  H551     1.0000 0.04450  0.83080  0.27090  Biso   1.000  H
  H552     1.0000 0.01820  0.79450  0.24050  Biso   1.000  H
  C520     1.0000 0.08890  0.79340  0.17430  Biso   1.000  C
  C521     1.0000 0.11720  0.81190  0.14060  Biso   1.000  C
  C522     1.0000 0.14150  0.85440  0.14650  Biso   1.000  C
  H553     1.0000 0.16040  0.86680  0.12390  Biso   1.000  H
  C523     1.0000 0.13770  0.87830  0.18600  Biso   1.000  C
  H554     1.0000 0.15400  0.90670  0.18990  Biso   1.000  H
  C524     1.0000 0.10950  0.85980  0.21970  Biso   1.000  C
  H555     1.0000 0.10690  0.87580  0.24610  Biso   1.000  H
  C525     1.0000 0.08510  0.81730  0.21390  Biso   1.000  C
  C526     1.0000 0.06800  0.76210  0.28280  Biso   1.000  C
  H556     1.0000 0.04340  0.75560  0.30460  Biso   1.000  H
  H557     1.0000 0.09780  0.77100  0.29680  Biso   1.000  H
  H558     1.0000 0.07310  0.73450  0.26530  Biso   1.000  H
  C527     1.0000 0.12180  0.78240  0.09740  Biso   1.000  C
  H559     1.0000 0.13730  0.75270  0.10480  Biso   1.000  H
  H560     1.0000 0.08890  0.77510  0.08740  Biso   1.000  H
  C528     1.0000 0.15000  0.80360  0.05830  Biso   1.000  C
  H561     1.0000 0.15040  0.78140  0.03450  Biso   1.000  H
  H562     1.0000 0.18300  0.81050  0.06700  Biso   1.000  H
  H563     1.0000 0.13420  0.83200  0.04890  Biso   1.000  H
  C529     1.0000 0.18370  0.66610  0.07170  Biso   1.000  C
  C530     1.0000 0.23270  0.67340  0.09120  Biso   1.000  C
  C531     1.0000 0.31840  0.69160  0.07380  Biso   1.000  C
  C532     1.0000 0.34880  0.65270  0.07810  Biso   1.000  C
  C533     1.0000 0.39880  0.65880  0.08420  Biso   1.000  C
  H564     1.0000 0.41920  0.63270  0.08710  Biso   1.000  H
  C534     1.0000 0.41850  0.70390  0.08590  Biso   1.000  C
  H565     1.0000 0.45200  0.70790  0.09000  Biso   1.000  H
  C535     1.0000 0.38810  0.74280  0.08160  Biso   1.000  C
  H566     1.0000 0.40120  0.77290  0.08270  Biso   1.000  H
  C536     1.0000 0.33810  0.73670  0.07550  Biso   1.000  C
  C537     1.0000 0.30280  0.77840  0.06110  Biso   1.000  C
  H567     1.0000 0.32170  0.80470  0.05000  Biso   1.000  H
  H568     1.0000 0.28060  0.76790  0.03830  Biso   1.000  H
  C538     1.0000 0.32650  0.60230  0.07580  Biso   1.000  C
  H569     1.0000 0.35130  0.58070  0.06530  Biso   1.000  H
  H570     1.0000 0.29990  0.60230  0.05480  Biso   1.000  H
  C539     1.0000 0.27320  0.79350  0.10300  Biso   1.000  C
  H571     1.0000 0.25200  0.81930  0.09590  Biso   1.000  H
  H572     1.0000 0.29560  0.80290  0.12560  Biso   1.000  H
  H573     1.0000 0.25390  0.76740  0.11320  Biso   1.000  H
  C540     1.0000 0.30700  0.58410  0.12110  Biso   1.000  C
  H574     1.0000 0.29440  0.55270  0.11770  Biso   1.000  H
  H575     1.0000 0.28100  0.60440  0.13110  Biso   1.000  H
  H576     1.0000 0.33290  0.58410  0.14210  Biso   1.000  H
  C541     1.0000 0.30780  0.68420  0.93550  Biso   1.000  C
  C542     1.0000 0.25770  0.69030  0.91530  Biso   1.000  C
  C543     1.0000 0.17300  0.70320  0.93110  Biso   1.000  C
  C544     1.0000 0.13860  0.66730  0.92390  Biso   1.000  C
  C545     1.0000 0.09000  0.68080  0.91540  Biso   1.000  C
  C546     1.0000 0.07870  0.73050  0.91860  Biso   1.000  C
  C547     1.0000 0.10740  0.76490  0.93080  Biso   1.000  C
  C548     1.0000 0.15550  0.75150  0.93450  Biso   1.000  C
  C549     1.0000 0.15850  0.61800  0.92870  Biso   1.000  C
  H577     1.0000 0.19160  0.62110  0.93970  Biso   1.000  H
  H578     1.0000 0.16120  0.60520  0.89930  Biso   1.000  H
  C550     1.0000 0.19560  0.78720  0.94420  Biso   1.000  C
  H579     1.0000 0.22560  0.77460  0.93190  Biso   1.000  H
  H580     1.0000 0.19990  0.78740  0.97580  Biso   1.000  H
  C551     1.0000 0.19200  0.84070  0.92900  Biso   1.000  C
  H581     1.0000 0.22240  0.85640  0.93680  Biso   1.000  H
  H582     1.0000 0.16560  0.85570  0.94400  Biso   1.000  H
  H583     1.0000 0.18760  0.84220  0.89830  Biso   1.000  H
  C552     1.0000 0.13300  0.57860  0.95800  Biso   1.000  C
  H584     1.0000 0.15100  0.54990  0.95580  Biso   1.000  H
  H585     1.0000 0.10000  0.57330  0.94690  Biso   1.000  H
  H586     1.0000 0.13130  0.58880  0.98750  Biso   1.000  H
  C553     1.0000 0.31220  0.57670  0.81890  Biso   1.000  C
  C554     1.0000 0.30050  0.60390  0.77900  Biso   1.000  C
  C555     1.0000 0.28870  0.60220  0.70390  Biso   1.000  C
  C556     1.0000 0.32270  0.63200  0.68440  Biso   1.000  C
  C557     1.0000 0.31010  0.65710  0.64710  Biso   1.000  C
  H587     1.0000 0.33280  0.67710  0.63410  Biso   1.000  H
  C558     1.0000 0.26350  0.65250  0.62920  Biso   1.000  C
  H588     1.0000 0.25510  0.66930  0.60430  Biso   1.000  H
  C559     1.0000 0.22960  0.62270  0.64870  Biso   1.000  C
  H589     1.0000 0.19840  0.61960  0.63680  Biso   1.000  H
  C560     1.0000 0.24220  0.59750  0.68610  Biso   1.000  C
  C561     1.0000 0.20280  0.56600  0.70540  Biso   1.000  C
  H590     1.0000 0.17450  0.58530  0.71210  Biso   1.000  H
  H591     1.0000 0.21490  0.55330  0.73270  Biso   1.000  H
  C562     1.0000 0.37510  0.63520  0.70150  Biso   1.000  C
  H592     1.0000 0.38720  0.60310  0.70170  Biso   1.000  H
  H593     1.0000 0.37210  0.64430  0.73200  Biso   1.000  H
  C563     1.0000 0.41760  0.66500  0.68340  Biso   1.000  C
  H594     1.0000 0.44660  0.65960  0.70040  Biso   1.000  H
  H595     1.0000 0.40910  0.69790  0.68490  Biso   1.000  H
  H596     1.0000 0.42370  0.65660  0.65350  Biso   1.000  H
  C564     1.0000 0.18500  0.52300  0.67500  Biso   1.000  C
  H597     1.0000 0.16060  0.50510  0.69060  Biso   1.000  H
  H598     1.0000 0.21250  0.50310  0.66860  Biso   1.000  H
  H599     1.0000 0.17130  0.53500  0.64860  Biso   1.000  H
  C565     1.0000 0.42660  0.69340  0.83200  Biso   1.000  C
  C566     1.0000 0.39740  0.73620  0.82940  Biso   1.000  C
  C567     1.0000 0.40410  0.82280  0.82420  Biso   1.000  C
  C568     1.0000 0.38050  0.83900  0.86150  Biso   1.000  C
  C569     1.0000 0.35630  0.88200  0.86090  Biso   1.000  C
  H600     1.0000 0.34050  0.89280  0.88590  Biso   1.000  H
  C570     1.0000 0.35570  0.90880  0.82280  Biso   1.000  C
  H601     1.0000 0.33950  0.93750  0.82240  Biso   1.000  H
  C571     1.0000 0.37930  0.89260  0.78550  Biso   1.000  C
  H602     1.0000 0.37880  0.91050  0.76000  Biso   1.000  H
  C572     1.0000 0.40350  0.84960  0.78610  Biso   1.000  C
  C573     1.0000 0.36740  0.81200  0.90580  Biso   1.000  C
  H603     1.0000 0.37880  0.83010  0.93070  Biso   1.000  H
  H604     1.0000 0.38340  0.78160  0.90630  Biso   1.000  H
  C574     1.0000 0.39800  0.81860  0.74150  Biso   1.000  C
  H605     1.0000 0.37320  0.79470  0.74630  Biso   1.000  H
  H606     1.0000 0.38620  0.83900  0.71840  Biso   1.000  H
  C575     1.0000 0.30940  0.80500  0.90800  Biso   1.000  C
  H607     1.0000 0.30130  0.78670  0.93360  Biso   1.000  H
  H608     1.0000 0.29800  0.78970  0.88250  Biso   1.000  H
  H609     1.0000 0.29390  0.83550  0.91070  Biso   1.000  H
  C576     1.0000 0.44600  0.79400  0.72550  Biso   1.000  C
  H610     1.0000 0.43850  0.77520  0.70030  Biso   1.000  H
  H611     1.0000 0.45830  0.77450  0.74850  Biso   1.000  H
  H612     1.0000 0.46950  0.81760  0.71800  Biso   1.000  H
  N43      1.0000 0.19070  0.55310  0.26420  Biso   1.000  N
  N44      1.0000 0.06670  0.75290  0.17410  Biso   1.000  N
  N45      1.0000 0.26900  0.68260  0.06130  Biso   1.000  N
  N46      1.0000 0.22230  0.69360  0.94490  Biso   1.000  N
  N47      1.0000 0.30070  0.58070  0.74350  Biso   1.000  N
  N48      1.0000 0.43060  0.77420  0.82600  Biso   1.000  N
  O127     1.0000 0.18400  0.50570  0.19160  Biso   1.000  O
  O128     1.0000 0.17780  0.56970  0.15290  Biso   1.000  O
  O129     1.0000 0.19200  0.62330  0.22430  Biso   1.000  O
  O130     1.0000 0.02100  0.67270  0.16530  Biso   1.000  O
  O131     1.0000 0.08510  0.63170  0.17130  Biso   1.000  O
  O132     1.0000 0.13850  0.71360  0.18100  Biso   1.000  O
  O133     1.0000 0.23730  0.66900  0.13240  Biso   1.000  O
  O134     1.0000 0.14420  0.65150  0.09550  Biso   1.000  O
  O135     1.0000 0.18120  0.67490  0.03020  Biso   1.000  O
  O136     1.0000 0.30760  0.68040  0.97890  Biso   1.000  O
  O137     1.0000 0.34220  0.67340  0.91360  Biso   1.000  O
  O138     1.0000 0.25460  0.69250  0.87550  Biso   1.000  O
  O139     1.0000 0.29800  0.64930  0.78170  Biso   1.000  O
  O140     1.0000 0.31610  0.59700  0.85470  Biso   1.000  O
  O141     1.0000 0.31590  0.53090  0.81540  Biso   1.000  O
  O142     1.0000 0.35300  0.73860  0.82530  Biso   1.000  O
  O143     1.0000 0.40280  0.65510  0.83380  Biso   1.000  O
  O144     1.0000 0.47540  0.69670  0.83330  Biso   1.000  O
