data_image0
_cell_length_a       17.143
_cell_length_b       17.143
_cell_length_c       49.0687
_cell_angle_alpha    90
_cell_angle_beta     90
_cell_angle_gamma    90

_symmetry_space_group_name_H-M    "P 1"
_symmetry_int_tables_number       1

loop_
  _symmetry_equiv_pos_as_xyz
  'x, y, z'

loop_
  _atom_site_label
  _atom_site_occupancy
  _atom_site_fract_x
  _atom_site_fract_y
  _atom_site_fract_z
  _atom_site_thermal_displace_type
  _atom_site_B_iso_or_equiv
  _atom_site_type_symbol
  Ir1      1.0000 0.78429  0.70719  0.38308  Biso   1.000  Ir
  O1       1.0000 0.94270  0.62300  0.47862  Biso   1.000  O
  O2       1.0000 0.91210  0.49980  0.48970  Biso   1.000  O
  O3       1.0000 0.56690  0.63300  0.30030  Biso   1.000  O
  O4       1.0000 0.58260  0.50590  0.29202  Biso   1.000  O
  C1       1.0000 0.85620  0.55280  0.44997  Biso   1.000  C
  C2       1.0000 0.67510  0.71670  0.43170  Biso   1.000  C
  H1       1.0000 0.70180  0.67350  0.43830  Biso   1.000  H
  C3       1.0000 0.67940  0.83590  0.37070  Biso   1.000  C
  C4       1.0000 0.63080  0.55900  0.33291  Biso   1.000  C
  C5       1.0000 0.74310  0.79450  0.35900  Biso   1.000  C
  C6       1.0000 0.71320  0.54810  0.38032  Biso   1.000  C
  C7       1.0000 0.76930  0.81450  0.33250  Biso   1.000  C
  H2       1.0000 0.81090  0.78820  0.32450  Biso   1.000  H
  C8       1.0000 0.93300  0.78850  0.38260  Biso   1.000  C
  C9       1.0000 0.61610  0.74810  0.44720  Biso   1.000  C
  H3       1.0000 0.60480  0.72730  0.46420  Biso   1.000  H
  C10      1.0000 0.64380  0.89620  0.35670  Biso   1.000  C
  H4       1.0000 0.60170  0.92280  0.36420  Biso   1.000  H
  C11      1.0000 0.92460  0.87440  0.42930  Biso   1.000  C
  H5       1.0000 0.92370  0.90260  0.44550  Biso   1.000  H
  C12      1.0000 0.81090  0.49050  0.44593  Biso   1.000  C
  H6       1.0000 0.81120  0.44990  0.45850  Biso   1.000  H
  N1       1.0000 0.80760  0.61030  0.40930  Biso   1.000  N
  C13      1.0000 0.67190  0.62260  0.34352  Biso   1.000  C
  H7       1.0000 0.67180  0.66970  0.33410  Biso   1.000  H
  C14      1.0000 0.67030  0.48490  0.37080  Biso   1.000  C
  H8       1.0000 0.66930  0.43850  0.38070  Biso   1.000  H
  C15      1.0000 0.93500  0.62550  0.31890  Biso   1.000  C
  H9       1.0000 0.93390  0.58760  0.30530  Biso   1.000  H
  C16      1.0000 0.86420  0.78220  0.39848  Biso   1.000  C
  N2       1.0000 0.71130  0.61680  0.36701  Biso   1.000  N
  C17      1.0000 0.67240  0.91570  0.33160  Biso   1.000  C
  H10      1.0000 0.65130  0.95860  0.32260  Biso   1.000  H
  C18      1.0000 0.58980  0.56770  0.30593  Biso   1.000  C
  C19      1.0000 0.65140  0.80580  0.39770  Biso   1.000  C
  C20      1.0000 0.76400  0.48590  0.42335  Biso   1.000  C
  H11      1.0000 0.73400  0.44160  0.42040  Biso   1.000  H
  C21      1.0000 0.63070  0.49080  0.34754  Biso   1.000  C
  H12      1.0000 0.60270  0.44820  0.34110  Biso   1.000  H
  C22      1.0000 0.73140  0.87410  0.31880  Biso   1.000  C
  H13      1.0000 0.74560  0.88640  0.30100  Biso   1.000  H
  C23      1.0000 0.99610  0.67710  0.32030  Biso   1.000  C
  H14      1.0000 0.03620  0.67500  0.30760  Biso   1.000  H
  C24      1.0000 0.98710  0.88110  0.41110  Biso   1.000  C
  H15      1.0000 0.02600  0.91740  0.41480  Biso   1.000  H
  C25      1.0000 0.99300  0.83930  0.38940  Biso   1.000  C
  H16      1.0000 0.03700  0.84300  0.37840  Biso   1.000  H
  C26      1.0000 0.59030  0.83750  0.41230  Biso   1.000  C
  H17      1.0000 0.56050  0.87750  0.40490  Biso   1.000  H
  C27      1.0000 0.99740  0.73000  0.34010  Biso   1.000  C
  H18      1.0000 0.03920  0.76430  0.34130  Biso   1.000  H
  C28      1.0000 0.57440  0.80970  0.43750  Biso   1.000  C
  H19      1.0000 0.53540  0.83240  0.44800  Biso   1.000  H
  C29      1.0000 0.76130  0.54630  0.40526  Biso   1.000  C
  C30      1.0000 0.90720  0.56210  0.47445  Biso   1.000  C
  C31      1.0000 0.93690  0.73450  0.35890  Biso   1.000  C
  C32      1.0000 0.86230  0.82270  0.42220  Biso   1.000  C
  H20      1.0000 0.82010  0.81680  0.43400  Biso   1.000  H
  C33      1.0000 0.87660  0.63030  0.33729  Biso   1.000  C
  H21      1.0000 0.83620  0.59420  0.33630  Biso   1.000  H
  C34      1.0000 0.85260  0.61310  0.43139  Biso   1.000  C
  H22      1.0000 0.88280  0.65740  0.43440  Biso   1.000  H
  N3       1.0000 0.87430  0.68400  0.35666  Biso   1.000  N
  N4       1.0000 0.69550  0.74640  0.40726  Biso   1.000  N
  Ir2      1.0000 0.28429  0.20719  0.88308  Biso   1.000  Ir
  O5       1.0000 0.44270  0.12300  0.97862  Biso   1.000  O
  O6       1.0000 0.41210  0.99980  0.98970  Biso   1.000  O
  O7       1.0000 0.06690  0.13300  0.80030  Biso   1.000  O
  O8       1.0000 0.08260  0.00590  0.79202  Biso   1.000  O
  C35      1.0000 0.35620  0.05280  0.94997  Biso   1.000  C
  C36      1.0000 0.17510  0.21670  0.93170  Biso   1.000  C
  H23      1.0000 0.20180  0.17350  0.93830  Biso   1.000  H
  C37      1.0000 0.17940  0.33590  0.87070  Biso   1.000  C
  C38      1.0000 0.13080  0.05900  0.83291  Biso   1.000  C
  C39      1.0000 0.24310  0.29450  0.85900  Biso   1.000  C
  C40      1.0000 0.21320  0.04810  0.88032  Biso   1.000  C
  C41      1.0000 0.26930  0.31450  0.83250  Biso   1.000  C
  H24      1.0000 0.31090  0.28820  0.82450  Biso   1.000  H
  C42      1.0000 0.43300  0.28850  0.88260  Biso   1.000  C
  C43      1.0000 0.11610  0.24810  0.94720  Biso   1.000  C
  H25      1.0000 0.10480  0.22730  0.96420  Biso   1.000  H
  C44      1.0000 0.14380  0.39620  0.85670  Biso   1.000  C
  H26      1.0000 0.10170  0.42280  0.86420  Biso   1.000  H
  C45      1.0000 0.42460  0.37440  0.92930  Biso   1.000  C
  H27      1.0000 0.42370  0.40260  0.94550  Biso   1.000  H
  C46      1.0000 0.31090  0.99050  0.94593  Biso   1.000  C
  H28      1.0000 0.31120  0.94990  0.95850  Biso   1.000  H
  N5       1.0000 0.30760  0.11030  0.90930  Biso   1.000  N
  C47      1.0000 0.17190  0.12260  0.84352  Biso   1.000  C
  H29      1.0000 0.17180  0.16970  0.83410  Biso   1.000  H
  C48      1.0000 0.17030  0.98490  0.87080  Biso   1.000  C
  H30      1.0000 0.16930  0.93850  0.88070  Biso   1.000  H
  C49      1.0000 0.43500  0.12550  0.81890  Biso   1.000  C
  H31      1.0000 0.43390  0.08760  0.80530  Biso   1.000  H
  C50      1.0000 0.36420  0.28220  0.89848  Biso   1.000  C
  N6       1.0000 0.21130  0.11680  0.86701  Biso   1.000  N
  C51      1.0000 0.17240  0.41570  0.83160  Biso   1.000  C
  H32      1.0000 0.15130  0.45860  0.82260  Biso   1.000  H
  C52      1.0000 0.08980  0.06770  0.80593  Biso   1.000  C
  C53      1.0000 0.15140  0.30580  0.89770  Biso   1.000  C
  C54      1.0000 0.26400  0.98590  0.92335  Biso   1.000  C
  H33      1.0000 0.23400  0.94160  0.92040  Biso   1.000  H
  C55      1.0000 0.13070  0.99080  0.84754  Biso   1.000  C
  H34      1.0000 0.10270  0.94820  0.84110  Biso   1.000  H
  C56      1.0000 0.23140  0.37410  0.81880  Biso   1.000  C
  H35      1.0000 0.24560  0.38640  0.80100  Biso   1.000  H
  C57      1.0000 0.49610  0.17710  0.82030  Biso   1.000  C
  H36      1.0000 0.53620  0.17500  0.80760  Biso   1.000  H
  C58      1.0000 0.48710  0.38110  0.91110  Biso   1.000  C
  H37      1.0000 0.52600  0.41740  0.91480  Biso   1.000  H
  C59      1.0000 0.49300  0.33930  0.88940  Biso   1.000  C
  H38      1.0000 0.53700  0.34300  0.87840  Biso   1.000  H
  C60      1.0000 0.09030  0.33750  0.91230  Biso   1.000  C
  H39      1.0000 0.06050  0.37750  0.90490  Biso   1.000  H
  C61      1.0000 0.49740  0.23000  0.84010  Biso   1.000  C
  H40      1.0000 0.53920  0.26430  0.84130  Biso   1.000  H
  C62      1.0000 0.07440  0.30970  0.93750  Biso   1.000  C
  H41      1.0000 0.03540  0.33240  0.94800  Biso   1.000  H
  C63      1.0000 0.26130  0.04630  0.90526  Biso   1.000  C
  C64      1.0000 0.40720  0.06210  0.97445  Biso   1.000  C
  C65      1.0000 0.43690  0.23450  0.85890  Biso   1.000  C
  C66      1.0000 0.36230  0.32270  0.92220  Biso   1.000  C
  H42      1.0000 0.32010  0.31680  0.93400  Biso   1.000  H
  C67      1.0000 0.37660  0.13030  0.83729  Biso   1.000  C
  H43      1.0000 0.33620  0.09420  0.83630  Biso   1.000  H
  C68      1.0000 0.35260  0.11310  0.93139  Biso   1.000  C
  H44      1.0000 0.38280  0.15740  0.93440  Biso   1.000  H
  N7       1.0000 0.37430  0.18400  0.85666  Biso   1.000  N
  N8       1.0000 0.19550  0.24640  0.90726  Biso   1.000  N
  Ir3      1.0000 0.71571  0.79281  0.88308  Biso   1.000  Ir
  O9       1.0000 0.55730  0.87700  0.97862  Biso   1.000  O
  O10      1.0000 0.58790  0.00020  0.98970  Biso   1.000  O
  O11      1.0000 0.93310  0.86700  0.80030  Biso   1.000  O
  O12      1.0000 0.91740  0.99410  0.79202  Biso   1.000  O
  C69      1.0000 0.64380  0.94720  0.94997  Biso   1.000  C
  C70      1.0000 0.82490  0.78330  0.93170  Biso   1.000  C
  H45      1.0000 0.79820  0.82650  0.93830  Biso   1.000  H
  C71      1.0000 0.82060  0.66410  0.87070  Biso   1.000  C
  C72      1.0000 0.86920  0.94100  0.83291  Biso   1.000  C
  C73      1.0000 0.75690  0.70550  0.85900  Biso   1.000  C
  C74      1.0000 0.78680  0.95190  0.88032  Biso   1.000  C
  C75      1.0000 0.73070  0.68550  0.83250  Biso   1.000  C
  H46      1.0000 0.68910  0.71180  0.82450  Biso   1.000  H
  C76      1.0000 0.56700  0.71150  0.88260  Biso   1.000  C
  C77      1.0000 0.88390  0.75190  0.94720  Biso   1.000  C
  H47      1.0000 0.89520  0.77270  0.96420  Biso   1.000  H
  C78      1.0000 0.85620  0.60380  0.85670  Biso   1.000  C
  H48      1.0000 0.89830  0.57720  0.86420  Biso   1.000  H
  C79      1.0000 0.57540  0.62560  0.92930  Biso   1.000  C
  H49      1.0000 0.57630  0.59740  0.94550  Biso   1.000  H
  C80      1.0000 0.68910  0.00950  0.94593  Biso   1.000  C
  H50      1.0000 0.68880  0.05010  0.95850  Biso   1.000  H
  N9       1.0000 0.69240  0.88970  0.90930  Biso   1.000  N
  C81      1.0000 0.82810  0.87740  0.84352  Biso   1.000  C
  H51      1.0000 0.82820  0.83030  0.83410  Biso   1.000  H
  C82      1.0000 0.82970  0.01510  0.87080  Biso   1.000  C
  H52      1.0000 0.83070  0.06150  0.88070  Biso   1.000  H
  C83      1.0000 0.56500  0.87450  0.81890  Biso   1.000  C
  H53      1.0000 0.56610  0.91240  0.80530  Biso   1.000  H
  C84      1.0000 0.63580  0.71780  0.89848  Biso   1.000  C
  N10      1.0000 0.78870  0.88320  0.86701  Biso   1.000  N
  C85      1.0000 0.82760  0.58430  0.83160  Biso   1.000  C
  H54      1.0000 0.84870  0.54140  0.82260  Biso   1.000  H
  C86      1.0000 0.91020  0.93230  0.80593  Biso   1.000  C
  C87      1.0000 0.84860  0.69420  0.89770  Biso   1.000  C
  C88      1.0000 0.73600  0.01410  0.92335  Biso   1.000  C
  H55      1.0000 0.76600  0.05840  0.92040  Biso   1.000  H
  C89      1.0000 0.86930  0.00920  0.84754  Biso   1.000  C
  H56      1.0000 0.89730  0.05180  0.84110  Biso   1.000  H
  C90      1.0000 0.76860  0.62590  0.81880  Biso   1.000  C
  H57      1.0000 0.75440  0.61360  0.80100  Biso   1.000  H
  C91      1.0000 0.50390  0.82290  0.82030  Biso   1.000  C
  H58      1.0000 0.46380  0.82500  0.80760  Biso   1.000  H
  C92      1.0000 0.51290  0.61890  0.91110  Biso   1.000  C
  H59      1.0000 0.47400  0.58260  0.91480  Biso   1.000  H
  C93      1.0000 0.50700  0.66070  0.88940  Biso   1.000  C
  H60      1.0000 0.46300  0.65700  0.87840  Biso   1.000  H
  C94      1.0000 0.90970  0.66250  0.91230  Biso   1.000  C
  H61      1.0000 0.93950  0.62250  0.90490  Biso   1.000  H
  C95      1.0000 0.50260  0.77000  0.84010  Biso   1.000  C
  H62      1.0000 0.46080  0.73570  0.84130  Biso   1.000  H
  C96      1.0000 0.92560  0.69030  0.93750  Biso   1.000  C
  H63      1.0000 0.96460  0.66760  0.94800  Biso   1.000  H
  C97      1.0000 0.73870  0.95370  0.90526  Biso   1.000  C
  C98      1.0000 0.59280  0.93790  0.97445  Biso   1.000  C
  C99      1.0000 0.56310  0.76550  0.85890  Biso   1.000  C
  C100     1.0000 0.63770  0.67730  0.92220  Biso   1.000  C
  H64      1.0000 0.67990  0.68320  0.93400  Biso   1.000  H
  C101     1.0000 0.62340  0.86970  0.83729  Biso   1.000  C
  H65      1.0000 0.66380  0.90580  0.83630  Biso   1.000  H
  C102     1.0000 0.64740  0.88690  0.93139  Biso   1.000  C
  H66      1.0000 0.61720  0.84260  0.93440  Biso   1.000  H
  N11      1.0000 0.62570  0.81600  0.85666  Biso   1.000  N
  N12      1.0000 0.80450  0.75360  0.90726  Biso   1.000  N
  Ir4      1.0000 0.21571  0.29281  0.38308  Biso   1.000  Ir
  O13      1.0000 0.05730  0.37700  0.47862  Biso   1.000  O
  O14      1.0000 0.08790  0.50020  0.48970  Biso   1.000  O
  O15      1.0000 0.43310  0.36700  0.30030  Biso   1.000  O
  O16      1.0000 0.41740  0.49410  0.29202  Biso   1.000  O
  C103     1.0000 0.14380  0.44720  0.44997  Biso   1.000  C
  C104     1.0000 0.32490  0.28330  0.43170  Biso   1.000  C
  H67      1.0000 0.29820  0.32650  0.43830  Biso   1.000  H
  C105     1.0000 0.32060  0.16410  0.37070  Biso   1.000  C
  C106     1.0000 0.36920  0.44100  0.33291  Biso   1.000  C
  C107     1.0000 0.25690  0.20550  0.35900  Biso   1.000  C
  C108     1.0000 0.28680  0.45190  0.38032  Biso   1.000  C
  C109     1.0000 0.23070  0.18550  0.33250  Biso   1.000  C
  H68      1.0000 0.18910  0.21180  0.32450  Biso   1.000  H
  C110     1.0000 0.06700  0.21150  0.38260  Biso   1.000  C
  C111     1.0000 0.38390  0.25190  0.44720  Biso   1.000  C
  H69      1.0000 0.39520  0.27270  0.46420  Biso   1.000  H
  C112     1.0000 0.35620  0.10380  0.35670  Biso   1.000  C
  H70      1.0000 0.39830  0.07720  0.36420  Biso   1.000  H
  C113     1.0000 0.07540  0.12560  0.42930  Biso   1.000  C
  H71      1.0000 0.07630  0.09740  0.44550  Biso   1.000  H
  C114     1.0000 0.18910  0.50950  0.44593  Biso   1.000  C
  H72      1.0000 0.18880  0.55010  0.45850  Biso   1.000  H
  N13      1.0000 0.19240  0.38970  0.40930  Biso   1.000  N
  C115     1.0000 0.32810  0.37740  0.34352  Biso   1.000  C
  H73      1.0000 0.32820  0.33030  0.33410  Biso   1.000  H
  C116     1.0000 0.32970  0.51510  0.37080  Biso   1.000  C
  H74      1.0000 0.33070  0.56150  0.38070  Biso   1.000  H
  C117     1.0000 0.06500  0.37450  0.31890  Biso   1.000  C
  H75      1.0000 0.06610  0.41240  0.30530  Biso   1.000  H
  C118     1.0000 0.13580  0.21780  0.39848  Biso   1.000  C
  N14      1.0000 0.28870  0.38320  0.36701  Biso   1.000  N
  C119     1.0000 0.32760  0.08430  0.33160  Biso   1.000  C
  H76      1.0000 0.34870  0.04140  0.32260  Biso   1.000  H
  C120     1.0000 0.41020  0.43230  0.30593  Biso   1.000  C
  C121     1.0000 0.34860  0.19420  0.39770  Biso   1.000  C
  C122     1.0000 0.23600  0.51410  0.42335  Biso   1.000  C
  H77      1.0000 0.26600  0.55840  0.42040  Biso   1.000  H
  C123     1.0000 0.36930  0.50920  0.34754  Biso   1.000  C
  H78      1.0000 0.39730  0.55180  0.34110  Biso   1.000  H
  C124     1.0000 0.26860  0.12590  0.31880  Biso   1.000  C
  H79      1.0000 0.25440  0.11360  0.30100  Biso   1.000  H
  C125     1.0000 0.00390  0.32290  0.32030  Biso   1.000  C
  H80      1.0000 0.96380  0.32500  0.30760  Biso   1.000  H
  C126     1.0000 0.01290  0.11890  0.41110  Biso   1.000  C
  H81      1.0000 0.97400  0.08260  0.41480  Biso   1.000  H
  C127     1.0000 0.00700  0.16070  0.38940  Biso   1.000  C
  H82      1.0000 0.96300  0.15700  0.37840  Biso   1.000  H
  C128     1.0000 0.40970  0.16250  0.41230  Biso   1.000  C
  H83      1.0000 0.43950  0.12250  0.40490  Biso   1.000  H
  C129     1.0000 0.00260  0.27000  0.34010  Biso   1.000  C
  H84      1.0000 0.96080  0.23570  0.34130  Biso   1.000  H
  C130     1.0000 0.42560  0.19030  0.43750  Biso   1.000  C
  H85      1.0000 0.46460  0.16760  0.44800  Biso   1.000  H
  C131     1.0000 0.23870  0.45370  0.40526  Biso   1.000  C
  C132     1.0000 0.09280  0.43790  0.47445  Biso   1.000  C
  C133     1.0000 0.06310  0.26550  0.35890  Biso   1.000  C
  C134     1.0000 0.13770  0.17730  0.42220  Biso   1.000  C
  H86      1.0000 0.17990  0.18320  0.43400  Biso   1.000  H
  C135     1.0000 0.12340  0.36970  0.33729  Biso   1.000  C
  H87      1.0000 0.16380  0.40580  0.33630  Biso   1.000  H
  C136     1.0000 0.14740  0.38690  0.43139  Biso   1.000  C
  H88      1.0000 0.11720  0.34260  0.43440  Biso   1.000  H
  N15      1.0000 0.12570  0.31600  0.35666  Biso   1.000  N
  N16      1.0000 0.30450  0.25360  0.40726  Biso   1.000  N
  Ir5      1.0000 0.29281  0.71571  0.13308  Biso   1.000  Ir
  O17      1.0000 0.37700  0.55730  0.22862  Biso   1.000  O
  O18      1.0000 0.50020  0.58790  0.23970  Biso   1.000  O
  O19      1.0000 0.36700  0.93310  0.05030  Biso   1.000  O
  O20      1.0000 0.49410  0.91740  0.04202  Biso   1.000  O
  C137     1.0000 0.44720  0.64380  0.19997  Biso   1.000  C
  C138     1.0000 0.28330  0.82490  0.18170  Biso   1.000  C
  H89      1.0000 0.32650  0.79820  0.18830  Biso   1.000  H
  C139     1.0000 0.16410  0.82060  0.12070  Biso   1.000  C
  C140     1.0000 0.44100  0.86920  0.08291  Biso   1.000  C
  C141     1.0000 0.20550  0.75690  0.10900  Biso   1.000  C
  C142     1.0000 0.45190  0.78680  0.13032  Biso   1.000  C
  C143     1.0000 0.18550  0.73070  0.08250  Biso   1.000  C
  H90      1.0000 0.21180  0.68910  0.07450  Biso   1.000  H
  C144     1.0000 0.21150  0.56700  0.13260  Biso   1.000  C
  C145     1.0000 0.25190  0.88390  0.19720  Biso   1.000  C
  H91      1.0000 0.27270  0.89520  0.21420  Biso   1.000  H
  C146     1.0000 0.10380  0.85620  0.10670  Biso   1.000  C
  H92      1.0000 0.07720  0.89830  0.11420  Biso   1.000  H
  C147     1.0000 0.12560  0.57540  0.17930  Biso   1.000  C
  H93      1.0000 0.09740  0.57630  0.19550  Biso   1.000  H
  C148     1.0000 0.50950  0.68910  0.19593  Biso   1.000  C
  H94      1.0000 0.55010  0.68880  0.20850  Biso   1.000  H
  N17      1.0000 0.38970  0.69240  0.15930  Biso   1.000  N
  C149     1.0000 0.37740  0.82810  0.09352  Biso   1.000  C
  H95      1.0000 0.33030  0.82820  0.08410  Biso   1.000  H
  C150     1.0000 0.51510  0.82970  0.12080  Biso   1.000  C
  H96      1.0000 0.56150  0.83070  0.13070  Biso   1.000  H
  C151     1.0000 0.37450  0.56500  0.06890  Biso   1.000  C
  H97      1.0000 0.41240  0.56610  0.05530  Biso   1.000  H
  C152     1.0000 0.21780  0.63580  0.14848  Biso   1.000  C
  N18      1.0000 0.38320  0.78870  0.11701  Biso   1.000  N
  C153     1.0000 0.08430  0.82760  0.08160  Biso   1.000  C
  H98      1.0000 0.04140  0.84870  0.07260  Biso   1.000  H
  C154     1.0000 0.43230  0.91020  0.05593  Biso   1.000  C
  C155     1.0000 0.19420  0.84860  0.14770  Biso   1.000  C
  C156     1.0000 0.51410  0.73600  0.17335  Biso   1.000  C
  H99      1.0000 0.55840  0.76600  0.17040  Biso   1.000  H
  C157     1.0000 0.50920  0.86930  0.09754  Biso   1.000  C
  H100     1.0000 0.55180  0.89730  0.09110  Biso   1.000  H
  C158     1.0000 0.12590  0.76860  0.06880  Biso   1.000  C
  H101     1.0000 0.11360  0.75440  0.05100  Biso   1.000  H
  C159     1.0000 0.32290  0.50390  0.07030  Biso   1.000  C
  H102     1.0000 0.32500  0.46380  0.05760  Biso   1.000  H
  C160     1.0000 0.11890  0.51290  0.16110  Biso   1.000  C
  H103     1.0000 0.08260  0.47400  0.16480  Biso   1.000  H
  C161     1.0000 0.16070  0.50700  0.13940  Biso   1.000  C
  H104     1.0000 0.15700  0.46300  0.12840  Biso   1.000  H
  C162     1.0000 0.16250  0.90970  0.16230  Biso   1.000  C
  H105     1.0000 0.12250  0.93950  0.15490  Biso   1.000  H
  C163     1.0000 0.27000  0.50260  0.09010  Biso   1.000  C
  H106     1.0000 0.23570  0.46080  0.09130  Biso   1.000  H
  C164     1.0000 0.19030  0.92560  0.18750  Biso   1.000  C
  H107     1.0000 0.16760  0.96460  0.19800  Biso   1.000  H
  C165     1.0000 0.45370  0.73870  0.15526  Biso   1.000  C
  C166     1.0000 0.43790  0.59280  0.22445  Biso   1.000  C
  C167     1.0000 0.26550  0.56310  0.10890  Biso   1.000  C
  C168     1.0000 0.17730  0.63770  0.17220  Biso   1.000  C
  H108     1.0000 0.18320  0.67990  0.18400  Biso   1.000  H
  C169     1.0000 0.36970  0.62340  0.08729  Biso   1.000  C
  H109     1.0000 0.40580  0.66380  0.08630  Biso   1.000  H
  C170     1.0000 0.38690  0.64740  0.18139  Biso   1.000  C
  H110     1.0000 0.34260  0.61720  0.18440  Biso   1.000  H
  N19      1.0000 0.31600  0.62570  0.10666  Biso   1.000  N
  N20      1.0000 0.25360  0.80450  0.15726  Biso   1.000  N
  Ir6      1.0000 0.79281  0.21571  0.63308  Biso   1.000  Ir
  O21      1.0000 0.87700  0.05730  0.72862  Biso   1.000  O
  O22      1.0000 0.00020  0.08790  0.73970  Biso   1.000  O
  O23      1.0000 0.86700  0.43310  0.55030  Biso   1.000  O
  O24      1.0000 0.99410  0.41740  0.54202  Biso   1.000  O
  C171     1.0000 0.94720  0.14380  0.69997  Biso   1.000  C
  C172     1.0000 0.78330  0.32490  0.68170  Biso   1.000  C
  H111     1.0000 0.82650  0.29820  0.68830  Biso   1.000  H
  C173     1.0000 0.66410  0.32060  0.62070  Biso   1.000  C
  C174     1.0000 0.94100  0.36920  0.58291  Biso   1.000  C
  C175     1.0000 0.70550  0.25690  0.60900  Biso   1.000  C
  C176     1.0000 0.95190  0.28680  0.63032  Biso   1.000  C
  C177     1.0000 0.68550  0.23070  0.58250  Biso   1.000  C
  H112     1.0000 0.71180  0.18910  0.57450  Biso   1.000  H
  C178     1.0000 0.71150  0.06700  0.63260  Biso   1.000  C
  C179     1.0000 0.75190  0.38390  0.69720  Biso   1.000  C
  H113     1.0000 0.77270  0.39520  0.71420  Biso   1.000  H
  C180     1.0000 0.60380  0.35620  0.60670  Biso   1.000  C
  H114     1.0000 0.57720  0.39830  0.61420  Biso   1.000  H
  C181     1.0000 0.62560  0.07540  0.67930  Biso   1.000  C
  H115     1.0000 0.59740  0.07630  0.69550  Biso   1.000  H
  C182     1.0000 0.00950  0.18910  0.69593  Biso   1.000  C
  H116     1.0000 0.05010  0.18880  0.70850  Biso   1.000  H
  N21      1.0000 0.88970  0.19240  0.65930  Biso   1.000  N
  C183     1.0000 0.87740  0.32810  0.59352  Biso   1.000  C
  H117     1.0000 0.83030  0.32820  0.58410  Biso   1.000  H
  C184     1.0000 0.01510  0.32970  0.62080  Biso   1.000  C
  H118     1.0000 0.06150  0.33070  0.63070  Biso   1.000  H
  C185     1.0000 0.87450  0.06500  0.56890  Biso   1.000  C
  H119     1.0000 0.91240  0.06610  0.55530  Biso   1.000  H
  C186     1.0000 0.71780  0.13580  0.64848  Biso   1.000  C
  N22      1.0000 0.88320  0.28870  0.61701  Biso   1.000  N
  C187     1.0000 0.58430  0.32760  0.58160  Biso   1.000  C
  H120     1.0000 0.54140  0.34870  0.57260  Biso   1.000  H
  C188     1.0000 0.93230  0.41020  0.55593  Biso   1.000  C
  C189     1.0000 0.69420  0.34860  0.64770  Biso   1.000  C
  C190     1.0000 0.01410  0.23600  0.67335  Biso   1.000  C
  H121     1.0000 0.05840  0.26600  0.67040  Biso   1.000  H
  C191     1.0000 0.00920  0.36930  0.59754  Biso   1.000  C
  H122     1.0000 0.05180  0.39730  0.59110  Biso   1.000  H
  C192     1.0000 0.62590  0.26860  0.56880  Biso   1.000  C
  H123     1.0000 0.61360  0.25440  0.55100  Biso   1.000  H
  C193     1.0000 0.82290  0.00390  0.57030  Biso   1.000  C
  H124     1.0000 0.82500  0.96380  0.55760  Biso   1.000  H
  C194     1.0000 0.61890  0.01290  0.66110  Biso   1.000  C
  H125     1.0000 0.58260  0.97400  0.66480  Biso   1.000  H
  C195     1.0000 0.66070  0.00700  0.63940  Biso   1.000  C
  H126     1.0000 0.65700  0.96300  0.62840  Biso   1.000  H
  C196     1.0000 0.66250  0.40970  0.66230  Biso   1.000  C
  H127     1.0000 0.62250  0.43950  0.65490  Biso   1.000  H
  C197     1.0000 0.77000  0.00260  0.59010  Biso   1.000  C
  H128     1.0000 0.73570  0.96080  0.59130  Biso   1.000  H
  C198     1.0000 0.69030  0.42560  0.68750  Biso   1.000  C
  H129     1.0000 0.66760  0.46460  0.69800  Biso   1.000  H
  C199     1.0000 0.95370  0.23870  0.65526  Biso   1.000  C
  C200     1.0000 0.93790  0.09280  0.72445  Biso   1.000  C
  C201     1.0000 0.76550  0.06310  0.60890  Biso   1.000  C
  C202     1.0000 0.67730  0.13770  0.67220  Biso   1.000  C
  H130     1.0000 0.68320  0.17990  0.68400  Biso   1.000  H
  C203     1.0000 0.86970  0.12340  0.58729  Biso   1.000  C
  H131     1.0000 0.90580  0.16380  0.58630  Biso   1.000  H
  C204     1.0000 0.88690  0.14740  0.68139  Biso   1.000  C
  H132     1.0000 0.84260  0.11720  0.68440  Biso   1.000  H
  N23      1.0000 0.81600  0.12570  0.60666  Biso   1.000  N
  N24      1.0000 0.75360  0.30450  0.65726  Biso   1.000  N
  Ir7      1.0000 0.20719  0.78429  0.63308  Biso   1.000  Ir
  O25      1.0000 0.12300  0.94270  0.72862  Biso   1.000  O
  O26      1.0000 0.99980  0.91210  0.73970  Biso   1.000  O
  O27      1.0000 0.13300  0.56690  0.55030  Biso   1.000  O
  O28      1.0000 0.00590  0.58260  0.54202  Biso   1.000  O
  C205     1.0000 0.05280  0.85620  0.69997  Biso   1.000  C
  C206     1.0000 0.21670  0.67510  0.68170  Biso   1.000  C
  H133     1.0000 0.17350  0.70180  0.68830  Biso   1.000  H
  C207     1.0000 0.33590  0.67940  0.62070  Biso   1.000  C
  C208     1.0000 0.05900  0.63080  0.58291  Biso   1.000  C
  C209     1.0000 0.29450  0.74310  0.60900  Biso   1.000  C
  C210     1.0000 0.04810  0.71320  0.63032  Biso   1.000  C
  C211     1.0000 0.31450  0.76930  0.58250  Biso   1.000  C
  H134     1.0000 0.28820  0.81090  0.57450  Biso   1.000  H
  C212     1.0000 0.28850  0.93300  0.63260  Biso   1.000  C
  C213     1.0000 0.24810  0.61610  0.69720  Biso   1.000  C
  H135     1.0000 0.22730  0.60480  0.71420  Biso   1.000  H
  C214     1.0000 0.39620  0.64380  0.60670  Biso   1.000  C
  H136     1.0000 0.42280  0.60170  0.61420  Biso   1.000  H
  C215     1.0000 0.37440  0.92460  0.67930  Biso   1.000  C
  H137     1.0000 0.40260  0.92370  0.69550  Biso   1.000  H
  C216     1.0000 0.99050  0.81090  0.69593  Biso   1.000  C
  H138     1.0000 0.94990  0.81120  0.70850  Biso   1.000  H
  N25      1.0000 0.11030  0.80760  0.65930  Biso   1.000  N
  C217     1.0000 0.12260  0.67190  0.59352  Biso   1.000  C
  H139     1.0000 0.16970  0.67180  0.58410  Biso   1.000  H
  C218     1.0000 0.98490  0.67030  0.62080  Biso   1.000  C
  H140     1.0000 0.93850  0.66930  0.63070  Biso   1.000  H
  C219     1.0000 0.12550  0.93500  0.56890  Biso   1.000  C
  H141     1.0000 0.08760  0.93390  0.55530  Biso   1.000  H
  C220     1.0000 0.28220  0.86420  0.64848  Biso   1.000  C
  N26      1.0000 0.11680  0.71130  0.61701  Biso   1.000  N
  C221     1.0000 0.41570  0.67240  0.58160  Biso   1.000  C
  H142     1.0000 0.45860  0.65130  0.57260  Biso   1.000  H
  C222     1.0000 0.06770  0.58980  0.55593  Biso   1.000  C
  C223     1.0000 0.30580  0.65140  0.64770  Biso   1.000  C
  C224     1.0000 0.98590  0.76400  0.67335  Biso   1.000  C
  H143     1.0000 0.94160  0.73400  0.67040  Biso   1.000  H
  C225     1.0000 0.99080  0.63070  0.59754  Biso   1.000  C
  H144     1.0000 0.94820  0.60270  0.59110  Biso   1.000  H
  C226     1.0000 0.37410  0.73140  0.56880  Biso   1.000  C
  H145     1.0000 0.38640  0.74560  0.55100  Biso   1.000  H
  C227     1.0000 0.17710  0.99610  0.57030  Biso   1.000  C
  H146     1.0000 0.17500  0.03620  0.55760  Biso   1.000  H
  C228     1.0000 0.38110  0.98710  0.66110  Biso   1.000  C
  H147     1.0000 0.41740  0.02600  0.66480  Biso   1.000  H
  C229     1.0000 0.33930  0.99300  0.63940  Biso   1.000  C
  H148     1.0000 0.34300  0.03700  0.62840  Biso   1.000  H
  C230     1.0000 0.33750  0.59030  0.66230  Biso   1.000  C
  H149     1.0000 0.37750  0.56050  0.65490  Biso   1.000  H
  C231     1.0000 0.23000  0.99740  0.59010  Biso   1.000  C
  H150     1.0000 0.26430  0.03920  0.59130  Biso   1.000  H
  C232     1.0000 0.30970  0.57440  0.68750  Biso   1.000  C
  H151     1.0000 0.33240  0.53540  0.69800  Biso   1.000  H
  C233     1.0000 0.04630  0.76130  0.65526  Biso   1.000  C
  C234     1.0000 0.06210  0.90720  0.72445  Biso   1.000  C
  C235     1.0000 0.23450  0.93690  0.60890  Biso   1.000  C
  C236     1.0000 0.32270  0.86230  0.67220  Biso   1.000  C
  H152     1.0000 0.31680  0.82010  0.68400  Biso   1.000  H
  C237     1.0000 0.13030  0.87660  0.58729  Biso   1.000  C
  H153     1.0000 0.09420  0.83620  0.58630  Biso   1.000  H
  C238     1.0000 0.11310  0.85260  0.68139  Biso   1.000  C
  H154     1.0000 0.15740  0.88280  0.68440  Biso   1.000  H
  N27      1.0000 0.18400  0.87430  0.60666  Biso   1.000  N
  N28      1.0000 0.24640  0.69550  0.65726  Biso   1.000  N
  Ir8      1.0000 0.70719  0.28429  0.13308  Biso   1.000  Ir
  O29      1.0000 0.62300  0.44270  0.22862  Biso   1.000  O
  O30      1.0000 0.49980  0.41210  0.23970  Biso   1.000  O
  O31      1.0000 0.63300  0.06690  0.05030  Biso   1.000  O
  O32      1.0000 0.50590  0.08260  0.04202  Biso   1.000  O
  C239     1.0000 0.55280  0.35620  0.19997  Biso   1.000  C
  C240     1.0000 0.71670  0.17510  0.18170  Biso   1.000  C
  H155     1.0000 0.67350  0.20180  0.18830  Biso   1.000  H
  C241     1.0000 0.83590  0.17940  0.12070  Biso   1.000  C
  C242     1.0000 0.55900  0.13080  0.08291  Biso   1.000  C
  C243     1.0000 0.79450  0.24310  0.10900  Biso   1.000  C
  C244     1.0000 0.54810  0.21320  0.13032  Biso   1.000  C
  C245     1.0000 0.81450  0.26930  0.08250  Biso   1.000  C
  H156     1.0000 0.78820  0.31090  0.07450  Biso   1.000  H
  C246     1.0000 0.78850  0.43300  0.13260  Biso   1.000  C
  C247     1.0000 0.74810  0.11610  0.19720  Biso   1.000  C
  H157     1.0000 0.72730  0.10480  0.21420  Biso   1.000  H
  C248     1.0000 0.89620  0.14380  0.10670  Biso   1.000  C
  H158     1.0000 0.92280  0.10170  0.11420  Biso   1.000  H
  C249     1.0000 0.87440  0.42460  0.17930  Biso   1.000  C
  H159     1.0000 0.90260  0.42370  0.19550  Biso   1.000  H
  C250     1.0000 0.49050  0.31090  0.19593  Biso   1.000  C
  H160     1.0000 0.44990  0.31120  0.20850  Biso   1.000  H
  N29      1.0000 0.61030  0.30760  0.15930  Biso   1.000  N
  C251     1.0000 0.62260  0.17190  0.09352  Biso   1.000  C
  H161     1.0000 0.66970  0.17180  0.08410  Biso   1.000  H
  C252     1.0000 0.48490  0.17030  0.12080  Biso   1.000  C
  H162     1.0000 0.43850  0.16930  0.13070  Biso   1.000  H
  C253     1.0000 0.62550  0.43500  0.06890  Biso   1.000  C
  H163     1.0000 0.58760  0.43390  0.05530  Biso   1.000  H
  C254     1.0000 0.78220  0.36420  0.14848  Biso   1.000  C
  N30      1.0000 0.61680  0.21130  0.11701  Biso   1.000  N
  C255     1.0000 0.91570  0.17240  0.08160  Biso   1.000  C
  H164     1.0000 0.95860  0.15130  0.07260  Biso   1.000  H
  C256     1.0000 0.56770  0.08980  0.05593  Biso   1.000  C
  C257     1.0000 0.80580  0.15140  0.14770  Biso   1.000  C
  C258     1.0000 0.48590  0.26400  0.17335  Biso   1.000  C
  H165     1.0000 0.44160  0.23400  0.17040  Biso   1.000  H
  C259     1.0000 0.49080  0.13070  0.09754  Biso   1.000  C
  H166     1.0000 0.44820  0.10270  0.09110  Biso   1.000  H
  C260     1.0000 0.87410  0.23140  0.06880  Biso   1.000  C
  H167     1.0000 0.88640  0.24560  0.05100  Biso   1.000  H
  C261     1.0000 0.67710  0.49610  0.07030  Biso   1.000  C
  H168     1.0000 0.67500  0.53620  0.05760  Biso   1.000  H
  C262     1.0000 0.88110  0.48710  0.16110  Biso   1.000  C
  H169     1.0000 0.91740  0.52600  0.16480  Biso   1.000  H
  C263     1.0000 0.83930  0.49300  0.13940  Biso   1.000  C
  H170     1.0000 0.84300  0.53700  0.12840  Biso   1.000  H
  C264     1.0000 0.83750  0.09030  0.16230  Biso   1.000  C
  H171     1.0000 0.87750  0.06050  0.15490  Biso   1.000  H
  C265     1.0000 0.73000  0.49740  0.09010  Biso   1.000  C
  H172     1.0000 0.76430  0.53920  0.09130  Biso   1.000  H
  C266     1.0000 0.80970  0.07440  0.18750  Biso   1.000  C
  H173     1.0000 0.83240  0.03540  0.19800  Biso   1.000  H
  C267     1.0000 0.54630  0.26130  0.15526  Biso   1.000  C
  C268     1.0000 0.56210  0.40720  0.22445  Biso   1.000  C
  C269     1.0000 0.73450  0.43690  0.10890  Biso   1.000  C
  C270     1.0000 0.82270  0.36230  0.17220  Biso   1.000  C
  H174     1.0000 0.81680  0.32010  0.18400  Biso   1.000  H
  C271     1.0000 0.63030  0.37660  0.08729  Biso   1.000  C
  H175     1.0000 0.59420  0.33620  0.08630  Biso   1.000  H
  C272     1.0000 0.61310  0.35260  0.18139  Biso   1.000  C
  H176     1.0000 0.65740  0.38280  0.18440  Biso   1.000  H
  N31      1.0000 0.68400  0.37430  0.10666  Biso   1.000  N
  N32      1.0000 0.74640  0.19550  0.15726  Biso   1.000  N
  Zn1      1.0000 0.50000  0.50000  0.26488  Biso   1.000  Zn
  Zn2      1.0000 0.00000  0.00000  0.76488  Biso   1.000  Zn
  Zn3      1.0000 0.50000  0.00000  0.01488  Biso   1.000  Zn
  Zn4      1.0000 0.00000  0.50000  0.51488  Biso   1.000  Zn
  Ir9      1.0000 0.29281  0.28429  0.63308  Biso   1.000  Ir
  O33      1.0000 0.37700  0.44270  0.72862  Biso   1.000  O
  O34      1.0000 0.50020  0.41210  0.73970  Biso   1.000  O
  O35      1.0000 0.36700  0.06690  0.55030  Biso   1.000  O
  O36      1.0000 0.49410  0.08260  0.54202  Biso   1.000  O
  C273     1.0000 0.44720  0.35620  0.69997  Biso   1.000  C
  C274     1.0000 0.28330  0.17510  0.68170  Biso   1.000  C
  H177     1.0000 0.32650  0.20180  0.68830  Biso   1.000  H
  C275     1.0000 0.16410  0.17940  0.62070  Biso   1.000  C
  C276     1.0000 0.44100  0.13080  0.58291  Biso   1.000  C
  C277     1.0000 0.20550  0.24310  0.60900  Biso   1.000  C
  C278     1.0000 0.45190  0.21320  0.63032  Biso   1.000  C
  C279     1.0000 0.18550  0.26930  0.58250  Biso   1.000  C
  H178     1.0000 0.21180  0.31090  0.57450  Biso   1.000  H
  C280     1.0000 0.21150  0.43300  0.63260  Biso   1.000  C
  C281     1.0000 0.25190  0.11610  0.69720  Biso   1.000  C
  H179     1.0000 0.27270  0.10480  0.71420  Biso   1.000  H
  C282     1.0000 0.10380  0.14380  0.60670  Biso   1.000  C
  H180     1.0000 0.07720  0.10170  0.61420  Biso   1.000  H
  C283     1.0000 0.12560  0.42460  0.67930  Biso   1.000  C
  H181     1.0000 0.09740  0.42370  0.69550  Biso   1.000  H
  C284     1.0000 0.50950  0.31090  0.69593  Biso   1.000  C
  H182     1.0000 0.55010  0.31120  0.70850  Biso   1.000  H
  N33      1.0000 0.38970  0.30760  0.65930  Biso   1.000  N
  C285     1.0000 0.37740  0.17190  0.59352  Biso   1.000  C
  H183     1.0000 0.33030  0.17180  0.58410  Biso   1.000  H
  C286     1.0000 0.51510  0.17030  0.62080  Biso   1.000  C
  H184     1.0000 0.56150  0.16930  0.63070  Biso   1.000  H
  C287     1.0000 0.37450  0.43500  0.56890  Biso   1.000  C
  H185     1.0000 0.41240  0.43390  0.55530  Biso   1.000  H
  C288     1.0000 0.21780  0.36420  0.64848  Biso   1.000  C
  N34      1.0000 0.38320  0.21130  0.61701  Biso   1.000  N
  C289     1.0000 0.08430  0.17240  0.58160  Biso   1.000  C
  H186     1.0000 0.04140  0.15130  0.57260  Biso   1.000  H
  C290     1.0000 0.43230  0.08980  0.55593  Biso   1.000  C
  C291     1.0000 0.19420  0.15140  0.64770  Biso   1.000  C
  C292     1.0000 0.51410  0.26400  0.67335  Biso   1.000  C
  H187     1.0000 0.55840  0.23400  0.67040  Biso   1.000  H
  C293     1.0000 0.50920  0.13070  0.59754  Biso   1.000  C
  H188     1.0000 0.55180  0.10270  0.59110  Biso   1.000  H
  C294     1.0000 0.12590  0.23140  0.56880  Biso   1.000  C
  H189     1.0000 0.11360  0.24560  0.55100  Biso   1.000  H
  C295     1.0000 0.32290  0.49610  0.57030  Biso   1.000  C
  H190     1.0000 0.32500  0.53620  0.55760  Biso   1.000  H
  C296     1.0000 0.11890  0.48710  0.66110  Biso   1.000  C
  H191     1.0000 0.08260  0.52600  0.66480  Biso   1.000  H
  C297     1.0000 0.16070  0.49300  0.63940  Biso   1.000  C
  H192     1.0000 0.15700  0.53700  0.62840  Biso   1.000  H
  C298     1.0000 0.16250  0.09030  0.66230  Biso   1.000  C
  H193     1.0000 0.12250  0.06050  0.65490  Biso   1.000  H
  C299     1.0000 0.27000  0.49740  0.59010  Biso   1.000  C
  H194     1.0000 0.23570  0.53920  0.59130  Biso   1.000  H
  C300     1.0000 0.19030  0.07440  0.68750  Biso   1.000  C
  H195     1.0000 0.16760  0.03540  0.69800  Biso   1.000  H
  C301     1.0000 0.45370  0.26130  0.65526  Biso   1.000  C
  C302     1.0000 0.43790  0.40720  0.72445  Biso   1.000  C
  C303     1.0000 0.26550  0.43690  0.60890  Biso   1.000  C
  C304     1.0000 0.17730  0.36230  0.67220  Biso   1.000  C
  H196     1.0000 0.18320  0.32010  0.68400  Biso   1.000  H
  C305     1.0000 0.36970  0.37660  0.58729  Biso   1.000  C
  H197     1.0000 0.40580  0.33620  0.58630  Biso   1.000  H
  C306     1.0000 0.38690  0.35260  0.68139  Biso   1.000  C
  H198     1.0000 0.34260  0.38280  0.68440  Biso   1.000  H
  N35      1.0000 0.31600  0.37430  0.60666  Biso   1.000  N
  N36      1.0000 0.25360  0.19550  0.65726  Biso   1.000  N
  Ir10     1.0000 0.79281  0.78429  0.13308  Biso   1.000  Ir
  O37      1.0000 0.87700  0.94270  0.22862  Biso   1.000  O
  O38      1.0000 0.00020  0.91210  0.23970  Biso   1.000  O
  O39      1.0000 0.86700  0.56690  0.05030  Biso   1.000  O
  O40      1.0000 0.99410  0.58260  0.04202  Biso   1.000  O
  C307     1.0000 0.94720  0.85620  0.19997  Biso   1.000  C
  C308     1.0000 0.78330  0.67510  0.18170  Biso   1.000  C
  H199     1.0000 0.82650  0.70180  0.18830  Biso   1.000  H
  C309     1.0000 0.66410  0.67940  0.12070  Biso   1.000  C
  C310     1.0000 0.94100  0.63080  0.08291  Biso   1.000  C
  C311     1.0000 0.70550  0.74310  0.10900  Biso   1.000  C
  C312     1.0000 0.95190  0.71320  0.13032  Biso   1.000  C
  C313     1.0000 0.68550  0.76930  0.08250  Biso   1.000  C
  H200     1.0000 0.71180  0.81090  0.07450  Biso   1.000  H
  C314     1.0000 0.71150  0.93300  0.13260  Biso   1.000  C
  C315     1.0000 0.75190  0.61610  0.19720  Biso   1.000  C
  H201     1.0000 0.77270  0.60480  0.21420  Biso   1.000  H
  C316     1.0000 0.60380  0.64380  0.10670  Biso   1.000  C
  H202     1.0000 0.57720  0.60170  0.11420  Biso   1.000  H
  C317     1.0000 0.62560  0.92460  0.17930  Biso   1.000  C
  H203     1.0000 0.59740  0.92370  0.19550  Biso   1.000  H
  C318     1.0000 0.00950  0.81090  0.19593  Biso   1.000  C
  H204     1.0000 0.05010  0.81120  0.20850  Biso   1.000  H
  N37      1.0000 0.88970  0.80760  0.15930  Biso   1.000  N
  C319     1.0000 0.87740  0.67190  0.09352  Biso   1.000  C
  H205     1.0000 0.83030  0.67180  0.08410  Biso   1.000  H
  C320     1.0000 0.01510  0.67030  0.12080  Biso   1.000  C
  H206     1.0000 0.06150  0.66930  0.13070  Biso   1.000  H
  C321     1.0000 0.87450  0.93500  0.06890  Biso   1.000  C
  H207     1.0000 0.91240  0.93390  0.05530  Biso   1.000  H
  C322     1.0000 0.71780  0.86420  0.14848  Biso   1.000  C
  N38      1.0000 0.88320  0.71130  0.11701  Biso   1.000  N
  C323     1.0000 0.58430  0.67240  0.08160  Biso   1.000  C
  H208     1.0000 0.54140  0.65130  0.07260  Biso   1.000  H
  C324     1.0000 0.93230  0.58980  0.05593  Biso   1.000  C
  C325     1.0000 0.69420  0.65140  0.14770  Biso   1.000  C
  C326     1.0000 0.01410  0.76400  0.17335  Biso   1.000  C
  H209     1.0000 0.05840  0.73400  0.17040  Biso   1.000  H
  C327     1.0000 0.00920  0.63070  0.09754  Biso   1.000  C
  H210     1.0000 0.05180  0.60270  0.09110  Biso   1.000  H
  C328     1.0000 0.62590  0.73140  0.06880  Biso   1.000  C
  H211     1.0000 0.61360  0.74560  0.05100  Biso   1.000  H
  C329     1.0000 0.82290  0.99610  0.07030  Biso   1.000  C
  H212     1.0000 0.82500  0.03620  0.05760  Biso   1.000  H
  C330     1.0000 0.61890  0.98710  0.16110  Biso   1.000  C
  H213     1.0000 0.58260  0.02600  0.16480  Biso   1.000  H
  C331     1.0000 0.66070  0.99300  0.13940  Biso   1.000  C
  H214     1.0000 0.65700  0.03700  0.12840  Biso   1.000  H
  C332     1.0000 0.66250  0.59030  0.16230  Biso   1.000  C
  H215     1.0000 0.62250  0.56050  0.15490  Biso   1.000  H
  C333     1.0000 0.77000  0.99740  0.09010  Biso   1.000  C
  H216     1.0000 0.73570  0.03920  0.09130  Biso   1.000  H
  C334     1.0000 0.69030  0.57440  0.18750  Biso   1.000  C
  H217     1.0000 0.66760  0.53540  0.19800  Biso   1.000  H
  C335     1.0000 0.95370  0.76130  0.15526  Biso   1.000  C
  C336     1.0000 0.93790  0.90720  0.22445  Biso   1.000  C
  C337     1.0000 0.76550  0.93690  0.10890  Biso   1.000  C
  C338     1.0000 0.67730  0.86230  0.17220  Biso   1.000  C
  H218     1.0000 0.68320  0.82010  0.18400  Biso   1.000  H
  C339     1.0000 0.86970  0.87660  0.08729  Biso   1.000  C
  H219     1.0000 0.90580  0.83620  0.08630  Biso   1.000  H
  C340     1.0000 0.88690  0.85260  0.18139  Biso   1.000  C
  H220     1.0000 0.84260  0.88280  0.18440  Biso   1.000  H
  N39      1.0000 0.81600  0.87430  0.10666  Biso   1.000  N
  N40      1.0000 0.75360  0.69550  0.15726  Biso   1.000  N
  Ir11     1.0000 0.20719  0.21571  0.13308  Biso   1.000  Ir
  O41      1.0000 0.12300  0.05730  0.22862  Biso   1.000  O
  O42      1.0000 0.99980  0.08790  0.23970  Biso   1.000  O
  O43      1.0000 0.13300  0.43310  0.05030  Biso   1.000  O
  O44      1.0000 0.00590  0.41740  0.04202  Biso   1.000  O
  C341     1.0000 0.05280  0.14380  0.19997  Biso   1.000  C
  C342     1.0000 0.21670  0.32490  0.18170  Biso   1.000  C
  H221     1.0000 0.17350  0.29820  0.18830  Biso   1.000  H
  C343     1.0000 0.33590  0.32060  0.12070  Biso   1.000  C
  C344     1.0000 0.05900  0.36920  0.08291  Biso   1.000  C
  C345     1.0000 0.29450  0.25690  0.10900  Biso   1.000  C
  C346     1.0000 0.04810  0.28680  0.13032  Biso   1.000  C
  C347     1.0000 0.31450  0.23070  0.08250  Biso   1.000  C
  H222     1.0000 0.28820  0.18910  0.07450  Biso   1.000  H
  C348     1.0000 0.28850  0.06700  0.13260  Biso   1.000  C
  C349     1.0000 0.24810  0.38390  0.19720  Biso   1.000  C
  H223     1.0000 0.22730  0.39520  0.21420  Biso   1.000  H
  C350     1.0000 0.39620  0.35620  0.10670  Biso   1.000  C
  H224     1.0000 0.42280  0.39830  0.11420  Biso   1.000  H
  C351     1.0000 0.37440  0.07540  0.17930  Biso   1.000  C
  H225     1.0000 0.40260  0.07630  0.19550  Biso   1.000  H
  C352     1.0000 0.99050  0.18910  0.19593  Biso   1.000  C
  H226     1.0000 0.94990  0.18880  0.20850  Biso   1.000  H
  N41      1.0000 0.11030  0.19240  0.15930  Biso   1.000  N
  C353     1.0000 0.12260  0.32810  0.09352  Biso   1.000  C
  H227     1.0000 0.16970  0.32820  0.08410  Biso   1.000  H
  C354     1.0000 0.98490  0.32970  0.12080  Biso   1.000  C
  H228     1.0000 0.93850  0.33070  0.13070  Biso   1.000  H
  C355     1.0000 0.12550  0.06500  0.06890  Biso   1.000  C
  H229     1.0000 0.08760  0.06610  0.05530  Biso   1.000  H
  C356     1.0000 0.28220  0.13580  0.14848  Biso   1.000  C
  N42      1.0000 0.11680  0.28870  0.11701  Biso   1.000  N
  C357     1.0000 0.41570  0.32760  0.08160  Biso   1.000  C
  H230     1.0000 0.45860  0.34870  0.07260  Biso   1.000  H
  C358     1.0000 0.06770  0.41020  0.05593  Biso   1.000  C
  C359     1.0000 0.30580  0.34860  0.14770  Biso   1.000  C
  C360     1.0000 0.98590  0.23600  0.17335  Biso   1.000  C
  H231     1.0000 0.94160  0.26600  0.17040  Biso   1.000  H
  C361     1.0000 0.99080  0.36930  0.09754  Biso   1.000  C
  H232     1.0000 0.94820  0.39730  0.09110  Biso   1.000  H
  C362     1.0000 0.37410  0.26860  0.06880  Biso   1.000  C
  H233     1.0000 0.38640  0.25440  0.05100  Biso   1.000  H
  C363     1.0000 0.17710  0.00390  0.07030  Biso   1.000  C
  H234     1.0000 0.17500  0.96380  0.05760  Biso   1.000  H
  C364     1.0000 0.38110  0.01290  0.16110  Biso   1.000  C
  H235     1.0000 0.41740  0.97400  0.16480  Biso   1.000  H
  C365     1.0000 0.33930  0.00700  0.13940  Biso   1.000  C
  H236     1.0000 0.34300  0.96300  0.12840  Biso   1.000  H
  C366     1.0000 0.33750  0.40970  0.16230  Biso   1.000  C
  H237     1.0000 0.37750  0.43950  0.15490  Biso   1.000  H
  C367     1.0000 0.23000  0.00260  0.09010  Biso   1.000  C
  H238     1.0000 0.26430  0.96080  0.09130  Biso   1.000  H
  C368     1.0000 0.30970  0.42560  0.18750  Biso   1.000  C
  H239     1.0000 0.33240  0.46460  0.19800  Biso   1.000  H
  C369     1.0000 0.04630  0.23870  0.15526  Biso   1.000  C
  C370     1.0000 0.06210  0.09280  0.22445  Biso   1.000  C
  C371     1.0000 0.23450  0.06310  0.10890  Biso   1.000  C
  C372     1.0000 0.32270  0.13770  0.17220  Biso   1.000  C
  H240     1.0000 0.31680  0.17990  0.18400  Biso   1.000  H
  C373     1.0000 0.13030  0.12340  0.08729  Biso   1.000  C
  H241     1.0000 0.09420  0.16380  0.08630  Biso   1.000  H
  C374     1.0000 0.11310  0.14740  0.18139  Biso   1.000  C
  H242     1.0000 0.15740  0.11720  0.18440  Biso   1.000  H
  N43      1.0000 0.18400  0.12570  0.10666  Biso   1.000  N
  N44      1.0000 0.24640  0.30450  0.15726  Biso   1.000  N
  Ir12     1.0000 0.70719  0.71571  0.63308  Biso   1.000  Ir
  O45      1.0000 0.62300  0.55730  0.72862  Biso   1.000  O
  O46      1.0000 0.49980  0.58790  0.73970  Biso   1.000  O
  O47      1.0000 0.63300  0.93310  0.55030  Biso   1.000  O
  O48      1.0000 0.50590  0.91740  0.54202  Biso   1.000  O
  C375     1.0000 0.55280  0.64380  0.69997  Biso   1.000  C
  C376     1.0000 0.71670  0.82490  0.68170  Biso   1.000  C
  H243     1.0000 0.67350  0.79820  0.68830  Biso   1.000  H
  C377     1.0000 0.83590  0.82060  0.62070  Biso   1.000  C
  C378     1.0000 0.55900  0.86920  0.58291  Biso   1.000  C
  C379     1.0000 0.79450  0.75690  0.60900  Biso   1.000  C
  C380     1.0000 0.54810  0.78680  0.63032  Biso   1.000  C
  C381     1.0000 0.81450  0.73070  0.58250  Biso   1.000  C
  H244     1.0000 0.78820  0.68910  0.57450  Biso   1.000  H
  C382     1.0000 0.78850  0.56700  0.63260  Biso   1.000  C
  C383     1.0000 0.74810  0.88390  0.69720  Biso   1.000  C
  H245     1.0000 0.72730  0.89520  0.71420  Biso   1.000  H
  C384     1.0000 0.89620  0.85620  0.60670  Biso   1.000  C
  H246     1.0000 0.92280  0.89830  0.61420  Biso   1.000  H
  C385     1.0000 0.87440  0.57540  0.67930  Biso   1.000  C
  H247     1.0000 0.90260  0.57630  0.69550  Biso   1.000  H
  C386     1.0000 0.49050  0.68910  0.69593  Biso   1.000  C
  H248     1.0000 0.44990  0.68880  0.70850  Biso   1.000  H
  N45      1.0000 0.61030  0.69240  0.65930  Biso   1.000  N
  C387     1.0000 0.62260  0.82810  0.59352  Biso   1.000  C
  H249     1.0000 0.66970  0.82820  0.58410  Biso   1.000  H
  C388     1.0000 0.48490  0.82970  0.62080  Biso   1.000  C
  H250     1.0000 0.43850  0.83070  0.63070  Biso   1.000  H
  C389     1.0000 0.62550  0.56500  0.56890  Biso   1.000  C
  H251     1.0000 0.58760  0.56610  0.55530  Biso   1.000  H
  C390     1.0000 0.78220  0.63580  0.64848  Biso   1.000  C
  N46      1.0000 0.61680  0.78870  0.61701  Biso   1.000  N
  C391     1.0000 0.91570  0.82760  0.58160  Biso   1.000  C
  H252     1.0000 0.95860  0.84870  0.57260  Biso   1.000  H
  C392     1.0000 0.56770  0.91020  0.55593  Biso   1.000  C
  C393     1.0000 0.80580  0.84860  0.64770  Biso   1.000  C
  C394     1.0000 0.48590  0.73600  0.67335  Biso   1.000  C
  H253     1.0000 0.44160  0.76600  0.67040  Biso   1.000  H
  C395     1.0000 0.49080  0.86930  0.59754  Biso   1.000  C
  H254     1.0000 0.44820  0.89730  0.59110  Biso   1.000  H
  C396     1.0000 0.87410  0.76860  0.56880  Biso   1.000  C
  H255     1.0000 0.88640  0.75440  0.55100  Biso   1.000  H
  C397     1.0000 0.67710  0.50390  0.57030  Biso   1.000  C
  H256     1.0000 0.67500  0.46380  0.55760  Biso   1.000  H
  C398     1.0000 0.88110  0.51290  0.66110  Biso   1.000  C
  H257     1.0000 0.91740  0.47400  0.66480  Biso   1.000  H
  C399     1.0000 0.83930  0.50700  0.63940  Biso   1.000  C
  H258     1.0000 0.84300  0.46300  0.62840  Biso   1.000  H
  C400     1.0000 0.83750  0.90970  0.66230  Biso   1.000  C
  H259     1.0000 0.87750  0.93950  0.65490  Biso   1.000  H
  C401     1.0000 0.73000  0.50260  0.59010  Biso   1.000  C
  H260     1.0000 0.76430  0.46080  0.59130  Biso   1.000  H
  C402     1.0000 0.80970  0.92560  0.68750  Biso   1.000  C
  H261     1.0000 0.83240  0.96460  0.69800  Biso   1.000  H
  C403     1.0000 0.54630  0.73870  0.65526  Biso   1.000  C
  C404     1.0000 0.56210  0.59280  0.72445  Biso   1.000  C
  C405     1.0000 0.73450  0.56310  0.60890  Biso   1.000  C
  C406     1.0000 0.82270  0.63770  0.67220  Biso   1.000  C
  H262     1.0000 0.81680  0.67990  0.68400  Biso   1.000  H
  C407     1.0000 0.63030  0.62340  0.58729  Biso   1.000  C
  H263     1.0000 0.59420  0.66380  0.58630  Biso   1.000  H
  C408     1.0000 0.61310  0.64740  0.68139  Biso   1.000  C
  H264     1.0000 0.65740  0.61720  0.68440  Biso   1.000  H
  N47      1.0000 0.68400  0.62570  0.60666  Biso   1.000  N
  N48      1.0000 0.74640  0.80450  0.65726  Biso   1.000  N
  Ir13     1.0000 0.78429  0.29281  0.88308  Biso   1.000  Ir
  O49      1.0000 0.94270  0.37700  0.97862  Biso   1.000  O
  O50      1.0000 0.91210  0.50020  0.98970  Biso   1.000  O
  O51      1.0000 0.56690  0.36700  0.80030  Biso   1.000  O
  O52      1.0000 0.58260  0.49410  0.79202  Biso   1.000  O
  C409     1.0000 0.85620  0.44720  0.94997  Biso   1.000  C
  C410     1.0000 0.67510  0.28330  0.93170  Biso   1.000  C
  H265     1.0000 0.70180  0.32650  0.93830  Biso   1.000  H
  C411     1.0000 0.67940  0.16410  0.87070  Biso   1.000  C
  C412     1.0000 0.63080  0.44100  0.83291  Biso   1.000  C
  C413     1.0000 0.74310  0.20550  0.85900  Biso   1.000  C
  C414     1.0000 0.71320  0.45190  0.88032  Biso   1.000  C
  C415     1.0000 0.76930  0.18550  0.83250  Biso   1.000  C
  H266     1.0000 0.81090  0.21180  0.82450  Biso   1.000  H
  C416     1.0000 0.93300  0.21150  0.88260  Biso   1.000  C
  C417     1.0000 0.61610  0.25190  0.94720  Biso   1.000  C
  H267     1.0000 0.60480  0.27270  0.96420  Biso   1.000  H
  C418     1.0000 0.64380  0.10380  0.85670  Biso   1.000  C
  H268     1.0000 0.60170  0.07720  0.86420  Biso   1.000  H
  C419     1.0000 0.92460  0.12560  0.92930  Biso   1.000  C
  H269     1.0000 0.92370  0.09740  0.94550  Biso   1.000  H
  C420     1.0000 0.81090  0.50950  0.94593  Biso   1.000  C
  H270     1.0000 0.81120  0.55010  0.95850  Biso   1.000  H
  N49      1.0000 0.80760  0.38970  0.90930  Biso   1.000  N
  C421     1.0000 0.67190  0.37740  0.84352  Biso   1.000  C
  H271     1.0000 0.67180  0.33030  0.83410  Biso   1.000  H
  C422     1.0000 0.67030  0.51510  0.87080  Biso   1.000  C
  H272     1.0000 0.66930  0.56150  0.88070  Biso   1.000  H
  C423     1.0000 0.93500  0.37450  0.81890  Biso   1.000  C
  H273     1.0000 0.93390  0.41240  0.80530  Biso   1.000  H
  C424     1.0000 0.86420  0.21780  0.89848  Biso   1.000  C
  N50      1.0000 0.71130  0.38320  0.86701  Biso   1.000  N
  C425     1.0000 0.67240  0.08430  0.83160  Biso   1.000  C
  H274     1.0000 0.65130  0.04140  0.82260  Biso   1.000  H
  C426     1.0000 0.58980  0.43230  0.80593  Biso   1.000  C
  C427     1.0000 0.65140  0.19420  0.89770  Biso   1.000  C
  C428     1.0000 0.76400  0.51410  0.92335  Biso   1.000  C
  H275     1.0000 0.73400  0.55840  0.92040  Biso   1.000  H
  C429     1.0000 0.63070  0.50920  0.84754  Biso   1.000  C
  H276     1.0000 0.60270  0.55180  0.84110  Biso   1.000  H
  C430     1.0000 0.73140  0.12590  0.81880  Biso   1.000  C
  H277     1.0000 0.74560  0.11360  0.80100  Biso   1.000  H
  C431     1.0000 0.99610  0.32290  0.82030  Biso   1.000  C
  H278     1.0000 0.03620  0.32500  0.80760  Biso   1.000  H
  C432     1.0000 0.98710  0.11890  0.91110  Biso   1.000  C
  H279     1.0000 0.02600  0.08260  0.91480  Biso   1.000  H
  C433     1.0000 0.99300  0.16070  0.88940  Biso   1.000  C
  H280     1.0000 0.03700  0.15700  0.87840  Biso   1.000  H
  C434     1.0000 0.59030  0.16250  0.91230  Biso   1.000  C
  H281     1.0000 0.56050  0.12250  0.90490  Biso   1.000  H
  C435     1.0000 0.99740  0.27000  0.84010  Biso   1.000  C
  H282     1.0000 0.03920  0.23570  0.84130  Biso   1.000  H
  C436     1.0000 0.57440  0.19030  0.93750  Biso   1.000  C
  H283     1.0000 0.53540  0.16760  0.94800  Biso   1.000  H
  C437     1.0000 0.76130  0.45370  0.90526  Biso   1.000  C
  C438     1.0000 0.90720  0.43790  0.97445  Biso   1.000  C
  C439     1.0000 0.93690  0.26550  0.85890  Biso   1.000  C
  C440     1.0000 0.86230  0.17730  0.92220  Biso   1.000  C
  H284     1.0000 0.82010  0.18320  0.93400  Biso   1.000  H
  C441     1.0000 0.87660  0.36970  0.83729  Biso   1.000  C
  H285     1.0000 0.83620  0.40580  0.83630  Biso   1.000  H
  C442     1.0000 0.85260  0.38690  0.93139  Biso   1.000  C
  H286     1.0000 0.88280  0.34260  0.93440  Biso   1.000  H
  N51      1.0000 0.87430  0.31600  0.85666  Biso   1.000  N
  N52      1.0000 0.69550  0.25360  0.90726  Biso   1.000  N
  Ir14     1.0000 0.28429  0.79281  0.38308  Biso   1.000  Ir
  O53      1.0000 0.44270  0.87700  0.47862  Biso   1.000  O
  O54      1.0000 0.41210  0.00020  0.48970  Biso   1.000  O
  O55      1.0000 0.06690  0.86700  0.30030  Biso   1.000  O
  O56      1.0000 0.08260  0.99410  0.29202  Biso   1.000  O
  C443     1.0000 0.35620  0.94720  0.44997  Biso   1.000  C
  C444     1.0000 0.17510  0.78330  0.43170  Biso   1.000  C
  H287     1.0000 0.20180  0.82650  0.43830  Biso   1.000  H
  C445     1.0000 0.17940  0.66410  0.37070  Biso   1.000  C
  C446     1.0000 0.13080  0.94100  0.33291  Biso   1.000  C
  C447     1.0000 0.24310  0.70550  0.35900  Biso   1.000  C
  C448     1.0000 0.21320  0.95190  0.38032  Biso   1.000  C
  C449     1.0000 0.26930  0.68550  0.33250  Biso   1.000  C
  H288     1.0000 0.31090  0.71180  0.32450  Biso   1.000  H
  C450     1.0000 0.43300  0.71150  0.38260  Biso   1.000  C
  C451     1.0000 0.11610  0.75190  0.44720  Biso   1.000  C
  H289     1.0000 0.10480  0.77270  0.46420  Biso   1.000  H
  C452     1.0000 0.14380  0.60380  0.35670  Biso   1.000  C
  H290     1.0000 0.10170  0.57720  0.36420  Biso   1.000  H
  C453     1.0000 0.42460  0.62560  0.42930  Biso   1.000  C
  H291     1.0000 0.42370  0.59740  0.44550  Biso   1.000  H
  C454     1.0000 0.31090  0.00950  0.44593  Biso   1.000  C
  H292     1.0000 0.31120  0.05010  0.45850  Biso   1.000  H
  N53      1.0000 0.30760  0.88970  0.40930  Biso   1.000  N
  C455     1.0000 0.17190  0.87740  0.34352  Biso   1.000  C
  H293     1.0000 0.17180  0.83030  0.33410  Biso   1.000  H
  C456     1.0000 0.17030  0.01510  0.37080  Biso   1.000  C
  H294     1.0000 0.16930  0.06150  0.38070  Biso   1.000  H
  C457     1.0000 0.43500  0.87450  0.31890  Biso   1.000  C
  H295     1.0000 0.43390  0.91240  0.30530  Biso   1.000  H
  C458     1.0000 0.36420  0.71780  0.39848  Biso   1.000  C
  N54      1.0000 0.21130  0.88320  0.36701  Biso   1.000  N
  C459     1.0000 0.17240  0.58430  0.33160  Biso   1.000  C
  H296     1.0000 0.15130  0.54140  0.32260  Biso   1.000  H
  C460     1.0000 0.08980  0.93230  0.30593  Biso   1.000  C
  C461     1.0000 0.15140  0.69420  0.39770  Biso   1.000  C
  C462     1.0000 0.26400  0.01410  0.42335  Biso   1.000  C
  H297     1.0000 0.23400  0.05840  0.42040  Biso   1.000  H
  C463     1.0000 0.13070  0.00920  0.34754  Biso   1.000  C
  H298     1.0000 0.10270  0.05180  0.34110  Biso   1.000  H
  C464     1.0000 0.23140  0.62590  0.31880  Biso   1.000  C
  H299     1.0000 0.24560  0.61360  0.30100  Biso   1.000  H
  C465     1.0000 0.49610  0.82290  0.32030  Biso   1.000  C
  H300     1.0000 0.53620  0.82500  0.30760  Biso   1.000  H
  C466     1.0000 0.48710  0.61890  0.41110  Biso   1.000  C
  H301     1.0000 0.52600  0.58260  0.41480  Biso   1.000  H
  C467     1.0000 0.49300  0.66070  0.38940  Biso   1.000  C
  H302     1.0000 0.53700  0.65700  0.37840  Biso   1.000  H
  C468     1.0000 0.09030  0.66250  0.41230  Biso   1.000  C
  H303     1.0000 0.06050  0.62250  0.40490  Biso   1.000  H
  C469     1.0000 0.49740  0.77000  0.34010  Biso   1.000  C
  H304     1.0000 0.53920  0.73570  0.34130  Biso   1.000  H
  C470     1.0000 0.07440  0.69030  0.43750  Biso   1.000  C
  H305     1.0000 0.03540  0.66760  0.44800  Biso   1.000  H
  C471     1.0000 0.26130  0.95370  0.40526  Biso   1.000  C
  C472     1.0000 0.40720  0.93790  0.47445  Biso   1.000  C
  C473     1.0000 0.43690  0.76550  0.35890  Biso   1.000  C
  C474     1.0000 0.36230  0.67730  0.42220  Biso   1.000  C
  H306     1.0000 0.32010  0.68320  0.43400  Biso   1.000  H
  C475     1.0000 0.37660  0.86970  0.33729  Biso   1.000  C
  H307     1.0000 0.33620  0.90580  0.33630  Biso   1.000  H
  C476     1.0000 0.35260  0.88690  0.43139  Biso   1.000  C
  H308     1.0000 0.38280  0.84260  0.43440  Biso   1.000  H
  N55      1.0000 0.37430  0.81600  0.35666  Biso   1.000  N
  N56      1.0000 0.19550  0.75360  0.40726  Biso   1.000  N
  Ir15     1.0000 0.71571  0.20719  0.38308  Biso   1.000  Ir
  O57      1.0000 0.55730  0.12300  0.47862  Biso   1.000  O
  O58      1.0000 0.58790  0.99980  0.48970  Biso   1.000  O
  O59      1.0000 0.93310  0.13300  0.30030  Biso   1.000  O
  O60      1.0000 0.91740  0.00590  0.29202  Biso   1.000  O
  C477     1.0000 0.64380  0.05280  0.44997  Biso   1.000  C
  C478     1.0000 0.82490  0.21670  0.43170  Biso   1.000  C
  H309     1.0000 0.79820  0.17350  0.43830  Biso   1.000  H
  C479     1.0000 0.82060  0.33590  0.37070  Biso   1.000  C
  C480     1.0000 0.86920  0.05900  0.33291  Biso   1.000  C
  C481     1.0000 0.75690  0.29450  0.35900  Biso   1.000  C
  C482     1.0000 0.78680  0.04810  0.38032  Biso   1.000  C
  C483     1.0000 0.73070  0.31450  0.33250  Biso   1.000  C
  H310     1.0000 0.68910  0.28820  0.32450  Biso   1.000  H
  C484     1.0000 0.56700  0.28850  0.38260  Biso   1.000  C
  C485     1.0000 0.88390  0.24810  0.44720  Biso   1.000  C
  H311     1.0000 0.89520  0.22730  0.46420  Biso   1.000  H
  C486     1.0000 0.85620  0.39620  0.35670  Biso   1.000  C
  H312     1.0000 0.89830  0.42280  0.36420  Biso   1.000  H
  C487     1.0000 0.57540  0.37440  0.42930  Biso   1.000  C
  H313     1.0000 0.57630  0.40260  0.44550  Biso   1.000  H
  C488     1.0000 0.68910  0.99050  0.44593  Biso   1.000  C
  H314     1.0000 0.68880  0.94990  0.45850  Biso   1.000  H
  N57      1.0000 0.69240  0.11030  0.40930  Biso   1.000  N
  C489     1.0000 0.82810  0.12260  0.34352  Biso   1.000  C
  H315     1.0000 0.82820  0.16970  0.33410  Biso   1.000  H
  C490     1.0000 0.82970  0.98490  0.37080  Biso   1.000  C
  H316     1.0000 0.83070  0.93850  0.38070  Biso   1.000  H
  C491     1.0000 0.56500  0.12550  0.31890  Biso   1.000  C
  H317     1.0000 0.56610  0.08760  0.30530  Biso   1.000  H
  C492     1.0000 0.63580  0.28220  0.39848  Biso   1.000  C
  N58      1.0000 0.78870  0.11680  0.36701  Biso   1.000  N
  C493     1.0000 0.82760  0.41570  0.33160  Biso   1.000  C
  H318     1.0000 0.84870  0.45860  0.32260  Biso   1.000  H
  C494     1.0000 0.91020  0.06770  0.30593  Biso   1.000  C
  C495     1.0000 0.84860  0.30580  0.39770  Biso   1.000  C
  C496     1.0000 0.73600  0.98590  0.42335  Biso   1.000  C
  H319     1.0000 0.76600  0.94160  0.42040  Biso   1.000  H
  C497     1.0000 0.86930  0.99080  0.34754  Biso   1.000  C
  H320     1.0000 0.89730  0.94820  0.34110  Biso   1.000  H
  C498     1.0000 0.76860  0.37410  0.31880  Biso   1.000  C
  H321     1.0000 0.75440  0.38640  0.30100  Biso   1.000  H
  C499     1.0000 0.50390  0.17710  0.32030  Biso   1.000  C
  H322     1.0000 0.46380  0.17500  0.30760  Biso   1.000  H
  C500     1.0000 0.51290  0.38110  0.41110  Biso   1.000  C
  H323     1.0000 0.47400  0.41740  0.41480  Biso   1.000  H
  C501     1.0000 0.50700  0.33930  0.38940  Biso   1.000  C
  H324     1.0000 0.46300  0.34300  0.37840  Biso   1.000  H
  C502     1.0000 0.90970  0.33750  0.41230  Biso   1.000  C
  H325     1.0000 0.93950  0.37750  0.40490  Biso   1.000  H
  C503     1.0000 0.50260  0.23000  0.34010  Biso   1.000  C
  H326     1.0000 0.46080  0.26430  0.34130  Biso   1.000  H
  C504     1.0000 0.92560  0.30970  0.43750  Biso   1.000  C
  H327     1.0000 0.96460  0.33240  0.44800  Biso   1.000  H
  C505     1.0000 0.73870  0.04630  0.40526  Biso   1.000  C
  C506     1.0000 0.59280  0.06210  0.47445  Biso   1.000  C
  C507     1.0000 0.56310  0.23450  0.35890  Biso   1.000  C
  C508     1.0000 0.63770  0.32270  0.42220  Biso   1.000  C
  H328     1.0000 0.67990  0.31680  0.43400  Biso   1.000  H
  C509     1.0000 0.62340  0.13030  0.33729  Biso   1.000  C
  H329     1.0000 0.66380  0.09420  0.33630  Biso   1.000  H
  C510     1.0000 0.64740  0.11310  0.43139  Biso   1.000  C
  H330     1.0000 0.61720  0.15740  0.43440  Biso   1.000  H
  N59      1.0000 0.62570  0.18400  0.35666  Biso   1.000  N
  N60      1.0000 0.80450  0.24640  0.40726  Biso   1.000  N
  Ir16     1.0000 0.21571  0.70719  0.88308  Biso   1.000  Ir
  O61      1.0000 0.05730  0.62300  0.97862  Biso   1.000  O
  O62      1.0000 0.08790  0.49980  0.98970  Biso   1.000  O
  O63      1.0000 0.43310  0.63300  0.80030  Biso   1.000  O
  O64      1.0000 0.41740  0.50590  0.79202  Biso   1.000  O
  C511     1.0000 0.14380  0.55280  0.94997  Biso   1.000  C
  C512     1.0000 0.32490  0.71670  0.93170  Biso   1.000  C
  H331     1.0000 0.29820  0.67350  0.93830  Biso   1.000  H
  C513     1.0000 0.32060  0.83590  0.87070  Biso   1.000  C
  C514     1.0000 0.36920  0.55900  0.83291  Biso   1.000  C
  C515     1.0000 0.25690  0.79450  0.85900  Biso   1.000  C
  C516     1.0000 0.28680  0.54810  0.88032  Biso   1.000  C
  C517     1.0000 0.23070  0.81450  0.83250  Biso   1.000  C
  H332     1.0000 0.18910  0.78820  0.82450  Biso   1.000  H
  C518     1.0000 0.06700  0.78850  0.88260  Biso   1.000  C
  C519     1.0000 0.38390  0.74810  0.94720  Biso   1.000  C
  H333     1.0000 0.39520  0.72730  0.96420  Biso   1.000  H
  C520     1.0000 0.35620  0.89620  0.85670  Biso   1.000  C
  H334     1.0000 0.39830  0.92280  0.86420  Biso   1.000  H
  C521     1.0000 0.07540  0.87440  0.92930  Biso   1.000  C
  H335     1.0000 0.07630  0.90260  0.94550  Biso   1.000  H
  C522     1.0000 0.18910  0.49050  0.94593  Biso   1.000  C
  H336     1.0000 0.18880  0.44990  0.95850  Biso   1.000  H
  N61      1.0000 0.19240  0.61030  0.90930  Biso   1.000  N
  C523     1.0000 0.32810  0.62260  0.84352  Biso   1.000  C
  H337     1.0000 0.32820  0.66970  0.83410  Biso   1.000  H
  C524     1.0000 0.32970  0.48490  0.87080  Biso   1.000  C
  H338     1.0000 0.33070  0.43850  0.88070  Biso   1.000  H
  C525     1.0000 0.06500  0.62550  0.81890  Biso   1.000  C
  H339     1.0000 0.06610  0.58760  0.80530  Biso   1.000  H
  C526     1.0000 0.13580  0.78220  0.89848  Biso   1.000  C
  N62      1.0000 0.28870  0.61680  0.86701  Biso   1.000  N
  C527     1.0000 0.32760  0.91570  0.83160  Biso   1.000  C
  H340     1.0000 0.34870  0.95860  0.82260  Biso   1.000  H
  C528     1.0000 0.41020  0.56770  0.80593  Biso   1.000  C
  C529     1.0000 0.34860  0.80580  0.89770  Biso   1.000  C
  C530     1.0000 0.23600  0.48590  0.92335  Biso   1.000  C
  H341     1.0000 0.26600  0.44160  0.92040  Biso   1.000  H
  C531     1.0000 0.36930  0.49080  0.84754  Biso   1.000  C
  H342     1.0000 0.39730  0.44820  0.84110  Biso   1.000  H
  C532     1.0000 0.26860  0.87410  0.81880  Biso   1.000  C
  H343     1.0000 0.25440  0.88640  0.80100  Biso   1.000  H
  C533     1.0000 0.00390  0.67710  0.82030  Biso   1.000  C
  H344     1.0000 0.96380  0.67500  0.80760  Biso   1.000  H
  C534     1.0000 0.01290  0.88110  0.91110  Biso   1.000  C
  H345     1.0000 0.97400  0.91740  0.91480  Biso   1.000  H
  C535     1.0000 0.00700  0.83930  0.88940  Biso   1.000  C
  H346     1.0000 0.96300  0.84300  0.87840  Biso   1.000  H
  C536     1.0000 0.40970  0.83750  0.91230  Biso   1.000  C
  H347     1.0000 0.43950  0.87750  0.90490  Biso   1.000  H
  C537     1.0000 0.00260  0.73000  0.84010  Biso   1.000  C
  H348     1.0000 0.96080  0.76430  0.84130  Biso   1.000  H
  C538     1.0000 0.42560  0.80970  0.93750  Biso   1.000  C
  H349     1.0000 0.46460  0.83240  0.94800  Biso   1.000  H
  C539     1.0000 0.23870  0.54630  0.90526  Biso   1.000  C
  C540     1.0000 0.09280  0.56210  0.97445  Biso   1.000  C
  C541     1.0000 0.06310  0.73450  0.85890  Biso   1.000  C
  C542     1.0000 0.13770  0.82270  0.92220  Biso   1.000  C
  H350     1.0000 0.17990  0.81680  0.93400  Biso   1.000  H
  C543     1.0000 0.12340  0.63030  0.83729  Biso   1.000  C
  H351     1.0000 0.16380  0.59420  0.83630  Biso   1.000  H
  C544     1.0000 0.14740  0.61310  0.93139  Biso   1.000  C
  H352     1.0000 0.11720  0.65740  0.93440  Biso   1.000  H
  N63      1.0000 0.12570  0.68400  0.85666  Biso   1.000  N
  N64      1.0000 0.30450  0.74640  0.90726  Biso   1.000  N
  Zn5      1.0000 0.50000  0.00000  0.51488  Biso   1.000  Zn
  Zn6      1.0000 0.00000  0.50000  0.01488  Biso   1.000  Zn
  Zn7      1.0000 0.50000  0.50000  0.76488  Biso   1.000  Zn
  Zn8      1.0000 0.00000  0.00000  0.26488  Biso   1.000  Zn
