data_image0
_cell_length_a       28.519
_cell_length_b       13.8219
_cell_length_c       44.097
_cell_angle_alpha    90
_cell_angle_beta     90
_cell_angle_gamma    90

_symmetry_space_group_name_H-M    "P 1"
_symmetry_int_tables_number       1

loop_
  _symmetry_equiv_pos_as_xyz
  'x, y, z'

loop_
  _atom_site_label
  _atom_site_occupancy
  _atom_site_fract_x
  _atom_site_fract_y
  _atom_site_fract_z
  _atom_site_thermal_displace_type
  _atom_site_B_iso_or_equiv
  _atom_site_type_symbol
  C1       1.0000 0.04340  0.01730  0.54610  Biso   1.000  C
  H1       1.0000 0.03220  0.05620  0.56230  Biso   1.000  H
  C2       1.0000 0.05210  0.06090  0.51870  Biso   1.000  C
  H2       1.0000 0.04780  0.12860  0.51630  Biso   1.000  H
  C3       1.0000 0.06730  0.00410  0.49440  Biso   1.000  C
  C4       1.0000 0.07190  0.90490  0.49910  Biso   1.000  C
  H3       1.0000 0.08150  0.86350  0.48310  Biso   1.000  H
  C5       1.0000 0.06230  0.86770  0.52740  Biso   1.000  C
  H4       1.0000 0.06470  0.79970  0.53020  Biso   1.000  H
  C6       1.0000 0.08020  0.04990  0.46540  Biso   1.000  C
  C7       1.0000 0.08610  0.18240  0.43640  Biso   1.000  C
  C8       1.0000 0.11810  0.04340  0.42070  Biso   1.000  C
  C9       1.0000 0.07320  0.28540  0.43070  Biso   1.000  C
  C10      1.0000 0.04920  0.33940  0.45260  Biso   1.000  C
  H5       1.0000 0.04180  0.31200  0.47180  Biso   1.000  H
  C11      1.0000 0.03650  0.43410  0.44570  Biso   1.000  C
  H6       1.0000 0.02050  0.47100  0.46070  Biso   1.000  H
  C12      1.0000 0.06930  0.42330  0.39900  Biso   1.000  C
  H7       1.0000 0.07710  0.45340  0.38030  Biso   1.000  H
  C13      1.0000 0.08330  0.32950  0.40320  Biso   1.000  C
  H8       1.0000 0.09950  0.29550  0.38760  Biso   1.000  H
  C14      1.0000 0.14350  0.98720  0.39720  Biso   1.000  C
  C15      1.0000 0.16610  0.03120  0.37360  Biso   1.000  C
  H9       1.0000 0.16450  0.09950  0.37130  Biso   1.000  H
  C16      1.0000 0.19090  0.97700  0.35330  Biso   1.000  C
  H10      1.0000 0.20700  0.00930  0.33740  Biso   1.000  H
  C17      1.0000 0.17040  0.83660  0.37710  Biso   1.000  C
  H11      1.0000 0.17110  0.76800  0.37810  Biso   1.000  H
  C18      1.0000 0.14540  0.88700  0.39890  Biso   1.000  C
  H12      1.0000 0.12980  0.85350  0.41480  Biso   1.000  H
  C19      1.0000 0.31380  0.11200  0.77320  Biso   1.000  C
  H13      1.0000 0.34110  0.13000  0.78410  Biso   1.000  H
  C20      1.0000 0.31910  0.07670  0.74410  Biso   1.000  C
  H14      1.0000 0.34940  0.07020  0.73540  Biso   1.000  H
  C21      1.0000 0.28020  0.05130  0.72792  Biso   1.000  C
  C22      1.0000 0.23650  0.05850  0.74203  Biso   1.000  C
  H15      1.0000 0.20890  0.04030  0.73150  Biso   1.000  H
  C23      1.0000 0.23380  0.09260  0.77150  Biso   1.000  C
  H16      1.0000 0.20410  0.09500  0.78130  Biso   1.000  H
  C24      1.0000 0.28250  0.02070  0.69589  Biso   1.000  C
  C25      1.0000 0.32320  0.98270  0.65396  Biso   1.000  C
  C26      1.0000 0.24410  0.98440  0.65215  Biso   1.000  C
  C27      1.0000 0.36880  0.96710  0.63839  Biso   1.000  C
  C28      1.0000 0.41090  0.97870  0.65370  Biso   1.000  C
  H17      1.0000 0.41120  0.00020  0.67410  Biso   1.000  H
  C29      1.0000 0.45230  0.95860  0.63880  Biso   1.000  C
  H18      1.0000 0.48090  0.96590  0.64960  Biso   1.000  H
  C30      1.0000 0.41340  0.92080  0.59480  Biso   1.000  C
  H19      1.0000 0.41440  0.90160  0.57410  Biso   1.000  H
  C31      1.0000 0.37010  0.93890  0.60811  Biso   1.000  C
  H20      1.0000 0.34200  0.93220  0.59680  Biso   1.000  H
  C32      1.0000 0.19930  0.96770  0.63610  Biso   1.000  C
  C33      1.0000 0.19690  0.93620  0.60670  Biso   1.000  C
  H21      1.0000 0.22450  0.92860  0.59490  Biso   1.000  H
  C34      1.0000 0.15310  0.91580  0.59480  Biso   1.000  C
  H22      1.0000 0.15150  0.89200  0.57460  Biso   1.000  H
  C35      1.0000 0.11570  0.96360  0.63790  Biso   1.000  C
  H23      1.0000 0.08730  0.97640  0.64840  Biso   1.000  H
  C36      1.0000 0.15760  0.98300  0.65210  Biso   1.000  C
  H24      1.0000 0.15820  0.00630  0.67240  Biso   1.000  H
  N1       1.0000 0.04990  0.92240  0.55107  Biso   1.000  N
  N2       1.0000 0.06970  0.14380  0.46181  Biso   1.000  N
  N3       1.0000 0.11120  0.13720  0.41542  Biso   1.000  N
  N4       1.0000 0.10280  0.99520  0.44499  Biso   1.000  N
  N5       1.0000 0.04580  0.47520  0.41915  Biso   1.000  N
  N6       1.0000 0.19370  0.88090  0.35490  Biso   1.000  N
  N7       1.0000 0.27190  0.12200  0.78662  Biso   1.000  N
  N8       1.0000 0.32410  0.00790  0.68328  Biso   1.000  N
  N9       1.0000 0.28410  0.97080  0.63700  Biso   1.000  N
  N10      1.0000 0.24120  0.01010  0.68134  Biso   1.000  N
  N11      1.0000 0.45400  0.92940  0.61012  Biso   1.000  N
  N12      1.0000 0.11350  0.92740  0.60984  Biso   1.000  N
  I1       1.0000 0.98705  0.96172  0.62480  Biso   1.000  I
  I2       1.0000 0.06356  0.69114  0.59380  Biso   1.000  I
  I3       1.0000 0.20059  0.63388  0.31867  Biso   1.000  I
  I4       1.0000 0.32020  0.81438  0.34374  Biso   1.000  I
  I5       1.0000 0.06402  0.68340  0.36593  Biso   1.000  I
  I6       1.0000 0.00176  0.69499  0.45922  Biso   1.000  I
  Zn1      1.0000 0.04950  0.87228  0.59502  Biso   1.000  Zn
  Zn2      1.0000 0.23548  0.80157  0.32644  Biso   1.000  Zn
  Zn3      1.0000 0.01788  0.60843  0.40890  Biso   1.000  Zn
  C37      1.0000 0.45660  0.98270  0.04610  Biso   1.000  C
  H25      1.0000 0.46780  0.94380  0.06230  Biso   1.000  H
  C38      1.0000 0.44790  0.93910  0.01870  Biso   1.000  C
  H26      1.0000 0.45220  0.87140  0.01630  Biso   1.000  H
  C39      1.0000 0.43270  0.99590  0.99440  Biso   1.000  C
  C40      1.0000 0.42810  0.09510  0.99910  Biso   1.000  C
  H27      1.0000 0.41850  0.13650  0.98310  Biso   1.000  H
  C41      1.0000 0.43770  0.13230  0.02740  Biso   1.000  C
  H28      1.0000 0.43530  0.20030  0.03020  Biso   1.000  H
  C42      1.0000 0.41980  0.95010  0.96540  Biso   1.000  C
  C43      1.0000 0.41390  0.81760  0.93640  Biso   1.000  C
  C44      1.0000 0.38190  0.95660  0.92070  Biso   1.000  C
  C45      1.0000 0.42680  0.71460  0.93070  Biso   1.000  C
  C46      1.0000 0.45080  0.66060  0.95260  Biso   1.000  C
  H29      1.0000 0.45820  0.68800  0.97180  Biso   1.000  H
  C47      1.0000 0.46350  0.56590  0.94570  Biso   1.000  C
  H30      1.0000 0.47950  0.52900  0.96070  Biso   1.000  H
  C48      1.0000 0.43070  0.57670  0.89900  Biso   1.000  C
  H31      1.0000 0.42290  0.54660  0.88030  Biso   1.000  H
  C49      1.0000 0.41670  0.67050  0.90320  Biso   1.000  C
  H32      1.0000 0.40050  0.70450  0.88760  Biso   1.000  H
  C50      1.0000 0.35650  0.01280  0.89720  Biso   1.000  C
  C51      1.0000 0.33390  0.96880  0.87360  Biso   1.000  C
  H33      1.0000 0.33550  0.90050  0.87130  Biso   1.000  H
  C52      1.0000 0.30910  0.02300  0.85330  Biso   1.000  C
  H34      1.0000 0.29300  0.99070  0.83740  Biso   1.000  H
  C53      1.0000 0.32960  0.16340  0.87710  Biso   1.000  C
  H35      1.0000 0.32890  0.23200  0.87810  Biso   1.000  H
  C54      1.0000 0.35460  0.11300  0.89890  Biso   1.000  C
  H36      1.0000 0.37020  0.14650  0.91480  Biso   1.000  H
  C55      1.0000 0.18620  0.88800  0.27320  Biso   1.000  C
  H37      1.0000 0.15890  0.87000  0.28410  Biso   1.000  H
  C56      1.0000 0.18090  0.92330  0.24410  Biso   1.000  C
  H38      1.0000 0.15060  0.92980  0.23540  Biso   1.000  H
  C57      1.0000 0.21980  0.94870  0.22792  Biso   1.000  C
  C58      1.0000 0.26350  0.94150  0.24203  Biso   1.000  C
  H39      1.0000 0.29110  0.95970  0.23150  Biso   1.000  H
  C59      1.0000 0.26620  0.90740  0.27150  Biso   1.000  C
  H40      1.0000 0.29590  0.90500  0.28130  Biso   1.000  H
  C60      1.0000 0.21750  0.97930  0.19589  Biso   1.000  C
  C61      1.0000 0.17680  0.01730  0.15396  Biso   1.000  C
  C62      1.0000 0.25590  0.01560  0.15215  Biso   1.000  C
  C63      1.0000 0.13120  0.03290  0.13839  Biso   1.000  C
  C64      1.0000 0.08910  0.02130  0.15370  Biso   1.000  C
  H41      1.0000 0.08880  0.99980  0.17410  Biso   1.000  H
  C65      1.0000 0.04770  0.04140  0.13880  Biso   1.000  C
  H42      1.0000 0.01910  0.03410  0.14960  Biso   1.000  H
  C66      1.0000 0.08660  0.07920  0.09480  Biso   1.000  C
  H43      1.0000 0.08560  0.09840  0.07410  Biso   1.000  H
  C67      1.0000 0.12990  0.06110  0.10811  Biso   1.000  C
  H44      1.0000 0.15800  0.06780  0.09680  Biso   1.000  H
  C68      1.0000 0.30070  0.03230  0.13610  Biso   1.000  C
  C69      1.0000 0.30310  0.06380  0.10670  Biso   1.000  C
  H45      1.0000 0.27550  0.07140  0.09490  Biso   1.000  H
  C70      1.0000 0.34690  0.08420  0.09480  Biso   1.000  C
  H46      1.0000 0.34850  0.10800  0.07460  Biso   1.000  H
  C71      1.0000 0.38430  0.03640  0.13790  Biso   1.000  C
  H47      1.0000 0.41270  0.02360  0.14840  Biso   1.000  H
  C72      1.0000 0.34240  0.01700  0.15210  Biso   1.000  C
  H48      1.0000 0.34180  0.99370  0.17240  Biso   1.000  H
  N13      1.0000 0.45010  0.07760  0.05107  Biso   1.000  N
  N14      1.0000 0.43030  0.85620  0.96181  Biso   1.000  N
  N15      1.0000 0.38880  0.86280  0.91542  Biso   1.000  N
  N16      1.0000 0.39720  0.00480  0.94499  Biso   1.000  N
  N17      1.0000 0.45420  0.52480  0.91915  Biso   1.000  N
  N18      1.0000 0.30630  0.11910  0.85490  Biso   1.000  N
  N19      1.0000 0.22810  0.87800  0.28662  Biso   1.000  N
  N20      1.0000 0.17590  0.99210  0.18328  Biso   1.000  N
  N21      1.0000 0.21590  0.02920  0.13700  Biso   1.000  N
  N22      1.0000 0.25880  0.98990  0.18134  Biso   1.000  N
  N23      1.0000 0.04600  0.07060  0.11012  Biso   1.000  N
  N24      1.0000 0.38650  0.07260  0.10984  Biso   1.000  N
  I7       1.0000 0.51295  0.03828  0.12480  Biso   1.000  I
  I8       1.0000 0.43644  0.30886  0.09380  Biso   1.000  I
  I9       1.0000 0.29941  0.36612  0.81867  Biso   1.000  I
  I10      1.0000 0.17980  0.18562  0.84374  Biso   1.000  I
  I11      1.0000 0.43598  0.31660  0.86593  Biso   1.000  I
  I12      1.0000 0.49824  0.30501  0.95922  Biso   1.000  I
  Zn4      1.0000 0.45050  0.12772  0.09502  Biso   1.000  Zn
  Zn5      1.0000 0.26452  0.19843  0.82644  Biso   1.000  Zn
  Zn6      1.0000 0.48212  0.39157  0.90890  Biso   1.000  Zn
  C73      1.0000 0.95660  0.51730  0.95390  Biso   1.000  C
  H49      1.0000 0.96780  0.55620  0.93770  Biso   1.000  H
  C74      1.0000 0.94790  0.56090  0.98130  Biso   1.000  C
  H50      1.0000 0.95220  0.62860  0.98370  Biso   1.000  H
  C75      1.0000 0.93270  0.50410  0.00560  Biso   1.000  C
  C76      1.0000 0.92810  0.40490  0.00090  Biso   1.000  C
  H51      1.0000 0.91850  0.36350  0.01690  Biso   1.000  H
  C77      1.0000 0.93770  0.36770  0.97260  Biso   1.000  C
  H52      1.0000 0.93530  0.29970  0.96980  Biso   1.000  H
  C78      1.0000 0.91980  0.54990  0.03460  Biso   1.000  C
  C79      1.0000 0.91390  0.68240  0.06360  Biso   1.000  C
  C80      1.0000 0.88190  0.54340  0.07930  Biso   1.000  C
  C81      1.0000 0.92680  0.78540  0.06930  Biso   1.000  C
  C82      1.0000 0.95080  0.83940  0.04740  Biso   1.000  C
  H53      1.0000 0.95820  0.81200  0.02820  Biso   1.000  H
  C83      1.0000 0.96350  0.93410  0.05430  Biso   1.000  C
  H54      1.0000 0.97950  0.97100  0.03930  Biso   1.000  H
  C84      1.0000 0.93070  0.92330  0.10100  Biso   1.000  C
  H55      1.0000 0.92290  0.95340  0.11970  Biso   1.000  H
  C85      1.0000 0.91670  0.82950  0.09680  Biso   1.000  C
  H56      1.0000 0.90050  0.79550  0.11240  Biso   1.000  H
  C86      1.0000 0.85650  0.48720  0.10280  Biso   1.000  C
  C87      1.0000 0.83390  0.53120  0.12640  Biso   1.000  C
  H57      1.0000 0.83550  0.59950  0.12870  Biso   1.000  H
  C88      1.0000 0.80910  0.47700  0.14670  Biso   1.000  C
  H58      1.0000 0.79300  0.50930  0.16260  Biso   1.000  H
  C89      1.0000 0.82960  0.33660  0.12290  Biso   1.000  C
  H59      1.0000 0.82890  0.26800  0.12190  Biso   1.000  H
  C90      1.0000 0.85460  0.38700  0.10110  Biso   1.000  C
  H60      1.0000 0.87020  0.35350  0.08520  Biso   1.000  H
  C91      1.0000 0.68620  0.61200  0.72680  Biso   1.000  C
  H61      1.0000 0.65890  0.63000  0.71590  Biso   1.000  H
  C92      1.0000 0.68090  0.57670  0.75590  Biso   1.000  C
  H62      1.0000 0.65060  0.57020  0.76460  Biso   1.000  H
  C93      1.0000 0.71980  0.55130  0.77208  Biso   1.000  C
  C94      1.0000 0.76350  0.55850  0.75797  Biso   1.000  C
  H63      1.0000 0.79110  0.54030  0.76850  Biso   1.000  H
  C95      1.0000 0.76620  0.59260  0.72850  Biso   1.000  C
  H64      1.0000 0.79590  0.59500  0.71870  Biso   1.000  H
  C96      1.0000 0.71750  0.52070  0.80411  Biso   1.000  C
  C97      1.0000 0.67680  0.48270  0.84604  Biso   1.000  C
  C98      1.0000 0.75590  0.48440  0.84785  Biso   1.000  C
  C99      1.0000 0.63120  0.46710  0.86161  Biso   1.000  C
  C100     1.0000 0.58910  0.47870  0.84630  Biso   1.000  C
  H65      1.0000 0.58880  0.50020  0.82590  Biso   1.000  H
  C101     1.0000 0.54770  0.45860  0.86120  Biso   1.000  C
  H66      1.0000 0.51910  0.46590  0.85040  Biso   1.000  H
  C102     1.0000 0.58660  0.42080  0.90520  Biso   1.000  C
  H67      1.0000 0.58560  0.40160  0.92590  Biso   1.000  H
  C103     1.0000 0.62990  0.43890  0.89189  Biso   1.000  C
  H68      1.0000 0.65800  0.43220  0.90320  Biso   1.000  H
  C104     1.0000 0.80070  0.46770  0.86390  Biso   1.000  C
  C105     1.0000 0.80310  0.43620  0.89330  Biso   1.000  C
  H69      1.0000 0.77550  0.42860  0.90510  Biso   1.000  H
  C106     1.0000 0.84690  0.41580  0.90520  Biso   1.000  C
  H70      1.0000 0.84850  0.39200  0.92540  Biso   1.000  H
  C107     1.0000 0.88430  0.46360  0.86210  Biso   1.000  C
  H71      1.0000 0.91270  0.47640  0.85160  Biso   1.000  H
  C108     1.0000 0.84240  0.48300  0.84790  Biso   1.000  C
  H72      1.0000 0.84180  0.50630  0.82760  Biso   1.000  H
  N25      1.0000 0.95010  0.42240  0.94893  Biso   1.000  N
  N26      1.0000 0.93030  0.64380  0.03819  Biso   1.000  N
  N27      1.0000 0.88880  0.63720  0.08458  Biso   1.000  N
  N28      1.0000 0.89720  0.49520  0.05501  Biso   1.000  N
  N29      1.0000 0.95420  0.97520  0.08085  Biso   1.000  N
  N30      1.0000 0.80630  0.38090  0.14510  Biso   1.000  N
  N31      1.0000 0.72810  0.62200  0.71338  Biso   1.000  N
  N32      1.0000 0.67590  0.50790  0.81672  Biso   1.000  N
  N33      1.0000 0.71590  0.47080  0.86300  Biso   1.000  N
  N34      1.0000 0.75880  0.51010  0.81866  Biso   1.000  N
  N35      1.0000 0.54600  0.42940  0.88988  Biso   1.000  N
  N36      1.0000 0.88650  0.42740  0.89016  Biso   1.000  N
  I13      1.0000 0.01295  0.46172  0.87520  Biso   1.000  I
  I14      1.0000 0.93644  0.19114  0.90620  Biso   1.000  I
  I15      1.0000 0.79941  0.13388  0.18133  Biso   1.000  I
  I16      1.0000 0.67980  0.31438  0.15626  Biso   1.000  I
  I17      1.0000 0.93598  0.18340  0.13407  Biso   1.000  I
  I18      1.0000 0.99824  0.19499  0.04078  Biso   1.000  I
  Zn7      1.0000 0.95050  0.37228  0.90498  Biso   1.000  Zn
  Zn8      1.0000 0.76452  0.30157  0.17356  Biso   1.000  Zn
  Zn9      1.0000 0.98212  0.10843  0.09110  Biso   1.000  Zn
  C109     1.0000 0.54340  0.48270  0.45390  Biso   1.000  C
  H73      1.0000 0.53220  0.44380  0.43770  Biso   1.000  H
  C110     1.0000 0.55210  0.43910  0.48130  Biso   1.000  C
  H74      1.0000 0.54780  0.37140  0.48370  Biso   1.000  H
  C111     1.0000 0.56730  0.49590  0.50560  Biso   1.000  C
  C112     1.0000 0.57190  0.59510  0.50090  Biso   1.000  C
  H75      1.0000 0.58150  0.63650  0.51690  Biso   1.000  H
  C113     1.0000 0.56230  0.63230  0.47260  Biso   1.000  C
  H76      1.0000 0.56470  0.70030  0.46980  Biso   1.000  H
  C114     1.0000 0.58020  0.45010  0.53460  Biso   1.000  C
  C115     1.0000 0.58610  0.31760  0.56360  Biso   1.000  C
  C116     1.0000 0.61810  0.45660  0.57930  Biso   1.000  C
  C117     1.0000 0.57320  0.21460  0.56930  Biso   1.000  C
  C118     1.0000 0.54920  0.16060  0.54740  Biso   1.000  C
  H77      1.0000 0.54180  0.18800  0.52820  Biso   1.000  H
  C119     1.0000 0.53650  0.06590  0.55430  Biso   1.000  C
  H78      1.0000 0.52050  0.02900  0.53930  Biso   1.000  H
  C120     1.0000 0.56930  0.07670  0.60100  Biso   1.000  C
  H79      1.0000 0.57710  0.04660  0.61970  Biso   1.000  H
  C121     1.0000 0.58330  0.17050  0.59680  Biso   1.000  C
  H80      1.0000 0.59950  0.20450  0.61240  Biso   1.000  H
  C122     1.0000 0.64350  0.51280  0.60280  Biso   1.000  C
  C123     1.0000 0.66610  0.46880  0.62640  Biso   1.000  C
  H81      1.0000 0.66450  0.40050  0.62870  Biso   1.000  H
  C124     1.0000 0.69090  0.52300  0.64670  Biso   1.000  C
  H82      1.0000 0.70700  0.49070  0.66260  Biso   1.000  H
  C125     1.0000 0.67040  0.66340  0.62290  Biso   1.000  C
  H83      1.0000 0.67110  0.73200  0.62190  Biso   1.000  H
  C126     1.0000 0.64540  0.61300  0.60110  Biso   1.000  C
  H84      1.0000 0.62980  0.64650  0.58520  Biso   1.000  H
  C127     1.0000 0.81380  0.38800  0.22680  Biso   1.000  C
  H85      1.0000 0.84110  0.37000  0.21590  Biso   1.000  H
  C128     1.0000 0.81910  0.42330  0.25590  Biso   1.000  C
  H86      1.0000 0.84940  0.42980  0.26460  Biso   1.000  H
  C129     1.0000 0.78020  0.44870  0.27208  Biso   1.000  C
  C130     1.0000 0.73650  0.44150  0.25797  Biso   1.000  C
  H87      1.0000 0.70890  0.45970  0.26850  Biso   1.000  H
  C131     1.0000 0.73380  0.40740  0.22850  Biso   1.000  C
  H88      1.0000 0.70410  0.40500  0.21870  Biso   1.000  H
  C132     1.0000 0.78250  0.47930  0.30411  Biso   1.000  C
  C133     1.0000 0.82320  0.51730  0.34604  Biso   1.000  C
  C134     1.0000 0.74410  0.51560  0.34785  Biso   1.000  C
  C135     1.0000 0.86880  0.53290  0.36161  Biso   1.000  C
  C136     1.0000 0.91090  0.52130  0.34630  Biso   1.000  C
  H89      1.0000 0.91120  0.49980  0.32590  Biso   1.000  H
  C137     1.0000 0.95230  0.54140  0.36120  Biso   1.000  C
  H90      1.0000 0.98090  0.53410  0.35040  Biso   1.000  H
  C138     1.0000 0.91340  0.57920  0.40520  Biso   1.000  C
  H91      1.0000 0.91440  0.59840  0.42590  Biso   1.000  H
  C139     1.0000 0.87010  0.56110  0.39189  Biso   1.000  C
  H92      1.0000 0.84200  0.56780  0.40320  Biso   1.000  H
  C140     1.0000 0.69930  0.53230  0.36390  Biso   1.000  C
  C141     1.0000 0.69690  0.56380  0.39330  Biso   1.000  C
  H93      1.0000 0.72450  0.57140  0.40510  Biso   1.000  H
  C142     1.0000 0.65310  0.58420  0.40520  Biso   1.000  C
  H94      1.0000 0.65150  0.60800  0.42540  Biso   1.000  H
  C143     1.0000 0.61570  0.53640  0.36210  Biso   1.000  C
  H95      1.0000 0.58730  0.52360  0.35160  Biso   1.000  H
  C144     1.0000 0.65760  0.51700  0.34790  Biso   1.000  C
  H96      1.0000 0.65820  0.49370  0.32760  Biso   1.000  H
  N37      1.0000 0.54990  0.57760  0.44893  Biso   1.000  N
  N38      1.0000 0.56970  0.35620  0.53819  Biso   1.000  N
  N39      1.0000 0.61120  0.36280  0.58458  Biso   1.000  N
  N40      1.0000 0.60280  0.50480  0.55501  Biso   1.000  N
  N41      1.0000 0.54580  0.02480  0.58085  Biso   1.000  N
  N42      1.0000 0.69370  0.61910  0.64510  Biso   1.000  N
  N43      1.0000 0.77190  0.37800  0.21338  Biso   1.000  N
  N44      1.0000 0.82410  0.49210  0.31672  Biso   1.000  N
  N45      1.0000 0.78410  0.52920  0.36300  Biso   1.000  N
  N46      1.0000 0.74120  0.48990  0.31866  Biso   1.000  N
  N47      1.0000 0.95400  0.57060  0.38988  Biso   1.000  N
  N48      1.0000 0.61350  0.57260  0.39016  Biso   1.000  N
  I19      1.0000 0.48705  0.53828  0.37520  Biso   1.000  I
  I20      1.0000 0.56356  0.80886  0.40620  Biso   1.000  I
  I21      1.0000 0.70059  0.86612  0.68133  Biso   1.000  I
  I22      1.0000 0.82020  0.68562  0.65626  Biso   1.000  I
  I23      1.0000 0.56402  0.81660  0.63407  Biso   1.000  I
  I24      1.0000 0.50176  0.80501  0.54078  Biso   1.000  I
  Zn10     1.0000 0.54950  0.62772  0.40498  Biso   1.000  Zn
  Zn11     1.0000 0.73548  0.69843  0.67356  Biso   1.000  Zn
  Zn12     1.0000 0.51788  0.89157  0.59110  Biso   1.000  Zn
  C145     1.0000 0.95660  0.98270  0.45390  Biso   1.000  C
  H97      1.0000 0.96780  0.94380  0.43770  Biso   1.000  H
  C146     1.0000 0.94790  0.93910  0.48130  Biso   1.000  C
  H98      1.0000 0.95220  0.87140  0.48370  Biso   1.000  H
  C147     1.0000 0.93270  0.99590  0.50560  Biso   1.000  C
  C148     1.0000 0.92810  0.09510  0.50090  Biso   1.000  C
  H99      1.0000 0.91850  0.13650  0.51690  Biso   1.000  H
  C149     1.0000 0.93770  0.13230  0.47260  Biso   1.000  C
  H100     1.0000 0.93530  0.20030  0.46980  Biso   1.000  H
  C150     1.0000 0.91980  0.95010  0.53460  Biso   1.000  C
  C151     1.0000 0.91390  0.81760  0.56360  Biso   1.000  C
  C152     1.0000 0.88190  0.95660  0.57930  Biso   1.000  C
  C153     1.0000 0.92680  0.71460  0.56930  Biso   1.000  C
  C154     1.0000 0.95080  0.66060  0.54740  Biso   1.000  C
  H101     1.0000 0.95820  0.68800  0.52820  Biso   1.000  H
  C155     1.0000 0.96350  0.56590  0.55430  Biso   1.000  C
  H102     1.0000 0.97950  0.52900  0.53930  Biso   1.000  H
  C156     1.0000 0.93070  0.57670  0.60100  Biso   1.000  C
  H103     1.0000 0.92290  0.54660  0.61970  Biso   1.000  H
  C157     1.0000 0.91670  0.67050  0.59680  Biso   1.000  C
  H104     1.0000 0.90050  0.70450  0.61240  Biso   1.000  H
  C158     1.0000 0.85650  0.01280  0.60280  Biso   1.000  C
  C159     1.0000 0.83390  0.96880  0.62640  Biso   1.000  C
  H105     1.0000 0.83550  0.90050  0.62870  Biso   1.000  H
  C160     1.0000 0.80910  0.02300  0.64670  Biso   1.000  C
  H106     1.0000 0.79300  0.99070  0.66260  Biso   1.000  H
  C161     1.0000 0.82960  0.16340  0.62290  Biso   1.000  C
  H107     1.0000 0.82890  0.23200  0.62190  Biso   1.000  H
  C162     1.0000 0.85460  0.11300  0.60110  Biso   1.000  C
  H108     1.0000 0.87020  0.14650  0.58520  Biso   1.000  H
  C163     1.0000 0.68620  0.88800  0.22680  Biso   1.000  C
  H109     1.0000 0.65890  0.87000  0.21590  Biso   1.000  H
  C164     1.0000 0.68090  0.92330  0.25590  Biso   1.000  C
  H110     1.0000 0.65060  0.92980  0.26460  Biso   1.000  H
  C165     1.0000 0.71980  0.94870  0.27208  Biso   1.000  C
  C166     1.0000 0.76350  0.94150  0.25797  Biso   1.000  C
  H111     1.0000 0.79110  0.95970  0.26850  Biso   1.000  H
  C167     1.0000 0.76620  0.90740  0.22850  Biso   1.000  C
  H112     1.0000 0.79590  0.90500  0.21870  Biso   1.000  H
  C168     1.0000 0.71750  0.97930  0.30411  Biso   1.000  C
  C169     1.0000 0.67680  0.01730  0.34604  Biso   1.000  C
  C170     1.0000 0.75590  0.01560  0.34785  Biso   1.000  C
  C171     1.0000 0.63120  0.03290  0.36161  Biso   1.000  C
  C172     1.0000 0.58910  0.02130  0.34630  Biso   1.000  C
  H113     1.0000 0.58880  0.99980  0.32590  Biso   1.000  H
  C173     1.0000 0.54770  0.04140  0.36120  Biso   1.000  C
  H114     1.0000 0.51910  0.03410  0.35040  Biso   1.000  H
  C174     1.0000 0.58660  0.07920  0.40520  Biso   1.000  C
  H115     1.0000 0.58560  0.09840  0.42590  Biso   1.000  H
  C175     1.0000 0.62990  0.06110  0.39189  Biso   1.000  C
  H116     1.0000 0.65800  0.06780  0.40320  Biso   1.000  H
  C176     1.0000 0.80070  0.03230  0.36390  Biso   1.000  C
  C177     1.0000 0.80310  0.06380  0.39330  Biso   1.000  C
  H117     1.0000 0.77550  0.07140  0.40510  Biso   1.000  H
  C178     1.0000 0.84690  0.08420  0.40520  Biso   1.000  C
  H118     1.0000 0.84850  0.10800  0.42540  Biso   1.000  H
  C179     1.0000 0.88430  0.03640  0.36210  Biso   1.000  C
  H119     1.0000 0.91270  0.02360  0.35160  Biso   1.000  H
  C180     1.0000 0.84240  0.01700  0.34790  Biso   1.000  C
  H120     1.0000 0.84180  0.99370  0.32760  Biso   1.000  H
  N49      1.0000 0.95010  0.07760  0.44893  Biso   1.000  N
  N50      1.0000 0.93030  0.85620  0.53819  Biso   1.000  N
  N51      1.0000 0.88880  0.86280  0.58458  Biso   1.000  N
  N52      1.0000 0.89720  0.00480  0.55501  Biso   1.000  N
  N53      1.0000 0.95420  0.52480  0.58085  Biso   1.000  N
  N54      1.0000 0.80630  0.11910  0.64510  Biso   1.000  N
  N55      1.0000 0.72810  0.87800  0.21338  Biso   1.000  N
  N56      1.0000 0.67590  0.99210  0.31672  Biso   1.000  N
  N57      1.0000 0.71590  0.02920  0.36300  Biso   1.000  N
  N58      1.0000 0.75880  0.98990  0.31866  Biso   1.000  N
  N59      1.0000 0.54600  0.07060  0.38988  Biso   1.000  N
  N60      1.0000 0.88650  0.07260  0.39016  Biso   1.000  N
  I25      1.0000 0.01295  0.03828  0.37520  Biso   1.000  I
  I26      1.0000 0.93644  0.30886  0.40620  Biso   1.000  I
  I27      1.0000 0.79941  0.36612  0.68133  Biso   1.000  I
  I28      1.0000 0.67980  0.18562  0.65626  Biso   1.000  I
  I29      1.0000 0.93598  0.31660  0.63407  Biso   1.000  I
  I30      1.0000 0.99824  0.30501  0.54078  Biso   1.000  I
  Zn13     1.0000 0.95050  0.12772  0.40498  Biso   1.000  Zn
  Zn14     1.0000 0.76452  0.19843  0.67356  Biso   1.000  Zn
  Zn15     1.0000 0.98212  0.39157  0.59110  Biso   1.000  Zn
  C181     1.0000 0.54340  0.01730  0.95390  Biso   1.000  C
  H121     1.0000 0.53220  0.05620  0.93770  Biso   1.000  H
  C182     1.0000 0.55210  0.06090  0.98130  Biso   1.000  C
  H122     1.0000 0.54780  0.12860  0.98370  Biso   1.000  H
  C183     1.0000 0.56730  0.00410  0.00560  Biso   1.000  C
  C184     1.0000 0.57190  0.90490  0.00090  Biso   1.000  C
  H123     1.0000 0.58150  0.86350  0.01690  Biso   1.000  H
  C185     1.0000 0.56230  0.86770  0.97260  Biso   1.000  C
  H124     1.0000 0.56470  0.79970  0.96980  Biso   1.000  H
  C186     1.0000 0.58020  0.04990  0.03460  Biso   1.000  C
  C187     1.0000 0.58610  0.18240  0.06360  Biso   1.000  C
  C188     1.0000 0.61810  0.04340  0.07930  Biso   1.000  C
  C189     1.0000 0.57320  0.28540  0.06930  Biso   1.000  C
  C190     1.0000 0.54920  0.33940  0.04740  Biso   1.000  C
  H125     1.0000 0.54180  0.31200  0.02820  Biso   1.000  H
  C191     1.0000 0.53650  0.43410  0.05430  Biso   1.000  C
  H126     1.0000 0.52050  0.47100  0.03930  Biso   1.000  H
  C192     1.0000 0.56930  0.42330  0.10100  Biso   1.000  C
  H127     1.0000 0.57710  0.45340  0.11970  Biso   1.000  H
  C193     1.0000 0.58330  0.32950  0.09680  Biso   1.000  C
  H128     1.0000 0.59950  0.29550  0.11240  Biso   1.000  H
  C194     1.0000 0.64350  0.98720  0.10280  Biso   1.000  C
  C195     1.0000 0.66610  0.03120  0.12640  Biso   1.000  C
  H129     1.0000 0.66450  0.09950  0.12870  Biso   1.000  H
  C196     1.0000 0.69090  0.97700  0.14670  Biso   1.000  C
  H130     1.0000 0.70700  0.00930  0.16260  Biso   1.000  H
  C197     1.0000 0.67040  0.83660  0.12290  Biso   1.000  C
  H131     1.0000 0.67110  0.76800  0.12190  Biso   1.000  H
  C198     1.0000 0.64540  0.88700  0.10110  Biso   1.000  C
  H132     1.0000 0.62980  0.85350  0.08520  Biso   1.000  H
  C199     1.0000 0.81380  0.11200  0.72680  Biso   1.000  C
  H133     1.0000 0.84110  0.13000  0.71590  Biso   1.000  H
  C200     1.0000 0.81910  0.07670  0.75590  Biso   1.000  C
  H134     1.0000 0.84940  0.07020  0.76460  Biso   1.000  H
  C201     1.0000 0.78020  0.05130  0.77208  Biso   1.000  C
  C202     1.0000 0.73650  0.05850  0.75797  Biso   1.000  C
  H135     1.0000 0.70890  0.04030  0.76850  Biso   1.000  H
  C203     1.0000 0.73380  0.09260  0.72850  Biso   1.000  C
  H136     1.0000 0.70410  0.09500  0.71870  Biso   1.000  H
  C204     1.0000 0.78250  0.02070  0.80411  Biso   1.000  C
  C205     1.0000 0.82320  0.98270  0.84604  Biso   1.000  C
  C206     1.0000 0.74410  0.98440  0.84785  Biso   1.000  C
  C207     1.0000 0.86880  0.96710  0.86161  Biso   1.000  C
  C208     1.0000 0.91090  0.97870  0.84630  Biso   1.000  C
  H137     1.0000 0.91120  0.00020  0.82590  Biso   1.000  H
  C209     1.0000 0.95230  0.95860  0.86120  Biso   1.000  C
  H138     1.0000 0.98090  0.96590  0.85040  Biso   1.000  H
  C210     1.0000 0.91340  0.92080  0.90520  Biso   1.000  C
  H139     1.0000 0.91440  0.90160  0.92590  Biso   1.000  H
  C211     1.0000 0.87010  0.93890  0.89189  Biso   1.000  C
  H140     1.0000 0.84200  0.93220  0.90320  Biso   1.000  H
  C212     1.0000 0.69930  0.96770  0.86390  Biso   1.000  C
  C213     1.0000 0.69690  0.93620  0.89330  Biso   1.000  C
  H141     1.0000 0.72450  0.92860  0.90510  Biso   1.000  H
  C214     1.0000 0.65310  0.91580  0.90520  Biso   1.000  C
  H142     1.0000 0.65150  0.89200  0.92540  Biso   1.000  H
  C215     1.0000 0.61570  0.96360  0.86210  Biso   1.000  C
  H143     1.0000 0.58730  0.97640  0.85160  Biso   1.000  H
  C216     1.0000 0.65760  0.98300  0.84790  Biso   1.000  C
  H144     1.0000 0.65820  0.00630  0.82760  Biso   1.000  H
  N61      1.0000 0.54990  0.92240  0.94893  Biso   1.000  N
  N62      1.0000 0.56970  0.14380  0.03819  Biso   1.000  N
  N63      1.0000 0.61120  0.13720  0.08458  Biso   1.000  N
  N64      1.0000 0.60280  0.99520  0.05501  Biso   1.000  N
  N65      1.0000 0.54580  0.47520  0.08085  Biso   1.000  N
  N66      1.0000 0.69370  0.88090  0.14510  Biso   1.000  N
  N67      1.0000 0.77190  0.12200  0.71338  Biso   1.000  N
  N68      1.0000 0.82410  0.00790  0.81672  Biso   1.000  N
  N69      1.0000 0.78410  0.97080  0.86300  Biso   1.000  N
  N70      1.0000 0.74120  0.01010  0.81866  Biso   1.000  N
  N71      1.0000 0.95400  0.92940  0.88988  Biso   1.000  N
  N72      1.0000 0.61350  0.92740  0.89016  Biso   1.000  N
  I31      1.0000 0.48705  0.96172  0.87520  Biso   1.000  I
  I32      1.0000 0.56356  0.69114  0.90620  Biso   1.000  I
  I33      1.0000 0.70059  0.63388  0.18133  Biso   1.000  I
  I34      1.0000 0.82020  0.81438  0.15626  Biso   1.000  I
  I35      1.0000 0.56402  0.68340  0.13407  Biso   1.000  I
  I36      1.0000 0.50176  0.69499  0.04078  Biso   1.000  I
  Zn16     1.0000 0.54950  0.87228  0.90498  Biso   1.000  Zn
  Zn17     1.0000 0.73548  0.80157  0.17356  Biso   1.000  Zn
  Zn18     1.0000 0.51788  0.60843  0.09110  Biso   1.000  Zn
  C217     1.0000 0.04340  0.48270  0.04610  Biso   1.000  C
  H145     1.0000 0.03220  0.44380  0.06230  Biso   1.000  H
  C218     1.0000 0.05210  0.43910  0.01870  Biso   1.000  C
  H146     1.0000 0.04780  0.37140  0.01630  Biso   1.000  H
  C219     1.0000 0.06730  0.49590  0.99440  Biso   1.000  C
  C220     1.0000 0.07190  0.59510  0.99910  Biso   1.000  C
  H147     1.0000 0.08150  0.63650  0.98310  Biso   1.000  H
  C221     1.0000 0.06230  0.63230  0.02740  Biso   1.000  C
  H148     1.0000 0.06470  0.70030  0.03020  Biso   1.000  H
  C222     1.0000 0.08020  0.45010  0.96540  Biso   1.000  C
  C223     1.0000 0.08610  0.31760  0.93640  Biso   1.000  C
  C224     1.0000 0.11810  0.45660  0.92070  Biso   1.000  C
  C225     1.0000 0.07320  0.21460  0.93070  Biso   1.000  C
  C226     1.0000 0.04920  0.16060  0.95260  Biso   1.000  C
  H149     1.0000 0.04180  0.18800  0.97180  Biso   1.000  H
  C227     1.0000 0.03650  0.06590  0.94570  Biso   1.000  C
  H150     1.0000 0.02050  0.02900  0.96070  Biso   1.000  H
  C228     1.0000 0.06930  0.07670  0.89900  Biso   1.000  C
  H151     1.0000 0.07710  0.04660  0.88030  Biso   1.000  H
  C229     1.0000 0.08330  0.17050  0.90320  Biso   1.000  C
  H152     1.0000 0.09950  0.20450  0.88760  Biso   1.000  H
  C230     1.0000 0.14350  0.51280  0.89720  Biso   1.000  C
  C231     1.0000 0.16610  0.46880  0.87360  Biso   1.000  C
  H153     1.0000 0.16450  0.40050  0.87130  Biso   1.000  H
  C232     1.0000 0.19090  0.52300  0.85330  Biso   1.000  C
  H154     1.0000 0.20700  0.49070  0.83740  Biso   1.000  H
  C233     1.0000 0.17040  0.66340  0.87710  Biso   1.000  C
  H155     1.0000 0.17110  0.73200  0.87810  Biso   1.000  H
  C234     1.0000 0.14540  0.61300  0.89890  Biso   1.000  C
  H156     1.0000 0.12980  0.64650  0.91480  Biso   1.000  H
  C235     1.0000 0.31380  0.38800  0.27320  Biso   1.000  C
  H157     1.0000 0.34110  0.37000  0.28410  Biso   1.000  H
  C236     1.0000 0.31910  0.42330  0.24410  Biso   1.000  C
  H158     1.0000 0.34940  0.42980  0.23540  Biso   1.000  H
  C237     1.0000 0.28020  0.44870  0.22792  Biso   1.000  C
  C238     1.0000 0.23650  0.44150  0.24203  Biso   1.000  C
  H159     1.0000 0.20890  0.45970  0.23150  Biso   1.000  H
  C239     1.0000 0.23380  0.40740  0.27150  Biso   1.000  C
  H160     1.0000 0.20410  0.40500  0.28130  Biso   1.000  H
  C240     1.0000 0.28250  0.47930  0.19589  Biso   1.000  C
  C241     1.0000 0.32320  0.51730  0.15396  Biso   1.000  C
  C242     1.0000 0.24410  0.51560  0.15215  Biso   1.000  C
  C243     1.0000 0.36880  0.53290  0.13839  Biso   1.000  C
  C244     1.0000 0.41090  0.52130  0.15370  Biso   1.000  C
  H161     1.0000 0.41120  0.49980  0.17410  Biso   1.000  H
  C245     1.0000 0.45230  0.54140  0.13880  Biso   1.000  C
  H162     1.0000 0.48090  0.53410  0.14960  Biso   1.000  H
  C246     1.0000 0.41340  0.57920  0.09480  Biso   1.000  C
  H163     1.0000 0.41440  0.59840  0.07410  Biso   1.000  H
  C247     1.0000 0.37010  0.56110  0.10811  Biso   1.000  C
  H164     1.0000 0.34200  0.56780  0.09680  Biso   1.000  H
  C248     1.0000 0.19930  0.53230  0.13610  Biso   1.000  C
  C249     1.0000 0.19690  0.56380  0.10670  Biso   1.000  C
  H165     1.0000 0.22450  0.57140  0.09490  Biso   1.000  H
  C250     1.0000 0.15310  0.58420  0.09480  Biso   1.000  C
  H166     1.0000 0.15150  0.60800  0.07460  Biso   1.000  H
  C251     1.0000 0.11570  0.53640  0.13790  Biso   1.000  C
  H167     1.0000 0.08730  0.52360  0.14840  Biso   1.000  H
  C252     1.0000 0.15760  0.51700  0.15210  Biso   1.000  C
  H168     1.0000 0.15820  0.49370  0.17240  Biso   1.000  H
  N73      1.0000 0.04990  0.57760  0.05107  Biso   1.000  N
  N74      1.0000 0.06970  0.35620  0.96181  Biso   1.000  N
  N75      1.0000 0.11120  0.36280  0.91542  Biso   1.000  N
  N76      1.0000 0.10280  0.50480  0.94499  Biso   1.000  N
  N77      1.0000 0.04580  0.02480  0.91915  Biso   1.000  N
  N78      1.0000 0.19370  0.61910  0.85490  Biso   1.000  N
  N79      1.0000 0.27190  0.37800  0.28662  Biso   1.000  N
  N80      1.0000 0.32410  0.49210  0.18328  Biso   1.000  N
  N81      1.0000 0.28410  0.52920  0.13700  Biso   1.000  N
  N82      1.0000 0.24120  0.48990  0.18134  Biso   1.000  N
  N83      1.0000 0.45400  0.57060  0.11012  Biso   1.000  N
  N84      1.0000 0.11350  0.57260  0.10984  Biso   1.000  N
  I37      1.0000 0.98705  0.53828  0.12480  Biso   1.000  I
  I38      1.0000 0.06356  0.80886  0.09380  Biso   1.000  I
  I39      1.0000 0.20059  0.86612  0.81867  Biso   1.000  I
  I40      1.0000 0.32020  0.68562  0.84374  Biso   1.000  I
  I41      1.0000 0.06402  0.81660  0.86593  Biso   1.000  I
  I42      1.0000 0.00176  0.80501  0.95922  Biso   1.000  I
  Zn19     1.0000 0.04950  0.62772  0.09502  Biso   1.000  Zn
  Zn20     1.0000 0.23548  0.69843  0.82644  Biso   1.000  Zn
  Zn21     1.0000 0.01788  0.89157  0.90890  Biso   1.000  Zn
  C253     1.0000 0.45660  0.51730  0.54610  Biso   1.000  C
  H169     1.0000 0.46780  0.55620  0.56230  Biso   1.000  H
  C254     1.0000 0.44790  0.56090  0.51870  Biso   1.000  C
  H170     1.0000 0.45220  0.62860  0.51630  Biso   1.000  H
  C255     1.0000 0.43270  0.50410  0.49440  Biso   1.000  C
  C256     1.0000 0.42810  0.40490  0.49910  Biso   1.000  C
  H171     1.0000 0.41850  0.36350  0.48310  Biso   1.000  H
  C257     1.0000 0.43770  0.36770  0.52740  Biso   1.000  C
  H172     1.0000 0.43530  0.29970  0.53020  Biso   1.000  H
  C258     1.0000 0.41980  0.54990  0.46540  Biso   1.000  C
  C259     1.0000 0.41390  0.68240  0.43640  Biso   1.000  C
  C260     1.0000 0.38190  0.54340  0.42070  Biso   1.000  C
  C261     1.0000 0.42680  0.78540  0.43070  Biso   1.000  C
  C262     1.0000 0.45080  0.83940  0.45260  Biso   1.000  C
  H173     1.0000 0.45820  0.81200  0.47180  Biso   1.000  H
  C263     1.0000 0.46350  0.93410  0.44570  Biso   1.000  C
  H174     1.0000 0.47950  0.97100  0.46070  Biso   1.000  H
  C264     1.0000 0.43070  0.92330  0.39900  Biso   1.000  C
  H175     1.0000 0.42290  0.95340  0.38030  Biso   1.000  H
  C265     1.0000 0.41670  0.82950  0.40320  Biso   1.000  C
  H176     1.0000 0.40050  0.79550  0.38760  Biso   1.000  H
  C266     1.0000 0.35650  0.48720  0.39720  Biso   1.000  C
  C267     1.0000 0.33390  0.53120  0.37360  Biso   1.000  C
  H177     1.0000 0.33550  0.59950  0.37130  Biso   1.000  H
  C268     1.0000 0.30910  0.47700  0.35330  Biso   1.000  C
  H178     1.0000 0.29300  0.50930  0.33740  Biso   1.000  H
  C269     1.0000 0.32960  0.33660  0.37710  Biso   1.000  C
  H179     1.0000 0.32890  0.26800  0.37810  Biso   1.000  H
  C270     1.0000 0.35460  0.38700  0.39890  Biso   1.000  C
  H180     1.0000 0.37020  0.35350  0.41480  Biso   1.000  H
  C271     1.0000 0.18620  0.61200  0.77320  Biso   1.000  C
  H181     1.0000 0.15890  0.63000  0.78410  Biso   1.000  H
  C272     1.0000 0.18090  0.57670  0.74410  Biso   1.000  C
  H182     1.0000 0.15060  0.57020  0.73540  Biso   1.000  H
  C273     1.0000 0.21980  0.55130  0.72792  Biso   1.000  C
  C274     1.0000 0.26350  0.55850  0.74203  Biso   1.000  C
  H183     1.0000 0.29110  0.54030  0.73150  Biso   1.000  H
  C275     1.0000 0.26620  0.59260  0.77150  Biso   1.000  C
  H184     1.0000 0.29590  0.59500  0.78130  Biso   1.000  H
  C276     1.0000 0.21750  0.52070  0.69589  Biso   1.000  C
  C277     1.0000 0.17680  0.48270  0.65396  Biso   1.000  C
  C278     1.0000 0.25590  0.48440  0.65215  Biso   1.000  C
  C279     1.0000 0.13120  0.46710  0.63839  Biso   1.000  C
  C280     1.0000 0.08910  0.47870  0.65370  Biso   1.000  C
  H185     1.0000 0.08880  0.50020  0.67410  Biso   1.000  H
  C281     1.0000 0.04770  0.45860  0.63880  Biso   1.000  C
  H186     1.0000 0.01910  0.46590  0.64960  Biso   1.000  H
  C282     1.0000 0.08660  0.42080  0.59480  Biso   1.000  C
  H187     1.0000 0.08560  0.40160  0.57410  Biso   1.000  H
  C283     1.0000 0.12990  0.43890  0.60811  Biso   1.000  C
  H188     1.0000 0.15800  0.43220  0.59680  Biso   1.000  H
  C284     1.0000 0.30070  0.46770  0.63610  Biso   1.000  C
  C285     1.0000 0.30310  0.43620  0.60670  Biso   1.000  C
  H189     1.0000 0.27550  0.42860  0.59490  Biso   1.000  H
  C286     1.0000 0.34690  0.41580  0.59480  Biso   1.000  C
  H190     1.0000 0.34850  0.39200  0.57460  Biso   1.000  H
  C287     1.0000 0.38430  0.46360  0.63790  Biso   1.000  C
  H191     1.0000 0.41270  0.47640  0.64840  Biso   1.000  H
  C288     1.0000 0.34240  0.48300  0.65210  Biso   1.000  C
  H192     1.0000 0.34180  0.50630  0.67240  Biso   1.000  H
  N85      1.0000 0.45010  0.42240  0.55107  Biso   1.000  N
  N86      1.0000 0.43030  0.64380  0.46181  Biso   1.000  N
  N87      1.0000 0.38880  0.63720  0.41542  Biso   1.000  N
  N88      1.0000 0.39720  0.49520  0.44499  Biso   1.000  N
  N89      1.0000 0.45420  0.97520  0.41915  Biso   1.000  N
  N90      1.0000 0.30630  0.38090  0.35490  Biso   1.000  N
  N91      1.0000 0.22810  0.62200  0.78662  Biso   1.000  N
  N92      1.0000 0.17590  0.50790  0.68328  Biso   1.000  N
  N93      1.0000 0.21590  0.47080  0.63700  Biso   1.000  N
  N94      1.0000 0.25880  0.51010  0.68134  Biso   1.000  N
  N95      1.0000 0.04600  0.42940  0.61012  Biso   1.000  N
  N96      1.0000 0.38650  0.42740  0.60984  Biso   1.000  N
  I43      1.0000 0.51295  0.46172  0.62480  Biso   1.000  I
  I44      1.0000 0.43644  0.19114  0.59380  Biso   1.000  I
  I45      1.0000 0.29941  0.13388  0.31867  Biso   1.000  I
  I46      1.0000 0.17980  0.31438  0.34374  Biso   1.000  I
  I47      1.0000 0.43598  0.18340  0.36593  Biso   1.000  I
  I48      1.0000 0.49824  0.19499  0.45922  Biso   1.000  I
  Zn22     1.0000 0.45050  0.37228  0.59502  Biso   1.000  Zn
  Zn23     1.0000 0.26452  0.30157  0.32644  Biso   1.000  Zn
  Zn24     1.0000 0.48212  0.10843  0.40890  Biso   1.000  Zn
