data_image0
_cell_length_a       27.865
_cell_length_b       13.7117
_cell_length_c       45.65
_cell_angle_alpha    90
_cell_angle_beta     90
_cell_angle_gamma    90

_symmetry_space_group_name_H-M    "P 1"
_symmetry_int_tables_number       1

loop_
  _symmetry_equiv_pos_as_xyz
  'x, y, z'

loop_
  _atom_site_label
  _atom_site_occupancy
  _atom_site_fract_x
  _atom_site_fract_y
  _atom_site_fract_z
  _atom_site_thermal_displace_type
  _atom_site_B_iso_or_equiv
  _atom_site_type_symbol
  C1       1.0000 0.05530  0.00510  0.53150  Biso   1.000  C
  H1       1.0000 0.03760  0.03440  0.54690  Biso   1.000  H
  C2       1.0000 0.06680  0.06170  0.50740  Biso   1.000  C
  H2       1.0000 0.05650  0.12760  0.50620  Biso   1.000  H
  C3       1.0000 0.09370  0.02050  0.48520  Biso   1.000  C
  C4       1.0000 0.10590  0.92340  0.48760  Biso   1.000  C
  H3       1.0000 0.12370  0.89250  0.47250  Biso   1.000  H
  C5       1.0000 0.09220  0.87120  0.51220  Biso   1.000  C
  H4       1.0000 0.10070  0.80430  0.51350  Biso   1.000  H
  C6       1.0000 0.10800  0.07790  0.45900  Biso   1.000  C
  C7       1.0000 0.10830  0.21790  0.43340  Biso   1.000  C
  C8       1.0000 0.14110  0.08320  0.41380  Biso   1.000  C
  C9       1.0000 0.09240  0.32220  0.42980  Biso   1.000  C
  C10      1.0000 0.06690  0.36670  0.45170  Biso   1.000  C
  H5       1.0000 0.06090  0.33430  0.46970  Biso   1.000  H
  C11      1.0000 0.04980  0.46120  0.44670  Biso   1.000  C
  H6       1.0000 0.03260  0.49320  0.46190  Biso   1.000  H
  C12      1.0000 0.08150  0.46320  0.40050  Biso   1.000  C
  H7       1.0000 0.08660  0.49660  0.38260  Biso   1.000  H
  C13      1.0000 0.10010  0.36990  0.40370  Biso   1.000  C
  H8       1.0000 0.11770  0.33990  0.38830  Biso   1.000  H
  C14      1.0000 0.16340  0.03130  0.38900  Biso   1.000  C
  C15      1.0000 0.18510  0.07900  0.36600  Biso   1.000  C
  H9       1.0000 0.18590  0.14830  0.36560  Biso   1.000  H
  C16      1.0000 0.20550  0.02780  0.34370  Biso   1.000  C
  H10      1.0000 0.22010  0.06270  0.32800  Biso   1.000  H
  C17      1.0000 0.18420  0.88250  0.36450  Biso   1.000  C
  H11      1.0000 0.18300  0.81330  0.36410  Biso   1.000  H
  C18      1.0000 0.16300  0.93250  0.38810  Biso   1.000  C
  H12      1.0000 0.14820  0.89670  0.40350  Biso   1.000  H
  C19      1.0000 0.30870  0.06160  0.76250  Biso   1.000  C
  H13      1.0000 0.33600  0.07930  0.77370  Biso   1.000  H
  C20      1.0000 0.31610  0.02740  0.73420  Biso   1.000  C
  H14      1.0000 0.34760  0.02230  0.72630  Biso   1.000  H
  C21      1.0000 0.27660  0.00130  0.71820  Biso   1.000  C
  C22      1.0000 0.23210  0.00560  0.73080  Biso   1.000  C
  H15      1.0000 0.20460  0.98490  0.72020  Biso   1.000  H
  C23      1.0000 0.22770  0.04070  0.75940  Biso   1.000  C
  H16      1.0000 0.19690  0.04340  0.76830  Biso   1.000  H
  C24      1.0000 0.28130  0.97030  0.68670  Biso   1.000  C
  C25      1.0000 0.32650  0.93580  0.64710  Biso   1.000  C
  C26      1.0000 0.24510  0.93290  0.64396  Biso   1.000  C
  C27      1.0000 0.37360  0.92350  0.63280  Biso   1.000  C
  C28      1.0000 0.41560  0.92920  0.64840  Biso   1.000  C
  H17      1.0000 0.41520  0.94380  0.66880  Biso   1.000  H
  C29      1.0000 0.45900  0.91330  0.63380  Biso   1.000  C
  H18      1.0000 0.48800  0.91730  0.64470  Biso   1.000  H
  C30      1.0000 0.42100  0.88860  0.59020  Biso   1.000  C
  H19      1.0000 0.42250  0.87520  0.56980  Biso   1.000  H
  C31      1.0000 0.37620  0.90320  0.60290  Biso   1.000  C
  H20      1.0000 0.34780  0.89940  0.59140  Biso   1.000  H
  C32      1.0000 0.20170  0.91610  0.62670  Biso   1.000  C
  C33      1.0000 0.20410  0.88540  0.59750  Biso   1.000  C
  H21      1.0000 0.23410  0.87760  0.58790  Biso   1.000  H
  C34      1.0000 0.16150  0.86700  0.58310  Biso   1.000  C
  H22      1.0000 0.16300  0.84470  0.56340  Biso   1.000  H
  C35      1.0000 0.11640  0.91190  0.62270  Biso   1.000  C
  H23      1.0000 0.08580  0.92390  0.63110  Biso   1.000  H
  C36      1.0000 0.15650  0.92960  0.63930  Biso   1.000  C
  H24      1.0000 0.15360  0.95070  0.65910  Biso   1.000  H
  I1       1.0000 0.98845  0.91799  0.60026  Biso   1.000  I
  I2       1.0000 0.07129  0.65610  0.56378  Biso   1.000  I
  I3       1.0000 0.19586  0.69184  0.30449  Biso   1.000  I
  I4       1.0000 0.33090  0.84346  0.32608  Biso   1.000  I
  I5       1.0000 0.07341  0.72880  0.37407  Biso   1.000  I
  I6       1.0000 0.00899  0.71916  0.46423  Biso   1.000  I
  N1       1.0000 0.06760  0.91140  0.53413  Biso   1.000  N
  N2       1.0000 0.09600  0.17190  0.45777  Biso   1.000  N
  N3       1.0000 0.13190  0.17870  0.41068  Biso   1.000  N
  N4       1.0000 0.13010  0.02960  0.43711  Biso   1.000  N
  N5       1.0000 0.05680  0.50790  0.42161  Biso   1.000  N
  N6       1.0000 0.20590  0.92910  0.34281  Biso   1.000  N
  N7       1.0000 0.26630  0.07090  0.77457  Biso   1.000  N
  N8       1.0000 0.32560  0.96060  0.67544  Biso   1.000  N
  N9       1.0000 0.28780  0.92090  0.63077  Biso   1.000  N
  N10      1.0000 0.24050  0.95750  0.67194  Biso   1.000  N
  N11      1.0000 0.46180  0.89250  0.60513  Biso   1.000  N
  N12      1.0000 0.11850  0.87860  0.59512  Biso   1.000  N
  Zn1      1.0000 0.05678  0.83735  0.57289  Biso   1.000  Zn
  Zn2      1.0000 0.24251  0.85001  0.31245  Biso   1.000  Zn
  Zn3      1.0000 0.02628  0.64309  0.41430  Biso   1.000  Zn
  C37      1.0000 0.44470  0.99490  0.03150  Biso   1.000  C
  H25      1.0000 0.46240  0.96560  0.04690  Biso   1.000  H
  C38      1.0000 0.43320  0.93830  0.00740  Biso   1.000  C
  H26      1.0000 0.44350  0.87240  0.00620  Biso   1.000  H
  C39      1.0000 0.40630  0.97950  0.98520  Biso   1.000  C
  C40      1.0000 0.39410  0.07660  0.98760  Biso   1.000  C
  H27      1.0000 0.37630  0.10750  0.97250  Biso   1.000  H
  C41      1.0000 0.40780  0.12880  0.01220  Biso   1.000  C
  H28      1.0000 0.39930  0.19570  0.01350  Biso   1.000  H
  C42      1.0000 0.39200  0.92210  0.95900  Biso   1.000  C
  C43      1.0000 0.39170  0.78210  0.93340  Biso   1.000  C
  C44      1.0000 0.35890  0.91680  0.91380  Biso   1.000  C
  C45      1.0000 0.40760  0.67780  0.92980  Biso   1.000  C
  C46      1.0000 0.43310  0.63330  0.95170  Biso   1.000  C
  H29      1.0000 0.43910  0.66570  0.96970  Biso   1.000  H
  C47      1.0000 0.45020  0.53880  0.94670  Biso   1.000  C
  H30      1.0000 0.46740  0.50680  0.96190  Biso   1.000  H
  C48      1.0000 0.41850  0.53680  0.90050  Biso   1.000  C
  H31      1.0000 0.41340  0.50340  0.88260  Biso   1.000  H
  C49      1.0000 0.39990  0.63010  0.90370  Biso   1.000  C
  H32      1.0000 0.38230  0.66010  0.88830  Biso   1.000  H
  C50      1.0000 0.33660  0.96870  0.88900  Biso   1.000  C
  C51      1.0000 0.31490  0.92100  0.86600  Biso   1.000  C
  H33      1.0000 0.31410  0.85170  0.86560  Biso   1.000  H
  C52      1.0000 0.29450  0.97220  0.84370  Biso   1.000  C
  H34      1.0000 0.27990  0.93730  0.82800  Biso   1.000  H
  C53      1.0000 0.31580  0.11750  0.86450  Biso   1.000  C
  H35      1.0000 0.31700  0.18670  0.86410  Biso   1.000  H
  C54      1.0000 0.33700  0.06750  0.88810  Biso   1.000  C
  H36      1.0000 0.35180  0.10330  0.90350  Biso   1.000  H
  C55      1.0000 0.19130  0.93840  0.26250  Biso   1.000  C
  H37      1.0000 0.16400  0.92070  0.27370  Biso   1.000  H
  C56      1.0000 0.18390  0.97260  0.23420  Biso   1.000  C
  H38      1.0000 0.15240  0.97770  0.22630  Biso   1.000  H
  C57      1.0000 0.22340  0.99870  0.21820  Biso   1.000  C
  C58      1.0000 0.26790  0.99440  0.23080  Biso   1.000  C
  H39      1.0000 0.29540  0.01510  0.22020  Biso   1.000  H
  C59      1.0000 0.27230  0.95930  0.25940  Biso   1.000  C
  H40      1.0000 0.30310  0.95660  0.26830  Biso   1.000  H
  C60      1.0000 0.21870  0.02970  0.18670  Biso   1.000  C
  C61      1.0000 0.17350  0.06420  0.14710  Biso   1.000  C
  C62      1.0000 0.25490  0.06710  0.14396  Biso   1.000  C
  C63      1.0000 0.12640  0.07650  0.13280  Biso   1.000  C
  C64      1.0000 0.08440  0.07080  0.14840  Biso   1.000  C
  H41      1.0000 0.08480  0.05620  0.16880  Biso   1.000  H
  C65      1.0000 0.04100  0.08670  0.13380  Biso   1.000  C
  H42      1.0000 0.01200  0.08270  0.14470  Biso   1.000  H
  C66      1.0000 0.07900  0.11140  0.09020  Biso   1.000  C
  H43      1.0000 0.07750  0.12480  0.06980  Biso   1.000  H
  C67      1.0000 0.12380  0.09680  0.10290  Biso   1.000  C
  H44      1.0000 0.15220  0.10060  0.09140  Biso   1.000  H
  C68      1.0000 0.29830  0.08390  0.12670  Biso   1.000  C
  C69      1.0000 0.29590  0.11460  0.09750  Biso   1.000  C
  H45      1.0000 0.26590  0.12240  0.08790  Biso   1.000  H
  C70      1.0000 0.33850  0.13300  0.08310  Biso   1.000  C
  H46      1.0000 0.33700  0.15530  0.06340  Biso   1.000  H
  C71      1.0000 0.38360  0.08810  0.12270  Biso   1.000  C
  H47      1.0000 0.41420  0.07610  0.13110  Biso   1.000  H
  C72      1.0000 0.34350  0.07040  0.13930  Biso   1.000  C
  H48      1.0000 0.34640  0.04930  0.15910  Biso   1.000  H
  I7       1.0000 0.51155  0.08201  0.10026  Biso   1.000  I
  I8       1.0000 0.42871  0.34390  0.06378  Biso   1.000  I
  I9       1.0000 0.30414  0.30816  0.80449  Biso   1.000  I
  I10      1.0000 0.16910  0.15654  0.82608  Biso   1.000  I
  I11      1.0000 0.42659  0.27120  0.87407  Biso   1.000  I
  I12      1.0000 0.49101  0.28084  0.96423  Biso   1.000  I
  N13      1.0000 0.43240  0.08860  0.03413  Biso   1.000  N
  N14      1.0000 0.40400  0.82810  0.95777  Biso   1.000  N
  N15      1.0000 0.36810  0.82130  0.91068  Biso   1.000  N
  N16      1.0000 0.36990  0.97040  0.93711  Biso   1.000  N
  N17      1.0000 0.44320  0.49210  0.92161  Biso   1.000  N
  N18      1.0000 0.29410  0.07090  0.84281  Biso   1.000  N
  N19      1.0000 0.23370  0.92910  0.27457  Biso   1.000  N
  N20      1.0000 0.17440  0.03940  0.17544  Biso   1.000  N
  N21      1.0000 0.21220  0.07910  0.13077  Biso   1.000  N
  N22      1.0000 0.25950  0.04250  0.17194  Biso   1.000  N
  N23      1.0000 0.03820  0.10750  0.10513  Biso   1.000  N
  N24      1.0000 0.38150  0.12140  0.09512  Biso   1.000  N
  Zn4      1.0000 0.44322  0.16265  0.07289  Biso   1.000  Zn
  Zn5      1.0000 0.25749  0.14999  0.81245  Biso   1.000  Zn
  Zn6      1.0000 0.47372  0.35691  0.91430  Biso   1.000  Zn
  C73      1.0000 0.94470  0.50510  0.96850  Biso   1.000  C
  H49      1.0000 0.96240  0.53440  0.95310  Biso   1.000  H
  C74      1.0000 0.93320  0.56170  0.99260  Biso   1.000  C
  H50      1.0000 0.94350  0.62760  0.99380  Biso   1.000  H
  C75      1.0000 0.90630  0.52050  0.01480  Biso   1.000  C
  C76      1.0000 0.89410  0.42340  0.01240  Biso   1.000  C
  H51      1.0000 0.87630  0.39250  0.02750  Biso   1.000  H
  C77      1.0000 0.90780  0.37120  0.98780  Biso   1.000  C
  H52      1.0000 0.89930  0.30430  0.98650  Biso   1.000  H
  C78      1.0000 0.89200  0.57790  0.04100  Biso   1.000  C
  C79      1.0000 0.89170  0.71790  0.06660  Biso   1.000  C
  C80      1.0000 0.85890  0.58320  0.08620  Biso   1.000  C
  C81      1.0000 0.90760  0.82220  0.07020  Biso   1.000  C
  C82      1.0000 0.93310  0.86670  0.04830  Biso   1.000  C
  H53      1.0000 0.93910  0.83430  0.03030  Biso   1.000  H
  C83      1.0000 0.95020  0.96120  0.05330  Biso   1.000  C
  H54      1.0000 0.96740  0.99320  0.03810  Biso   1.000  H
  C84      1.0000 0.91850  0.96320  0.09950  Biso   1.000  C
  H55      1.0000 0.91340  0.99660  0.11740  Biso   1.000  H
  C85      1.0000 0.89990  0.86990  0.09630  Biso   1.000  C
  H56      1.0000 0.88230  0.83990  0.11170  Biso   1.000  H
  C86      1.0000 0.83660  0.53130  0.11100  Biso   1.000  C
  C87      1.0000 0.81490  0.57900  0.13400  Biso   1.000  C
  H57      1.0000 0.81410  0.64830  0.13440  Biso   1.000  H
  C88      1.0000 0.79450  0.52780  0.15630  Biso   1.000  C
  H58      1.0000 0.77990  0.56270  0.17200  Biso   1.000  H
  C89      1.0000 0.81580  0.38250  0.13550  Biso   1.000  C
  H59      1.0000 0.81700  0.31330  0.13590  Biso   1.000  H
  C90      1.0000 0.83700  0.43250  0.11190  Biso   1.000  C
  H60      1.0000 0.85180  0.39670  0.09650  Biso   1.000  H
  C91      1.0000 0.69130  0.56160  0.73750  Biso   1.000  C
  H61      1.0000 0.66400  0.57930  0.72630  Biso   1.000  H
  C92      1.0000 0.68390  0.52740  0.76580  Biso   1.000  C
  H62      1.0000 0.65240  0.52230  0.77370  Biso   1.000  H
  C93      1.0000 0.72340  0.50130  0.78180  Biso   1.000  C
  C94      1.0000 0.76790  0.50560  0.76920  Biso   1.000  C
  H63      1.0000 0.79540  0.48490  0.77980  Biso   1.000  H
  C95      1.0000 0.77230  0.54070  0.74060  Biso   1.000  C
  H64      1.0000 0.80310  0.54340  0.73170  Biso   1.000  H
  C96      1.0000 0.71870  0.47030  0.81330  Biso   1.000  C
  C97      1.0000 0.67350  0.43580  0.85290  Biso   1.000  C
  C98      1.0000 0.75490  0.43290  0.85604  Biso   1.000  C
  C99      1.0000 0.62640  0.42350  0.86720  Biso   1.000  C
  C100     1.0000 0.58440  0.42920  0.85160  Biso   1.000  C
  H65      1.0000 0.58480  0.44380  0.83120  Biso   1.000  H
  C101     1.0000 0.54100  0.41330  0.86620  Biso   1.000  C
  H66      1.0000 0.51200  0.41730  0.85530  Biso   1.000  H
  C102     1.0000 0.57900  0.38860  0.90980  Biso   1.000  C
  H67      1.0000 0.57750  0.37520  0.93020  Biso   1.000  H
  C103     1.0000 0.62380  0.40320  0.89710  Biso   1.000  C
  H68      1.0000 0.65220  0.39940  0.90860  Biso   1.000  H
  C104     1.0000 0.79830  0.41610  0.87330  Biso   1.000  C
  C105     1.0000 0.79590  0.38540  0.90250  Biso   1.000  C
  H69      1.0000 0.76590  0.37760  0.91210  Biso   1.000  H
  C106     1.0000 0.83850  0.36700  0.91690  Biso   1.000  C
  H70      1.0000 0.83700  0.34470  0.93660  Biso   1.000  H
  C107     1.0000 0.88360  0.41190  0.87730  Biso   1.000  C
  H71      1.0000 0.91420  0.42390  0.86890  Biso   1.000  H
  C108     1.0000 0.84350  0.42960  0.86070  Biso   1.000  C
  H72      1.0000 0.84640  0.45070  0.84090  Biso   1.000  H
  I13      1.0000 0.01155  0.41799  0.89974  Biso   1.000  I
  I14      1.0000 0.92871  0.15610  0.93622  Biso   1.000  I
  I15      1.0000 0.80414  0.19184  0.19551  Biso   1.000  I
  I16      1.0000 0.66910  0.34346  0.17392  Biso   1.000  I
  I17      1.0000 0.92659  0.22880  0.12593  Biso   1.000  I
  I18      1.0000 0.99101  0.21916  0.03577  Biso   1.000  I
  N25      1.0000 0.93240  0.41140  0.96587  Biso   1.000  N
  N26      1.0000 0.90400  0.67190  0.04223  Biso   1.000  N
  N27      1.0000 0.86810  0.67870  0.08932  Biso   1.000  N
  N28      1.0000 0.86990  0.52960  0.06289  Biso   1.000  N
  N29      1.0000 0.94320  0.00790  0.07839  Biso   1.000  N
  N30      1.0000 0.79410  0.42910  0.15719  Biso   1.000  N
  N31      1.0000 0.73370  0.57090  0.72543  Biso   1.000  N
  N32      1.0000 0.67440  0.46060  0.82456  Biso   1.000  N
  N33      1.0000 0.71220  0.42090  0.86923  Biso   1.000  N
  N34      1.0000 0.75950  0.45750  0.82806  Biso   1.000  N
  N35      1.0000 0.53820  0.39250  0.89487  Biso   1.000  N
  N36      1.0000 0.88150  0.37860  0.90488  Biso   1.000  N
  Zn7      1.0000 0.94322  0.33735  0.92711  Biso   1.000  Zn
  Zn8      1.0000 0.75749  0.35001  0.18755  Biso   1.000  Zn
  Zn9      1.0000 0.97372  0.14309  0.08570  Biso   1.000  Zn
  C109     1.0000 0.55530  0.49490  0.46850  Biso   1.000  C
  H73      1.0000 0.53760  0.46560  0.45310  Biso   1.000  H
  C110     1.0000 0.56680  0.43830  0.49260  Biso   1.000  C
  H74      1.0000 0.55650  0.37240  0.49380  Biso   1.000  H
  C111     1.0000 0.59370  0.47950  0.51480  Biso   1.000  C
  C112     1.0000 0.60590  0.57660  0.51240  Biso   1.000  C
  H75      1.0000 0.62370  0.60750  0.52750  Biso   1.000  H
  C113     1.0000 0.59220  0.62880  0.48780  Biso   1.000  C
  H76      1.0000 0.60070  0.69570  0.48650  Biso   1.000  H
  C114     1.0000 0.60800  0.42210  0.54100  Biso   1.000  C
  C115     1.0000 0.60830  0.28210  0.56660  Biso   1.000  C
  C116     1.0000 0.64110  0.41680  0.58620  Biso   1.000  C
  C117     1.0000 0.59240  0.17780  0.57020  Biso   1.000  C
  C118     1.0000 0.56690  0.13330  0.54830  Biso   1.000  C
  H77      1.0000 0.56090  0.16570  0.53030  Biso   1.000  H
  C119     1.0000 0.54980  0.03880  0.55330  Biso   1.000  C
  H78      1.0000 0.53260  0.00680  0.53810  Biso   1.000  H
  C120     1.0000 0.58150  0.03680  0.59950  Biso   1.000  C
  H79      1.0000 0.58660  0.00340  0.61740  Biso   1.000  H
  C121     1.0000 0.60010  0.13010  0.59630  Biso   1.000  C
  H80      1.0000 0.61770  0.16010  0.61170  Biso   1.000  H
  C122     1.0000 0.66340  0.46870  0.61100  Biso   1.000  C
  C123     1.0000 0.68510  0.42100  0.63400  Biso   1.000  C
  H81      1.0000 0.68590  0.35170  0.63440  Biso   1.000  H
  C124     1.0000 0.70550  0.47220  0.65630  Biso   1.000  C
  H82      1.0000 0.72010  0.43730  0.67200  Biso   1.000  H
  C125     1.0000 0.68420  0.61750  0.63550  Biso   1.000  C
  H83      1.0000 0.68300  0.68670  0.63590  Biso   1.000  H
  C126     1.0000 0.66300  0.56750  0.61190  Biso   1.000  C
  H84      1.0000 0.64820  0.60330  0.59650  Biso   1.000  H
  C127     1.0000 0.80870  0.43840  0.23750  Biso   1.000  C
  H85      1.0000 0.83600  0.42070  0.22630  Biso   1.000  H
  C128     1.0000 0.81610  0.47260  0.26580  Biso   1.000  C
  H86      1.0000 0.84760  0.47770  0.27370  Biso   1.000  H
  C129     1.0000 0.77660  0.49870  0.28180  Biso   1.000  C
  C130     1.0000 0.73210  0.49440  0.26920  Biso   1.000  C
  H87      1.0000 0.70460  0.51510  0.27980  Biso   1.000  H
  C131     1.0000 0.72770  0.45930  0.24060  Biso   1.000  C
  H88      1.0000 0.69690  0.45660  0.23170  Biso   1.000  H
  C132     1.0000 0.78130  0.52970  0.31330  Biso   1.000  C
  C133     1.0000 0.82650  0.56420  0.35290  Biso   1.000  C
  C134     1.0000 0.74510  0.56710  0.35604  Biso   1.000  C
  C135     1.0000 0.87360  0.57650  0.36720  Biso   1.000  C
  C136     1.0000 0.91560  0.57080  0.35160  Biso   1.000  C
  H89      1.0000 0.91520  0.55620  0.33120  Biso   1.000  H
  C137     1.0000 0.95900  0.58670  0.36620  Biso   1.000  C
  H90      1.0000 0.98800  0.58270  0.35530  Biso   1.000  H
  C138     1.0000 0.92100  0.61140  0.40980  Biso   1.000  C
  H91      1.0000 0.92250  0.62480  0.43020  Biso   1.000  H
  C139     1.0000 0.87620  0.59680  0.39710  Biso   1.000  C
  H92      1.0000 0.84780  0.60060  0.40860  Biso   1.000  H
  C140     1.0000 0.70170  0.58390  0.37330  Biso   1.000  C
  C141     1.0000 0.70410  0.61460  0.40250  Biso   1.000  C
  H93      1.0000 0.73410  0.62240  0.41210  Biso   1.000  H
  C142     1.0000 0.66150  0.63300  0.41690  Biso   1.000  C
  H94      1.0000 0.66300  0.65530  0.43660  Biso   1.000  H
  C143     1.0000 0.61640  0.58810  0.37730  Biso   1.000  C
  H95      1.0000 0.58580  0.57610  0.36890  Biso   1.000  H
  C144     1.0000 0.65650  0.57040  0.36070  Biso   1.000  C
  H96      1.0000 0.65360  0.54930  0.34090  Biso   1.000  H
  I19      1.0000 0.48845  0.58201  0.39974  Biso   1.000  I
  I20      1.0000 0.57129  0.84390  0.43622  Biso   1.000  I
  I21      1.0000 0.69586  0.80816  0.69551  Biso   1.000  I
  I22      1.0000 0.83090  0.65654  0.67392  Biso   1.000  I
  I23      1.0000 0.57341  0.77120  0.62593  Biso   1.000  I
  I24      1.0000 0.50899  0.78084  0.53577  Biso   1.000  I
  N37      1.0000 0.56760  0.58860  0.46587  Biso   1.000  N
  N38      1.0000 0.59600  0.32810  0.54223  Biso   1.000  N
  N39      1.0000 0.63190  0.32130  0.58932  Biso   1.000  N
  N40      1.0000 0.63010  0.47040  0.56289  Biso   1.000  N
  N41      1.0000 0.55680  0.99210  0.57839  Biso   1.000  N
  N42      1.0000 0.70590  0.57090  0.65719  Biso   1.000  N
  N43      1.0000 0.76630  0.42910  0.22543  Biso   1.000  N
  N44      1.0000 0.82560  0.53940  0.32456  Biso   1.000  N
  N45      1.0000 0.78780  0.57910  0.36923  Biso   1.000  N
  N46      1.0000 0.74050  0.54250  0.32806  Biso   1.000  N
  N47      1.0000 0.96180  0.60750  0.39487  Biso   1.000  N
  N48      1.0000 0.61850  0.62140  0.40488  Biso   1.000  N
  Zn10     1.0000 0.55678  0.66265  0.42711  Biso   1.000  Zn
  Zn11     1.0000 0.74251  0.64999  0.68755  Biso   1.000  Zn
  Zn12     1.0000 0.52628  0.85691  0.58570  Biso   1.000  Zn
  C145     1.0000 0.94470  0.99490  0.46850  Biso   1.000  C
  H97      1.0000 0.96240  0.96560  0.45310  Biso   1.000  H
  C146     1.0000 0.93320  0.93830  0.49260  Biso   1.000  C
  H98      1.0000 0.94350  0.87240  0.49380  Biso   1.000  H
  C147     1.0000 0.90630  0.97950  0.51480  Biso   1.000  C
  C148     1.0000 0.89410  0.07660  0.51240  Biso   1.000  C
  H99      1.0000 0.87630  0.10750  0.52750  Biso   1.000  H
  C149     1.0000 0.90780  0.12880  0.48780  Biso   1.000  C
  H100     1.0000 0.89930  0.19570  0.48650  Biso   1.000  H
  C150     1.0000 0.89200  0.92210  0.54100  Biso   1.000  C
  C151     1.0000 0.89170  0.78210  0.56660  Biso   1.000  C
  C152     1.0000 0.85890  0.91680  0.58620  Biso   1.000  C
  C153     1.0000 0.90760  0.67780  0.57020  Biso   1.000  C
  C154     1.0000 0.93310  0.63330  0.54830  Biso   1.000  C
  H101     1.0000 0.93910  0.66570  0.53030  Biso   1.000  H
  C155     1.0000 0.95020  0.53880  0.55330  Biso   1.000  C
  H102     1.0000 0.96740  0.50680  0.53810  Biso   1.000  H
  C156     1.0000 0.91850  0.53680  0.59950  Biso   1.000  C
  H103     1.0000 0.91340  0.50340  0.61740  Biso   1.000  H
  C157     1.0000 0.89990  0.63010  0.59630  Biso   1.000  C
  H104     1.0000 0.88230  0.66010  0.61170  Biso   1.000  H
  C158     1.0000 0.83660  0.96870  0.61100  Biso   1.000  C
  C159     1.0000 0.81490  0.92100  0.63400  Biso   1.000  C
  H105     1.0000 0.81410  0.85170  0.63440  Biso   1.000  H
  C160     1.0000 0.79450  0.97220  0.65630  Biso   1.000  C
  H106     1.0000 0.77990  0.93730  0.67200  Biso   1.000  H
  C161     1.0000 0.81580  0.11750  0.63550  Biso   1.000  C
  H107     1.0000 0.81700  0.18670  0.63590  Biso   1.000  H
  C162     1.0000 0.83700  0.06750  0.61190  Biso   1.000  C
  H108     1.0000 0.85180  0.10330  0.59650  Biso   1.000  H
  C163     1.0000 0.69130  0.93840  0.23750  Biso   1.000  C
  H109     1.0000 0.66400  0.92070  0.22630  Biso   1.000  H
  C164     1.0000 0.68390  0.97260  0.26580  Biso   1.000  C
  H110     1.0000 0.65240  0.97770  0.27370  Biso   1.000  H
  C165     1.0000 0.72340  0.99870  0.28180  Biso   1.000  C
  C166     1.0000 0.76790  0.99440  0.26920  Biso   1.000  C
  H111     1.0000 0.79540  0.01510  0.27980  Biso   1.000  H
  C167     1.0000 0.77230  0.95930  0.24060  Biso   1.000  C
  H112     1.0000 0.80310  0.95660  0.23170  Biso   1.000  H
  C168     1.0000 0.71870  0.02970  0.31330  Biso   1.000  C
  C169     1.0000 0.67350  0.06420  0.35290  Biso   1.000  C
  C170     1.0000 0.75490  0.06710  0.35604  Biso   1.000  C
  C171     1.0000 0.62640  0.07650  0.36720  Biso   1.000  C
  C172     1.0000 0.58440  0.07080  0.35160  Biso   1.000  C
  H113     1.0000 0.58480  0.05620  0.33120  Biso   1.000  H
  C173     1.0000 0.54100  0.08670  0.36620  Biso   1.000  C
  H114     1.0000 0.51200  0.08270  0.35530  Biso   1.000  H
  C174     1.0000 0.57900  0.11140  0.40980  Biso   1.000  C
  H115     1.0000 0.57750  0.12480  0.43020  Biso   1.000  H
  C175     1.0000 0.62380  0.09680  0.39710  Biso   1.000  C
  H116     1.0000 0.65220  0.10060  0.40860  Biso   1.000  H
  C176     1.0000 0.79830  0.08390  0.37330  Biso   1.000  C
  C177     1.0000 0.79590  0.11460  0.40250  Biso   1.000  C
  H117     1.0000 0.76590  0.12240  0.41210  Biso   1.000  H
  C178     1.0000 0.83850  0.13300  0.41690  Biso   1.000  C
  H118     1.0000 0.83700  0.15530  0.43660  Biso   1.000  H
  C179     1.0000 0.88360  0.08810  0.37730  Biso   1.000  C
  H119     1.0000 0.91420  0.07610  0.36890  Biso   1.000  H
  C180     1.0000 0.84350  0.07040  0.36070  Biso   1.000  C
  H120     1.0000 0.84640  0.04930  0.34090  Biso   1.000  H
  I25      1.0000 0.01155  0.08201  0.39974  Biso   1.000  I
  I26      1.0000 0.92871  0.34390  0.43622  Biso   1.000  I
  I27      1.0000 0.80414  0.30816  0.69551  Biso   1.000  I
  I28      1.0000 0.66910  0.15654  0.67392  Biso   1.000  I
  I29      1.0000 0.92659  0.27120  0.62593  Biso   1.000  I
  I30      1.0000 0.99101  0.28084  0.53577  Biso   1.000  I
  N49      1.0000 0.93240  0.08860  0.46587  Biso   1.000  N
  N50      1.0000 0.90400  0.82810  0.54223  Biso   1.000  N
  N51      1.0000 0.86810  0.82130  0.58932  Biso   1.000  N
  N52      1.0000 0.86990  0.97040  0.56289  Biso   1.000  N
  N53      1.0000 0.94320  0.49210  0.57839  Biso   1.000  N
  N54      1.0000 0.79410  0.07090  0.65719  Biso   1.000  N
  N55      1.0000 0.73370  0.92910  0.22543  Biso   1.000  N
  N56      1.0000 0.67440  0.03940  0.32456  Biso   1.000  N
  N57      1.0000 0.71220  0.07910  0.36923  Biso   1.000  N
  N58      1.0000 0.75950  0.04250  0.32806  Biso   1.000  N
  N59      1.0000 0.53820  0.10750  0.39487  Biso   1.000  N
  N60      1.0000 0.88150  0.12140  0.40488  Biso   1.000  N
  Zn13     1.0000 0.94322  0.16265  0.42711  Biso   1.000  Zn
  Zn14     1.0000 0.75749  0.14999  0.68755  Biso   1.000  Zn
  Zn15     1.0000 0.97372  0.35691  0.58570  Biso   1.000  Zn
  C181     1.0000 0.55530  0.00510  0.96850  Biso   1.000  C
  H121     1.0000 0.53760  0.03440  0.95310  Biso   1.000  H
  C182     1.0000 0.56680  0.06170  0.99260  Biso   1.000  C
  H122     1.0000 0.55650  0.12760  0.99380  Biso   1.000  H
  C183     1.0000 0.59370  0.02050  0.01480  Biso   1.000  C
  C184     1.0000 0.60590  0.92340  0.01240  Biso   1.000  C
  H123     1.0000 0.62370  0.89250  0.02750  Biso   1.000  H
  C185     1.0000 0.59220  0.87120  0.98780  Biso   1.000  C
  H124     1.0000 0.60070  0.80430  0.98650  Biso   1.000  H
  C186     1.0000 0.60800  0.07790  0.04100  Biso   1.000  C
  C187     1.0000 0.60830  0.21790  0.06660  Biso   1.000  C
  C188     1.0000 0.64110  0.08320  0.08620  Biso   1.000  C
  C189     1.0000 0.59240  0.32220  0.07020  Biso   1.000  C
  C190     1.0000 0.56690  0.36670  0.04830  Biso   1.000  C
  H125     1.0000 0.56090  0.33430  0.03030  Biso   1.000  H
  C191     1.0000 0.54980  0.46120  0.05330  Biso   1.000  C
  H126     1.0000 0.53260  0.49320  0.03810  Biso   1.000  H
  C192     1.0000 0.58150  0.46320  0.09950  Biso   1.000  C
  H127     1.0000 0.58660  0.49660  0.11740  Biso   1.000  H
  C193     1.0000 0.60010  0.36990  0.09630  Biso   1.000  C
  H128     1.0000 0.61770  0.33990  0.11170  Biso   1.000  H
  C194     1.0000 0.66340  0.03130  0.11100  Biso   1.000  C
  C195     1.0000 0.68510  0.07900  0.13400  Biso   1.000  C
  H129     1.0000 0.68590  0.14830  0.13440  Biso   1.000  H
  C196     1.0000 0.70550  0.02780  0.15630  Biso   1.000  C
  H130     1.0000 0.72010  0.06270  0.17200  Biso   1.000  H
  C197     1.0000 0.68420  0.88250  0.13550  Biso   1.000  C
  H131     1.0000 0.68300  0.81330  0.13590  Biso   1.000  H
  C198     1.0000 0.66300  0.93250  0.11190  Biso   1.000  C
  H132     1.0000 0.64820  0.89670  0.09650  Biso   1.000  H
  C199     1.0000 0.80870  0.06160  0.73750  Biso   1.000  C
  H133     1.0000 0.83600  0.07930  0.72630  Biso   1.000  H
  C200     1.0000 0.81610  0.02740  0.76580  Biso   1.000  C
  H134     1.0000 0.84760  0.02230  0.77370  Biso   1.000  H
  C201     1.0000 0.77660  0.00130  0.78180  Biso   1.000  C
  C202     1.0000 0.73210  0.00560  0.76920  Biso   1.000  C
  H135     1.0000 0.70460  0.98490  0.77980  Biso   1.000  H
  C203     1.0000 0.72770  0.04070  0.74060  Biso   1.000  C
  H136     1.0000 0.69690  0.04340  0.73170  Biso   1.000  H
  C204     1.0000 0.78130  0.97030  0.81330  Biso   1.000  C
  C205     1.0000 0.82650  0.93580  0.85290  Biso   1.000  C
  C206     1.0000 0.74510  0.93290  0.85604  Biso   1.000  C
  C207     1.0000 0.87360  0.92350  0.86720  Biso   1.000  C
  C208     1.0000 0.91560  0.92920  0.85160  Biso   1.000  C
  H137     1.0000 0.91520  0.94380  0.83120  Biso   1.000  H
  C209     1.0000 0.95900  0.91330  0.86620  Biso   1.000  C
  H138     1.0000 0.98800  0.91730  0.85530  Biso   1.000  H
  C210     1.0000 0.92100  0.88860  0.90980  Biso   1.000  C
  H139     1.0000 0.92250  0.87520  0.93020  Biso   1.000  H
  C211     1.0000 0.87620  0.90320  0.89710  Biso   1.000  C
  H140     1.0000 0.84780  0.89940  0.90860  Biso   1.000  H
  C212     1.0000 0.70170  0.91610  0.87330  Biso   1.000  C
  C213     1.0000 0.70410  0.88540  0.90250  Biso   1.000  C
  H141     1.0000 0.73410  0.87760  0.91210  Biso   1.000  H
  C214     1.0000 0.66150  0.86700  0.91690  Biso   1.000  C
  H142     1.0000 0.66300  0.84470  0.93660  Biso   1.000  H
  C215     1.0000 0.61640  0.91190  0.87730  Biso   1.000  C
  H143     1.0000 0.58580  0.92390  0.86890  Biso   1.000  H
  C216     1.0000 0.65650  0.92960  0.86070  Biso   1.000  C
  H144     1.0000 0.65360  0.95070  0.84090  Biso   1.000  H
  I31      1.0000 0.48845  0.91799  0.89974  Biso   1.000  I
  I32      1.0000 0.57129  0.65610  0.93622  Biso   1.000  I
  I33      1.0000 0.69586  0.69184  0.19551  Biso   1.000  I
  I34      1.0000 0.83090  0.84346  0.17392  Biso   1.000  I
  I35      1.0000 0.57341  0.72880  0.12593  Biso   1.000  I
  I36      1.0000 0.50899  0.71916  0.03577  Biso   1.000  I
  N61      1.0000 0.56760  0.91140  0.96587  Biso   1.000  N
  N62      1.0000 0.59600  0.17190  0.04223  Biso   1.000  N
  N63      1.0000 0.63190  0.17870  0.08932  Biso   1.000  N
  N64      1.0000 0.63010  0.02960  0.06289  Biso   1.000  N
  N65      1.0000 0.55680  0.50790  0.07839  Biso   1.000  N
  N66      1.0000 0.70590  0.92910  0.15719  Biso   1.000  N
  N67      1.0000 0.76630  0.07090  0.72543  Biso   1.000  N
  N68      1.0000 0.82560  0.96060  0.82456  Biso   1.000  N
  N69      1.0000 0.78780  0.92090  0.86923  Biso   1.000  N
  N70      1.0000 0.74050  0.95750  0.82806  Biso   1.000  N
  N71      1.0000 0.96180  0.89250  0.89487  Biso   1.000  N
  N72      1.0000 0.61850  0.87860  0.90488  Biso   1.000  N
  Zn16     1.0000 0.55678  0.83735  0.92711  Biso   1.000  Zn
  Zn17     1.0000 0.74251  0.85001  0.18755  Biso   1.000  Zn
  Zn18     1.0000 0.52628  0.64309  0.08570  Biso   1.000  Zn
  C217     1.0000 0.05530  0.49490  0.03150  Biso   1.000  C
  H145     1.0000 0.03760  0.46560  0.04690  Biso   1.000  H
  C218     1.0000 0.06680  0.43830  0.00740  Biso   1.000  C
  H146     1.0000 0.05650  0.37240  0.00620  Biso   1.000  H
  C219     1.0000 0.09370  0.47950  0.98520  Biso   1.000  C
  C220     1.0000 0.10590  0.57660  0.98760  Biso   1.000  C
  H147     1.0000 0.12370  0.60750  0.97250  Biso   1.000  H
  C221     1.0000 0.09220  0.62880  0.01220  Biso   1.000  C
  H148     1.0000 0.10070  0.69570  0.01350  Biso   1.000  H
  C222     1.0000 0.10800  0.42210  0.95900  Biso   1.000  C
  C223     1.0000 0.10830  0.28210  0.93340  Biso   1.000  C
  C224     1.0000 0.14110  0.41680  0.91380  Biso   1.000  C
  C225     1.0000 0.09240  0.17780  0.92980  Biso   1.000  C
  C226     1.0000 0.06690  0.13330  0.95170  Biso   1.000  C
  H149     1.0000 0.06090  0.16570  0.96970  Biso   1.000  H
  C227     1.0000 0.04980  0.03880  0.94670  Biso   1.000  C
  H150     1.0000 0.03260  0.00680  0.96190  Biso   1.000  H
  C228     1.0000 0.08150  0.03680  0.90050  Biso   1.000  C
  H151     1.0000 0.08660  0.00340  0.88260  Biso   1.000  H
  C229     1.0000 0.10010  0.13010  0.90370  Biso   1.000  C
  H152     1.0000 0.11770  0.16010  0.88830  Biso   1.000  H
  C230     1.0000 0.16340  0.46870  0.88900  Biso   1.000  C
  C231     1.0000 0.18510  0.42100  0.86600  Biso   1.000  C
  H153     1.0000 0.18590  0.35170  0.86560  Biso   1.000  H
  C232     1.0000 0.20550  0.47220  0.84370  Biso   1.000  C
  H154     1.0000 0.22010  0.43730  0.82800  Biso   1.000  H
  C233     1.0000 0.18420  0.61750  0.86450  Biso   1.000  C
  H155     1.0000 0.18300  0.68670  0.86410  Biso   1.000  H
  C234     1.0000 0.16300  0.56750  0.88810  Biso   1.000  C
  H156     1.0000 0.14820  0.60330  0.90350  Biso   1.000  H
  C235     1.0000 0.30870  0.43840  0.26250  Biso   1.000  C
  H157     1.0000 0.33600  0.42070  0.27370  Biso   1.000  H
  C236     1.0000 0.31610  0.47260  0.23420  Biso   1.000  C
  H158     1.0000 0.34760  0.47770  0.22630  Biso   1.000  H
  C237     1.0000 0.27660  0.49870  0.21820  Biso   1.000  C
  C238     1.0000 0.23210  0.49440  0.23080  Biso   1.000  C
  H159     1.0000 0.20460  0.51510  0.22020  Biso   1.000  H
  C239     1.0000 0.22770  0.45930  0.25940  Biso   1.000  C
  H160     1.0000 0.19690  0.45660  0.26830  Biso   1.000  H
  C240     1.0000 0.28130  0.52970  0.18670  Biso   1.000  C
  C241     1.0000 0.32650  0.56420  0.14710  Biso   1.000  C
  C242     1.0000 0.24510  0.56710  0.14396  Biso   1.000  C
  C243     1.0000 0.37360  0.57650  0.13280  Biso   1.000  C
  C244     1.0000 0.41560  0.57080  0.14840  Biso   1.000  C
  H161     1.0000 0.41520  0.55620  0.16880  Biso   1.000  H
  C245     1.0000 0.45900  0.58670  0.13380  Biso   1.000  C
  H162     1.0000 0.48800  0.58270  0.14470  Biso   1.000  H
  C246     1.0000 0.42100  0.61140  0.09020  Biso   1.000  C
  H163     1.0000 0.42250  0.62480  0.06980  Biso   1.000  H
  C247     1.0000 0.37620  0.59680  0.10290  Biso   1.000  C
  H164     1.0000 0.34780  0.60060  0.09140  Biso   1.000  H
  C248     1.0000 0.20170  0.58390  0.12670  Biso   1.000  C
  C249     1.0000 0.20410  0.61460  0.09750  Biso   1.000  C
  H165     1.0000 0.23410  0.62240  0.08790  Biso   1.000  H
  C250     1.0000 0.16150  0.63300  0.08310  Biso   1.000  C
  H166     1.0000 0.16300  0.65530  0.06340  Biso   1.000  H
  C251     1.0000 0.11640  0.58810  0.12270  Biso   1.000  C
  H167     1.0000 0.08580  0.57610  0.13110  Biso   1.000  H
  C252     1.0000 0.15650  0.57040  0.13930  Biso   1.000  C
  H168     1.0000 0.15360  0.54930  0.15910  Biso   1.000  H
  I37      1.0000 0.98845  0.58201  0.10026  Biso   1.000  I
  I38      1.0000 0.07129  0.84390  0.06378  Biso   1.000  I
  I39      1.0000 0.19586  0.80816  0.80449  Biso   1.000  I
  I40      1.0000 0.33090  0.65654  0.82608  Biso   1.000  I
  I41      1.0000 0.07341  0.77120  0.87407  Biso   1.000  I
  I42      1.0000 0.00899  0.78084  0.96423  Biso   1.000  I
  N73      1.0000 0.06760  0.58860  0.03413  Biso   1.000  N
  N74      1.0000 0.09600  0.32810  0.95777  Biso   1.000  N
  N75      1.0000 0.13190  0.32130  0.91068  Biso   1.000  N
  N76      1.0000 0.13010  0.47040  0.93711  Biso   1.000  N
  N77      1.0000 0.05680  0.99210  0.92161  Biso   1.000  N
  N78      1.0000 0.20590  0.57090  0.84281  Biso   1.000  N
  N79      1.0000 0.26630  0.42910  0.27457  Biso   1.000  N
  N80      1.0000 0.32560  0.53940  0.17544  Biso   1.000  N
  N81      1.0000 0.28780  0.57910  0.13077  Biso   1.000  N
  N82      1.0000 0.24050  0.54250  0.17194  Biso   1.000  N
  N83      1.0000 0.46180  0.60750  0.10513  Biso   1.000  N
  N84      1.0000 0.11850  0.62140  0.09512  Biso   1.000  N
  Zn19     1.0000 0.05678  0.66265  0.07289  Biso   1.000  Zn
  Zn20     1.0000 0.24251  0.64999  0.81245  Biso   1.000  Zn
  Zn21     1.0000 0.02628  0.85691  0.91430  Biso   1.000  Zn
  C253     1.0000 0.44470  0.50510  0.53150  Biso   1.000  C
  H169     1.0000 0.46240  0.53440  0.54690  Biso   1.000  H
  C254     1.0000 0.43320  0.56170  0.50740  Biso   1.000  C
  H170     1.0000 0.44350  0.62760  0.50620  Biso   1.000  H
  C255     1.0000 0.40630  0.52050  0.48520  Biso   1.000  C
  C256     1.0000 0.39410  0.42340  0.48760  Biso   1.000  C
  H171     1.0000 0.37630  0.39250  0.47250  Biso   1.000  H
  C257     1.0000 0.40780  0.37120  0.51220  Biso   1.000  C
  H172     1.0000 0.39930  0.30430  0.51350  Biso   1.000  H
  C258     1.0000 0.39200  0.57790  0.45900  Biso   1.000  C
  C259     1.0000 0.39170  0.71790  0.43340  Biso   1.000  C
  C260     1.0000 0.35890  0.58320  0.41380  Biso   1.000  C
  C261     1.0000 0.40760  0.82220  0.42980  Biso   1.000  C
  C262     1.0000 0.43310  0.86670  0.45170  Biso   1.000  C
  H173     1.0000 0.43910  0.83430  0.46970  Biso   1.000  H
  C263     1.0000 0.45020  0.96120  0.44670  Biso   1.000  C
  H174     1.0000 0.46740  0.99320  0.46190  Biso   1.000  H
  C264     1.0000 0.41850  0.96320  0.40050  Biso   1.000  C
  H175     1.0000 0.41340  0.99660  0.38260  Biso   1.000  H
  C265     1.0000 0.39990  0.86990  0.40370  Biso   1.000  C
  H176     1.0000 0.38230  0.83990  0.38830  Biso   1.000  H
  C266     1.0000 0.33660  0.53130  0.38900  Biso   1.000  C
  C267     1.0000 0.31490  0.57900  0.36600  Biso   1.000  C
  H177     1.0000 0.31410  0.64830  0.36560  Biso   1.000  H
  C268     1.0000 0.29450  0.52780  0.34370  Biso   1.000  C
  H178     1.0000 0.27990  0.56270  0.32800  Biso   1.000  H
  C269     1.0000 0.31580  0.38250  0.36450  Biso   1.000  C
  H179     1.0000 0.31700  0.31330  0.36410  Biso   1.000  H
  C270     1.0000 0.33700  0.43250  0.38810  Biso   1.000  C
  H180     1.0000 0.35180  0.39670  0.40350  Biso   1.000  H
  C271     1.0000 0.19130  0.56160  0.76250  Biso   1.000  C
  H181     1.0000 0.16400  0.57930  0.77370  Biso   1.000  H
  C272     1.0000 0.18390  0.52740  0.73420  Biso   1.000  C
  H182     1.0000 0.15240  0.52230  0.72630  Biso   1.000  H
  C273     1.0000 0.22340  0.50130  0.71820  Biso   1.000  C
  C274     1.0000 0.26790  0.50560  0.73080  Biso   1.000  C
  H183     1.0000 0.29540  0.48490  0.72020  Biso   1.000  H
  C275     1.0000 0.27230  0.54070  0.75940  Biso   1.000  C
  H184     1.0000 0.30310  0.54340  0.76830  Biso   1.000  H
  C276     1.0000 0.21870  0.47030  0.68670  Biso   1.000  C
  C277     1.0000 0.17350  0.43580  0.64710  Biso   1.000  C
  C278     1.0000 0.25490  0.43290  0.64396  Biso   1.000  C
  C279     1.0000 0.12640  0.42350  0.63280  Biso   1.000  C
  C280     1.0000 0.08440  0.42920  0.64840  Biso   1.000  C
  H185     1.0000 0.08480  0.44380  0.66880  Biso   1.000  H
  C281     1.0000 0.04100  0.41330  0.63380  Biso   1.000  C
  H186     1.0000 0.01200  0.41730  0.64470  Biso   1.000  H
  C282     1.0000 0.07900  0.38860  0.59020  Biso   1.000  C
  H187     1.0000 0.07750  0.37520  0.56980  Biso   1.000  H
  C283     1.0000 0.12380  0.40320  0.60290  Biso   1.000  C
  H188     1.0000 0.15220  0.39940  0.59140  Biso   1.000  H
  C284     1.0000 0.29830  0.41610  0.62670  Biso   1.000  C
  C285     1.0000 0.29590  0.38540  0.59750  Biso   1.000  C
  H189     1.0000 0.26590  0.37760  0.58790  Biso   1.000  H
  C286     1.0000 0.33850  0.36700  0.58310  Biso   1.000  C
  H190     1.0000 0.33700  0.34470  0.56340  Biso   1.000  H
  C287     1.0000 0.38360  0.41190  0.62270  Biso   1.000  C
  H191     1.0000 0.41420  0.42390  0.63110  Biso   1.000  H
  C288     1.0000 0.34350  0.42960  0.63930  Biso   1.000  C
  H192     1.0000 0.34640  0.45070  0.65910  Biso   1.000  H
  I43      1.0000 0.51155  0.41799  0.60026  Biso   1.000  I
  I44      1.0000 0.42871  0.15610  0.56378  Biso   1.000  I
  I45      1.0000 0.30414  0.19184  0.30449  Biso   1.000  I
  I46      1.0000 0.16910  0.34346  0.32608  Biso   1.000  I
  I47      1.0000 0.42659  0.22880  0.37407  Biso   1.000  I
  I48      1.0000 0.49101  0.21916  0.46423  Biso   1.000  I
  N85      1.0000 0.43240  0.41140  0.53413  Biso   1.000  N
  N86      1.0000 0.40400  0.67190  0.45777  Biso   1.000  N
  N87      1.0000 0.36810  0.67870  0.41068  Biso   1.000  N
  N88      1.0000 0.36990  0.52960  0.43711  Biso   1.000  N
  N89      1.0000 0.44320  0.00790  0.42161  Biso   1.000  N
  N90      1.0000 0.29410  0.42910  0.34281  Biso   1.000  N
  N91      1.0000 0.23370  0.57090  0.77457  Biso   1.000  N
  N92      1.0000 0.17440  0.46060  0.67544  Biso   1.000  N
  N93      1.0000 0.21220  0.42090  0.63077  Biso   1.000  N
  N94      1.0000 0.25950  0.45750  0.67194  Biso   1.000  N
  N95      1.0000 0.03820  0.39250  0.60513  Biso   1.000  N
  N96      1.0000 0.38150  0.37860  0.59512  Biso   1.000  N
  Zn22     1.0000 0.44322  0.33735  0.57289  Biso   1.000  Zn
  Zn23     1.0000 0.25749  0.35001  0.31245  Biso   1.000  Zn
  Zn24     1.0000 0.47372  0.14309  0.41430  Biso   1.000  Zn
