data_image0
_cell_length_a       39.2006
_cell_length_b       39.2006
_cell_length_c       39.2006
_cell_angle_alpha    90
_cell_angle_beta     90
_cell_angle_gamma    90

_symmetry_space_group_name_H-M    "P 1"
_symmetry_int_tables_number       1

loop_
  _symmetry_equiv_pos_as_xyz
  'x, y, z'

loop_
  _atom_site_label
  _atom_site_occupancy
  _atom_site_fract_x
  _atom_site_fract_y
  _atom_site_fract_z
  _atom_site_thermal_displace_type
  _atom_site_B_iso_or_equiv
  _atom_site_type_symbol
  S1       1.0000 0.62990  0.60091  0.70936  Biso   1.000  S
  O1       1.0000 0.65596  0.54092  0.74589  Biso   1.000  O
  O2       1.0000 0.70520  0.53515  0.71830  Biso   1.000  O
  C1       1.0000 0.67652  0.54892  0.72254  Biso   1.000  C
  C2       1.0000 0.66652  0.57756  0.69992  Biso   1.000  C
  C3       1.0000 0.68545  0.58877  0.67043  Biso   1.000  C
  H1       1.0000 0.70590  0.57910  0.66180  Biso   1.000  H
  C4       1.0000 0.66670  0.61814  0.65646  Biso   1.000  C
  C5       1.0000 0.63770  0.62744  0.67547  Biso   1.000  C
  S2       1.0000 0.62990  0.10091  0.20936  Biso   1.000  S
  O3       1.0000 0.65596  0.04092  0.24589  Biso   1.000  O
  O4       1.0000 0.70520  0.03515  0.21830  Biso   1.000  O
  C6       1.0000 0.67652  0.04892  0.22254  Biso   1.000  C
  C7       1.0000 0.66652  0.07756  0.19992  Biso   1.000  C
  C8       1.0000 0.68545  0.08877  0.17043  Biso   1.000  C
  H2       1.0000 0.70590  0.07910  0.16180  Biso   1.000  H
  C9       1.0000 0.66670  0.11814  0.15646  Biso   1.000  C
  C10      1.0000 0.63770  0.12744  0.17547  Biso   1.000  C
  S3       1.0000 0.12990  0.60091  0.20936  Biso   1.000  S
  O5       1.0000 0.15596  0.54092  0.24589  Biso   1.000  O
  O6       1.0000 0.20520  0.53515  0.21830  Biso   1.000  O
  C11      1.0000 0.17652  0.54892  0.22254  Biso   1.000  C
  C12      1.0000 0.16652  0.57756  0.19992  Biso   1.000  C
  C13      1.0000 0.18545  0.58877  0.17043  Biso   1.000  C
  H3       1.0000 0.20590  0.57910  0.16180  Biso   1.000  H
  C14      1.0000 0.16670  0.61814  0.15646  Biso   1.000  C
  C15      1.0000 0.13770  0.62744  0.17547  Biso   1.000  C
  S4       1.0000 0.12990  0.10091  0.70936  Biso   1.000  S
  O7       1.0000 0.15596  0.04092  0.74589  Biso   1.000  O
  O8       1.0000 0.20520  0.03515  0.71830  Biso   1.000  O
  C16      1.0000 0.17652  0.04892  0.72254  Biso   1.000  C
  C17      1.0000 0.16652  0.07756  0.69992  Biso   1.000  C
  C18      1.0000 0.18545  0.08877  0.67043  Biso   1.000  C
  H4       1.0000 0.20590  0.07910  0.66180  Biso   1.000  H
  C19      1.0000 0.16670  0.11814  0.65646  Biso   1.000  C
  C20      1.0000 0.13770  0.12744  0.67547  Biso   1.000  C
  S5       1.0000 0.37010  0.39909  0.70936  Biso   1.000  S
  O9       1.0000 0.34404  0.45908  0.74589  Biso   1.000  O
  O10      1.0000 0.29480  0.46485  0.71830  Biso   1.000  O
  C21      1.0000 0.32348  0.45108  0.72254  Biso   1.000  C
  C22      1.0000 0.33348  0.42244  0.69992  Biso   1.000  C
  C23      1.0000 0.31455  0.41123  0.67043  Biso   1.000  C
  H5       1.0000 0.29410  0.42090  0.66180  Biso   1.000  H
  C24      1.0000 0.33330  0.38186  0.65646  Biso   1.000  C
  C25      1.0000 0.36230  0.37256  0.67547  Biso   1.000  C
  S6       1.0000 0.37010  0.89909  0.20936  Biso   1.000  S
  O11      1.0000 0.34404  0.95908  0.24589  Biso   1.000  O
  O12      1.0000 0.29480  0.96485  0.21830  Biso   1.000  O
  C26      1.0000 0.32348  0.95108  0.22254  Biso   1.000  C
  C27      1.0000 0.33348  0.92244  0.19992  Biso   1.000  C
  C28      1.0000 0.31455  0.91123  0.17043  Biso   1.000  C
  H6       1.0000 0.29410  0.92090  0.16180  Biso   1.000  H
  C29      1.0000 0.33330  0.88186  0.15646  Biso   1.000  C
  C30      1.0000 0.36230  0.87256  0.17547  Biso   1.000  C
  S7       1.0000 0.87010  0.39909  0.20936  Biso   1.000  S
  O13      1.0000 0.84404  0.45908  0.24589  Biso   1.000  O
  O14      1.0000 0.79480  0.46485  0.21830  Biso   1.000  O
  C31      1.0000 0.82348  0.45108  0.22254  Biso   1.000  C
  C32      1.0000 0.83348  0.42244  0.19992  Biso   1.000  C
  C33      1.0000 0.81455  0.41123  0.17043  Biso   1.000  C
  H7       1.0000 0.79410  0.42090  0.16180  Biso   1.000  H
  C34      1.0000 0.83330  0.38186  0.15646  Biso   1.000  C
  C35      1.0000 0.86230  0.37256  0.17547  Biso   1.000  C
  S8       1.0000 0.87010  0.89909  0.70936  Biso   1.000  S
  O15      1.0000 0.84404  0.95908  0.74589  Biso   1.000  O
  O16      1.0000 0.79480  0.96485  0.71830  Biso   1.000  O
  C36      1.0000 0.82348  0.95108  0.72254  Biso   1.000  C
  C37      1.0000 0.83348  0.92244  0.69992  Biso   1.000  C
  C38      1.0000 0.81455  0.91123  0.67043  Biso   1.000  C
  H8       1.0000 0.79410  0.92090  0.66180  Biso   1.000  H
  C39      1.0000 0.83330  0.88186  0.65646  Biso   1.000  C
  C40      1.0000 0.86230  0.87256  0.67547  Biso   1.000  C
  S9       1.0000 0.37010  0.60091  0.29064  Biso   1.000  S
  O17      1.0000 0.34404  0.54092  0.25411  Biso   1.000  O
  O18      1.0000 0.29480  0.53515  0.28170  Biso   1.000  O
  C41      1.0000 0.32348  0.54892  0.27746  Biso   1.000  C
  C42      1.0000 0.33348  0.57756  0.30008  Biso   1.000  C
  C43      1.0000 0.31455  0.58877  0.32957  Biso   1.000  C
  H9       1.0000 0.29410  0.57910  0.33820  Biso   1.000  H
  C44      1.0000 0.33330  0.61814  0.34354  Biso   1.000  C
  C45      1.0000 0.36230  0.62744  0.32453  Biso   1.000  C
  S10      1.0000 0.37010  0.10091  0.79064  Biso   1.000  S
  O19      1.0000 0.34404  0.04092  0.75411  Biso   1.000  O
  O20      1.0000 0.29480  0.03515  0.78170  Biso   1.000  O
  C46      1.0000 0.32348  0.04892  0.77746  Biso   1.000  C
  C47      1.0000 0.33348  0.07756  0.80008  Biso   1.000  C
  C48      1.0000 0.31455  0.08877  0.82957  Biso   1.000  C
  H10      1.0000 0.29410  0.07910  0.83820  Biso   1.000  H
  C49      1.0000 0.33330  0.11814  0.84354  Biso   1.000  C
  C50      1.0000 0.36230  0.12744  0.82453  Biso   1.000  C
  S11      1.0000 0.87010  0.60091  0.79064  Biso   1.000  S
  O21      1.0000 0.84404  0.54092  0.75411  Biso   1.000  O
  O22      1.0000 0.79480  0.53515  0.78170  Biso   1.000  O
  C51      1.0000 0.82348  0.54892  0.77746  Biso   1.000  C
  C52      1.0000 0.83348  0.57756  0.80008  Biso   1.000  C
  C53      1.0000 0.81455  0.58877  0.82957  Biso   1.000  C
  H11      1.0000 0.79410  0.57910  0.83820  Biso   1.000  H
  C54      1.0000 0.83330  0.61814  0.84354  Biso   1.000  C
  C55      1.0000 0.86230  0.62744  0.82453  Biso   1.000  C
  S12      1.0000 0.87010  0.10091  0.29064  Biso   1.000  S
  O23      1.0000 0.84404  0.04092  0.25411  Biso   1.000  O
  O24      1.0000 0.79480  0.03515  0.28170  Biso   1.000  O
  C56      1.0000 0.82348  0.04892  0.27746  Biso   1.000  C
  C57      1.0000 0.83348  0.07756  0.30008  Biso   1.000  C
  C58      1.0000 0.81455  0.08877  0.32957  Biso   1.000  C
  H12      1.0000 0.79410  0.07910  0.33820  Biso   1.000  H
  C59      1.0000 0.83330  0.11814  0.34354  Biso   1.000  C
  C60      1.0000 0.86230  0.12744  0.32453  Biso   1.000  C
  S13      1.0000 0.62990  0.39909  0.29064  Biso   1.000  S
  O25      1.0000 0.65596  0.45908  0.25411  Biso   1.000  O
  O26      1.0000 0.70520  0.46485  0.28170  Biso   1.000  O
  C61      1.0000 0.67652  0.45108  0.27746  Biso   1.000  C
  C62      1.0000 0.66652  0.42244  0.30008  Biso   1.000  C
  C63      1.0000 0.68545  0.41123  0.32957  Biso   1.000  C
  H13      1.0000 0.70590  0.42090  0.33820  Biso   1.000  H
  C64      1.0000 0.66670  0.38186  0.34354  Biso   1.000  C
  C65      1.0000 0.63770  0.37256  0.32453  Biso   1.000  C
  S14      1.0000 0.62990  0.89909  0.79064  Biso   1.000  S
  O27      1.0000 0.65596  0.95908  0.75411  Biso   1.000  O
  O28      1.0000 0.70520  0.96485  0.78170  Biso   1.000  O
  C66      1.0000 0.67652  0.95108  0.77746  Biso   1.000  C
  C67      1.0000 0.66652  0.92244  0.80008  Biso   1.000  C
  C68      1.0000 0.68545  0.91123  0.82957  Biso   1.000  C
  H14      1.0000 0.70590  0.92090  0.83820  Biso   1.000  H
  C69      1.0000 0.66670  0.88186  0.84354  Biso   1.000  C
  C70      1.0000 0.63770  0.87256  0.82453  Biso   1.000  C
  S15      1.0000 0.12990  0.39909  0.79064  Biso   1.000  S
  O29      1.0000 0.15596  0.45908  0.75411  Biso   1.000  O
  O30      1.0000 0.20520  0.46485  0.78170  Biso   1.000  O
  C71      1.0000 0.17652  0.45108  0.77746  Biso   1.000  C
  C72      1.0000 0.16652  0.42244  0.80008  Biso   1.000  C
  C73      1.0000 0.18545  0.41123  0.82957  Biso   1.000  C
  H15      1.0000 0.20590  0.42090  0.83820  Biso   1.000  H
  C74      1.0000 0.16670  0.38186  0.84354  Biso   1.000  C
  C75      1.0000 0.13770  0.37256  0.82453  Biso   1.000  C
  S16      1.0000 0.12990  0.89909  0.29064  Biso   1.000  S
  O31      1.0000 0.15596  0.95908  0.25411  Biso   1.000  O
  O32      1.0000 0.20520  0.96485  0.28170  Biso   1.000  O
  C76      1.0000 0.17652  0.95108  0.27746  Biso   1.000  C
  C77      1.0000 0.16652  0.92244  0.30008  Biso   1.000  C
  C78      1.0000 0.18545  0.91123  0.32957  Biso   1.000  C
  H16      1.0000 0.20590  0.92090  0.33820  Biso   1.000  H
  C79      1.0000 0.16670  0.88186  0.34354  Biso   1.000  C
  C80      1.0000 0.13770  0.87256  0.32453  Biso   1.000  C
  S17      1.0000 0.70936  0.62990  0.60091  Biso   1.000  S
  O33      1.0000 0.74589  0.65596  0.54092  Biso   1.000  O
  O34      1.0000 0.71830  0.70520  0.53515  Biso   1.000  O
  C81      1.0000 0.72254  0.67652  0.54892  Biso   1.000  C
  C82      1.0000 0.69992  0.66652  0.57756  Biso   1.000  C
  C83      1.0000 0.67043  0.68545  0.58877  Biso   1.000  C
  H17      1.0000 0.66180  0.70590  0.57910  Biso   1.000  H
  C84      1.0000 0.65646  0.66670  0.61814  Biso   1.000  C
  C85      1.0000 0.67547  0.63770  0.62744  Biso   1.000  C
  S18      1.0000 0.70936  0.12990  0.10091  Biso   1.000  S
  O35      1.0000 0.74589  0.15596  0.04092  Biso   1.000  O
  O36      1.0000 0.71830  0.20520  0.03515  Biso   1.000  O
  C86      1.0000 0.72254  0.17652  0.04892  Biso   1.000  C
  C87      1.0000 0.69992  0.16652  0.07756  Biso   1.000  C
  C88      1.0000 0.67043  0.18545  0.08877  Biso   1.000  C
  H18      1.0000 0.66180  0.20590  0.07910  Biso   1.000  H
  C89      1.0000 0.65646  0.16670  0.11814  Biso   1.000  C
  C90      1.0000 0.67547  0.13770  0.12744  Biso   1.000  C
  S19      1.0000 0.20936  0.62990  0.10091  Biso   1.000  S
  O37      1.0000 0.24589  0.65596  0.04092  Biso   1.000  O
  O38      1.0000 0.21830  0.70520  0.03515  Biso   1.000  O
  C91      1.0000 0.22254  0.67652  0.04892  Biso   1.000  C
  C92      1.0000 0.19992  0.66652  0.07756  Biso   1.000  C
  C93      1.0000 0.17043  0.68545  0.08877  Biso   1.000  C
  H19      1.0000 0.16180  0.70590  0.07910  Biso   1.000  H
  C94      1.0000 0.15646  0.66670  0.11814  Biso   1.000  C
  C95      1.0000 0.17547  0.63770  0.12744  Biso   1.000  C
  S20      1.0000 0.20936  0.12990  0.60091  Biso   1.000  S
  O39      1.0000 0.24589  0.15596  0.54092  Biso   1.000  O
  O40      1.0000 0.21830  0.20520  0.53515  Biso   1.000  O
  C96      1.0000 0.22254  0.17652  0.54892  Biso   1.000  C
  C97      1.0000 0.19992  0.16652  0.57756  Biso   1.000  C
  C98      1.0000 0.17043  0.18545  0.58877  Biso   1.000  C
  H20      1.0000 0.16180  0.20590  0.57910  Biso   1.000  H
  C99      1.0000 0.15646  0.16670  0.61814  Biso   1.000  C
  C100     1.0000 0.17547  0.13770  0.62744  Biso   1.000  C
  S21      1.0000 0.70936  0.37010  0.39909  Biso   1.000  S
  O41      1.0000 0.74589  0.34404  0.45908  Biso   1.000  O
  O42      1.0000 0.71830  0.29480  0.46485  Biso   1.000  O
  C101     1.0000 0.72254  0.32348  0.45108  Biso   1.000  C
  C102     1.0000 0.69992  0.33348  0.42244  Biso   1.000  C
  C103     1.0000 0.67043  0.31455  0.41123  Biso   1.000  C
  H21      1.0000 0.66180  0.29410  0.42090  Biso   1.000  H
  C104     1.0000 0.65646  0.33330  0.38186  Biso   1.000  C
  C105     1.0000 0.67547  0.36230  0.37256  Biso   1.000  C
  S22      1.0000 0.70936  0.87010  0.89909  Biso   1.000  S
  O43      1.0000 0.74589  0.84404  0.95908  Biso   1.000  O
  O44      1.0000 0.71830  0.79480  0.96485  Biso   1.000  O
  C106     1.0000 0.72254  0.82348  0.95108  Biso   1.000  C
  C107     1.0000 0.69992  0.83348  0.92244  Biso   1.000  C
  C108     1.0000 0.67043  0.81455  0.91123  Biso   1.000  C
  H22      1.0000 0.66180  0.79410  0.92090  Biso   1.000  H
  C109     1.0000 0.65646  0.83330  0.88186  Biso   1.000  C
  C110     1.0000 0.67547  0.86230  0.87256  Biso   1.000  C
  S23      1.0000 0.20936  0.37010  0.89909  Biso   1.000  S
  O45      1.0000 0.24589  0.34404  0.95908  Biso   1.000  O
  O46      1.0000 0.21830  0.29480  0.96485  Biso   1.000  O
  C111     1.0000 0.22254  0.32348  0.95108  Biso   1.000  C
  C112     1.0000 0.19992  0.33348  0.92244  Biso   1.000  C
  C113     1.0000 0.17043  0.31455  0.91123  Biso   1.000  C
  H23      1.0000 0.16180  0.29410  0.92090  Biso   1.000  H
  C114     1.0000 0.15646  0.33330  0.88186  Biso   1.000  C
  C115     1.0000 0.17547  0.36230  0.87256  Biso   1.000  C
  S24      1.0000 0.20936  0.87010  0.39909  Biso   1.000  S
  O47      1.0000 0.24589  0.84404  0.45908  Biso   1.000  O
  O48      1.0000 0.21830  0.79480  0.46485  Biso   1.000  O
  C116     1.0000 0.22254  0.82348  0.45108  Biso   1.000  C
  C117     1.0000 0.19992  0.83348  0.42244  Biso   1.000  C
  C118     1.0000 0.17043  0.81455  0.41123  Biso   1.000  C
  H24      1.0000 0.16180  0.79410  0.42090  Biso   1.000  H
  C119     1.0000 0.15646  0.83330  0.38186  Biso   1.000  C
  C120     1.0000 0.17547  0.86230  0.37256  Biso   1.000  C
  S25      1.0000 0.29064  0.37010  0.60091  Biso   1.000  S
  O49      1.0000 0.25411  0.34404  0.54092  Biso   1.000  O
  O50      1.0000 0.28170  0.29480  0.53515  Biso   1.000  O
  C121     1.0000 0.27746  0.32348  0.54892  Biso   1.000  C
  C122     1.0000 0.30008  0.33348  0.57756  Biso   1.000  C
  C123     1.0000 0.32957  0.31455  0.58877  Biso   1.000  C
  H25      1.0000 0.33820  0.29410  0.57910  Biso   1.000  H
  C124     1.0000 0.34354  0.33330  0.61814  Biso   1.000  C
  C125     1.0000 0.32453  0.36230  0.62744  Biso   1.000  C
  S26      1.0000 0.29064  0.87010  0.10091  Biso   1.000  S
  O51      1.0000 0.25411  0.84404  0.04092  Biso   1.000  O
  O52      1.0000 0.28170  0.79480  0.03515  Biso   1.000  O
  C126     1.0000 0.27746  0.82348  0.04892  Biso   1.000  C
  C127     1.0000 0.30008  0.83348  0.07756  Biso   1.000  C
  C128     1.0000 0.32957  0.81455  0.08877  Biso   1.000  C
  H26      1.0000 0.33820  0.79410  0.07910  Biso   1.000  H
  C129     1.0000 0.34354  0.83330  0.11814  Biso   1.000  C
  C130     1.0000 0.32453  0.86230  0.12744  Biso   1.000  C
  S27      1.0000 0.79064  0.37010  0.10091  Biso   1.000  S
  O53      1.0000 0.75411  0.34404  0.04092  Biso   1.000  O
  O54      1.0000 0.78170  0.29480  0.03515  Biso   1.000  O
  C131     1.0000 0.77746  0.32348  0.04892  Biso   1.000  C
  C132     1.0000 0.80008  0.33348  0.07756  Biso   1.000  C
  C133     1.0000 0.82957  0.31455  0.08877  Biso   1.000  C
  H27      1.0000 0.83820  0.29410  0.07910  Biso   1.000  H
  C134     1.0000 0.84354  0.33330  0.11814  Biso   1.000  C
  C135     1.0000 0.82453  0.36230  0.12744  Biso   1.000  C
  S28      1.0000 0.79064  0.87010  0.60091  Biso   1.000  S
  O55      1.0000 0.75411  0.84404  0.54092  Biso   1.000  O
  O56      1.0000 0.78170  0.79480  0.53515  Biso   1.000  O
  C136     1.0000 0.77746  0.82348  0.54892  Biso   1.000  C
  C137     1.0000 0.80008  0.83348  0.57756  Biso   1.000  C
  C138     1.0000 0.82957  0.81455  0.58877  Biso   1.000  C
  H28      1.0000 0.83820  0.79410  0.57910  Biso   1.000  H
  C139     1.0000 0.84354  0.83330  0.61814  Biso   1.000  C
  C140     1.0000 0.82453  0.86230  0.62744  Biso   1.000  C
  S29      1.0000 0.29064  0.62990  0.39909  Biso   1.000  S
  O57      1.0000 0.25411  0.65596  0.45908  Biso   1.000  O
  O58      1.0000 0.28170  0.70520  0.46485  Biso   1.000  O
  C141     1.0000 0.27746  0.67652  0.45108  Biso   1.000  C
  C142     1.0000 0.30008  0.66652  0.42244  Biso   1.000  C
  C143     1.0000 0.32957  0.68545  0.41123  Biso   1.000  C
  H29      1.0000 0.33820  0.70590  0.42090  Biso   1.000  H
  C144     1.0000 0.34354  0.66670  0.38186  Biso   1.000  C
  C145     1.0000 0.32453  0.63770  0.37256  Biso   1.000  C
  S30      1.0000 0.29064  0.12990  0.89909  Biso   1.000  S
  O59      1.0000 0.25411  0.15596  0.95908  Biso   1.000  O
  O60      1.0000 0.28170  0.20520  0.96485  Biso   1.000  O
  C146     1.0000 0.27746  0.17652  0.95108  Biso   1.000  C
  C147     1.0000 0.30008  0.16652  0.92244  Biso   1.000  C
  C148     1.0000 0.32957  0.18545  0.91123  Biso   1.000  C
  H30      1.0000 0.33820  0.20590  0.92090  Biso   1.000  H
  C149     1.0000 0.34354  0.16670  0.88186  Biso   1.000  C
  C150     1.0000 0.32453  0.13770  0.87256  Biso   1.000  C
  S31      1.0000 0.79064  0.62990  0.89909  Biso   1.000  S
  O61      1.0000 0.75411  0.65596  0.95908  Biso   1.000  O
  O62      1.0000 0.78170  0.70520  0.96485  Biso   1.000  O
  C151     1.0000 0.77746  0.67652  0.95108  Biso   1.000  C
  C152     1.0000 0.80008  0.66652  0.92244  Biso   1.000  C
  C153     1.0000 0.82957  0.68545  0.91123  Biso   1.000  C
  H31      1.0000 0.83820  0.70590  0.92090  Biso   1.000  H
  C154     1.0000 0.84354  0.66670  0.88186  Biso   1.000  C
  C155     1.0000 0.82453  0.63770  0.87256  Biso   1.000  C
  S32      1.0000 0.79064  0.12990  0.39909  Biso   1.000  S
  O63      1.0000 0.75411  0.15596  0.45908  Biso   1.000  O
  O64      1.0000 0.78170  0.20520  0.46485  Biso   1.000  O
  C156     1.0000 0.77746  0.17652  0.45108  Biso   1.000  C
  C157     1.0000 0.80008  0.16652  0.42244  Biso   1.000  C
  C158     1.0000 0.82957  0.18545  0.41123  Biso   1.000  C
  H32      1.0000 0.83820  0.20590  0.42090  Biso   1.000  H
  C159     1.0000 0.84354  0.16670  0.38186  Biso   1.000  C
  C160     1.0000 0.82453  0.13770  0.37256  Biso   1.000  C
  S33      1.0000 0.60091  0.70936  0.62990  Biso   1.000  S
  O65      1.0000 0.54092  0.74589  0.65596  Biso   1.000  O
  O66      1.0000 0.53515  0.71830  0.70520  Biso   1.000  O
  C161     1.0000 0.54892  0.72254  0.67652  Biso   1.000  C
  C162     1.0000 0.57756  0.69992  0.66652  Biso   1.000  C
  C163     1.0000 0.58877  0.67043  0.68545  Biso   1.000  C
  H33      1.0000 0.57910  0.66180  0.70590  Biso   1.000  H
  C164     1.0000 0.61814  0.65646  0.66670  Biso   1.000  C
  C165     1.0000 0.62744  0.67547  0.63770  Biso   1.000  C
  S34      1.0000 0.60091  0.20936  0.12990  Biso   1.000  S
  O67      1.0000 0.54092  0.24589  0.15596  Biso   1.000  O
  O68      1.0000 0.53515  0.21830  0.20520  Biso   1.000  O
  C166     1.0000 0.54892  0.22254  0.17652  Biso   1.000  C
  C167     1.0000 0.57756  0.19992  0.16652  Biso   1.000  C
  C168     1.0000 0.58877  0.17043  0.18545  Biso   1.000  C
  H34      1.0000 0.57910  0.16180  0.20590  Biso   1.000  H
  C169     1.0000 0.61814  0.15646  0.16670  Biso   1.000  C
  C170     1.0000 0.62744  0.17547  0.13770  Biso   1.000  C
  S35      1.0000 0.10091  0.70936  0.12990  Biso   1.000  S
  O69      1.0000 0.04092  0.74589  0.15596  Biso   1.000  O
  O70      1.0000 0.03515  0.71830  0.20520  Biso   1.000  O
  C171     1.0000 0.04892  0.72254  0.17652  Biso   1.000  C
  C172     1.0000 0.07756  0.69992  0.16652  Biso   1.000  C
  C173     1.0000 0.08877  0.67043  0.18545  Biso   1.000  C
  H35      1.0000 0.07910  0.66180  0.20590  Biso   1.000  H
  C174     1.0000 0.11814  0.65646  0.16670  Biso   1.000  C
  C175     1.0000 0.12744  0.67547  0.13770  Biso   1.000  C
  S36      1.0000 0.10091  0.20936  0.62990  Biso   1.000  S
  O71      1.0000 0.04092  0.24589  0.65596  Biso   1.000  O
  O72      1.0000 0.03515  0.21830  0.70520  Biso   1.000  O
  C176     1.0000 0.04892  0.22254  0.67652  Biso   1.000  C
  C177     1.0000 0.07756  0.19992  0.66652  Biso   1.000  C
  C178     1.0000 0.08877  0.17043  0.68545  Biso   1.000  C
  H36      1.0000 0.07910  0.16180  0.70590  Biso   1.000  H
  C179     1.0000 0.11814  0.15646  0.66670  Biso   1.000  C
  C180     1.0000 0.12744  0.17547  0.63770  Biso   1.000  C
  S37      1.0000 0.39909  0.70936  0.37010  Biso   1.000  S
  O73      1.0000 0.45908  0.74589  0.34404  Biso   1.000  O
  O74      1.0000 0.46485  0.71830  0.29480  Biso   1.000  O
  C181     1.0000 0.45108  0.72254  0.32348  Biso   1.000  C
  C182     1.0000 0.42244  0.69992  0.33348  Biso   1.000  C
  C183     1.0000 0.41123  0.67043  0.31455  Biso   1.000  C
  H37      1.0000 0.42090  0.66180  0.29410  Biso   1.000  H
  C184     1.0000 0.38186  0.65646  0.33330  Biso   1.000  C
  C185     1.0000 0.37256  0.67547  0.36230  Biso   1.000  C
  S38      1.0000 0.39909  0.20936  0.87010  Biso   1.000  S
  O75      1.0000 0.45908  0.24589  0.84404  Biso   1.000  O
  O76      1.0000 0.46485  0.21830  0.79480  Biso   1.000  O
  C186     1.0000 0.45108  0.22254  0.82348  Biso   1.000  C
  C187     1.0000 0.42244  0.19992  0.83348  Biso   1.000  C
  C188     1.0000 0.41123  0.17043  0.81455  Biso   1.000  C
  H38      1.0000 0.42090  0.16180  0.79410  Biso   1.000  H
  C189     1.0000 0.38186  0.15646  0.83330  Biso   1.000  C
  C190     1.0000 0.37256  0.17547  0.86230  Biso   1.000  C
  S39      1.0000 0.89909  0.70936  0.87010  Biso   1.000  S
  O77      1.0000 0.95908  0.74589  0.84404  Biso   1.000  O
  O78      1.0000 0.96485  0.71830  0.79480  Biso   1.000  O
  C191     1.0000 0.95108  0.72254  0.82348  Biso   1.000  C
  C192     1.0000 0.92244  0.69992  0.83348  Biso   1.000  C
  C193     1.0000 0.91123  0.67043  0.81455  Biso   1.000  C
  H39      1.0000 0.92090  0.66180  0.79410  Biso   1.000  H
  C194     1.0000 0.88186  0.65646  0.83330  Biso   1.000  C
  C195     1.0000 0.87256  0.67547  0.86230  Biso   1.000  C
  S40      1.0000 0.89909  0.20936  0.37010  Biso   1.000  S
  O79      1.0000 0.95908  0.24589  0.34404  Biso   1.000  O
  O80      1.0000 0.96485  0.21830  0.29480  Biso   1.000  O
  C196     1.0000 0.95108  0.22254  0.32348  Biso   1.000  C
  C197     1.0000 0.92244  0.19992  0.33348  Biso   1.000  C
  C198     1.0000 0.91123  0.17043  0.31455  Biso   1.000  C
  H40      1.0000 0.92090  0.16180  0.29410  Biso   1.000  H
  C199     1.0000 0.88186  0.15646  0.33330  Biso   1.000  C
  C200     1.0000 0.87256  0.17547  0.36230  Biso   1.000  C
  S41      1.0000 0.60091  0.29064  0.37010  Biso   1.000  S
  O81      1.0000 0.54092  0.25411  0.34404  Biso   1.000  O
  O82      1.0000 0.53515  0.28170  0.29480  Biso   1.000  O
  C201     1.0000 0.54892  0.27746  0.32348  Biso   1.000  C
  C202     1.0000 0.57756  0.30008  0.33348  Biso   1.000  C
  C203     1.0000 0.58877  0.32957  0.31455  Biso   1.000  C
  H41      1.0000 0.57910  0.33820  0.29410  Biso   1.000  H
  C204     1.0000 0.61814  0.34354  0.33330  Biso   1.000  C
  C205     1.0000 0.62744  0.32453  0.36230  Biso   1.000  C
  S42      1.0000 0.60091  0.79064  0.87010  Biso   1.000  S
  O83      1.0000 0.54092  0.75411  0.84404  Biso   1.000  O
  O84      1.0000 0.53515  0.78170  0.79480  Biso   1.000  O
  C206     1.0000 0.54892  0.77746  0.82348  Biso   1.000  C
  C207     1.0000 0.57756  0.80008  0.83348  Biso   1.000  C
  C208     1.0000 0.58877  0.82957  0.81455  Biso   1.000  C
  H42      1.0000 0.57910  0.83820  0.79410  Biso   1.000  H
  C209     1.0000 0.61814  0.84354  0.83330  Biso   1.000  C
  C210     1.0000 0.62744  0.82453  0.86230  Biso   1.000  C
  S43      1.0000 0.10091  0.29064  0.87010  Biso   1.000  S
  O85      1.0000 0.04092  0.25411  0.84404  Biso   1.000  O
  O86      1.0000 0.03515  0.28170  0.79480  Biso   1.000  O
  C211     1.0000 0.04892  0.27746  0.82348  Biso   1.000  C
  C212     1.0000 0.07756  0.30008  0.83348  Biso   1.000  C
  C213     1.0000 0.08877  0.32957  0.81455  Biso   1.000  C
  H43      1.0000 0.07910  0.33820  0.79410  Biso   1.000  H
  C214     1.0000 0.11814  0.34354  0.83330  Biso   1.000  C
  C215     1.0000 0.12744  0.32453  0.86230  Biso   1.000  C
  S44      1.0000 0.10091  0.79064  0.37010  Biso   1.000  S
  O87      1.0000 0.04092  0.75411  0.34404  Biso   1.000  O
  O88      1.0000 0.03515  0.78170  0.29480  Biso   1.000  O
  C216     1.0000 0.04892  0.77746  0.32348  Biso   1.000  C
  C217     1.0000 0.07756  0.80008  0.33348  Biso   1.000  C
  C218     1.0000 0.08877  0.82957  0.31455  Biso   1.000  C
  H44      1.0000 0.07910  0.83820  0.29410  Biso   1.000  H
  C219     1.0000 0.11814  0.84354  0.33330  Biso   1.000  C
  C220     1.0000 0.12744  0.82453  0.36230  Biso   1.000  C
  S45      1.0000 0.39909  0.29064  0.62990  Biso   1.000  S
  O89      1.0000 0.45908  0.25411  0.65596  Biso   1.000  O
  O90      1.0000 0.46485  0.28170  0.70520  Biso   1.000  O
  C221     1.0000 0.45108  0.27746  0.67652  Biso   1.000  C
  C222     1.0000 0.42244  0.30008  0.66652  Biso   1.000  C
  C223     1.0000 0.41123  0.32957  0.68545  Biso   1.000  C
  H45      1.0000 0.42090  0.33820  0.70590  Biso   1.000  H
  C224     1.0000 0.38186  0.34354  0.66670  Biso   1.000  C
  C225     1.0000 0.37256  0.32453  0.63770  Biso   1.000  C
  S46      1.0000 0.39909  0.79064  0.12990  Biso   1.000  S
  O91      1.0000 0.45908  0.75411  0.15596  Biso   1.000  O
  O92      1.0000 0.46485  0.78170  0.20520  Biso   1.000  O
  C226     1.0000 0.45108  0.77746  0.17652  Biso   1.000  C
  C227     1.0000 0.42244  0.80008  0.16652  Biso   1.000  C
  C228     1.0000 0.41123  0.82957  0.18545  Biso   1.000  C
  H46      1.0000 0.42090  0.83820  0.20590  Biso   1.000  H
  C229     1.0000 0.38186  0.84354  0.16670  Biso   1.000  C
  C230     1.0000 0.37256  0.82453  0.13770  Biso   1.000  C
  S47      1.0000 0.89909  0.29064  0.12990  Biso   1.000  S
  O93      1.0000 0.95908  0.25411  0.15596  Biso   1.000  O
  O94      1.0000 0.96485  0.28170  0.20520  Biso   1.000  O
  C231     1.0000 0.95108  0.27746  0.17652  Biso   1.000  C
  C232     1.0000 0.92244  0.30008  0.16652  Biso   1.000  C
  C233     1.0000 0.91123  0.32957  0.18545  Biso   1.000  C
  H47      1.0000 0.92090  0.33820  0.20590  Biso   1.000  H
  C234     1.0000 0.88186  0.34354  0.16670  Biso   1.000  C
  C235     1.0000 0.87256  0.32453  0.13770  Biso   1.000  C
  S48      1.0000 0.89909  0.79064  0.62990  Biso   1.000  S
  O95      1.0000 0.95908  0.75411  0.65596  Biso   1.000  O
  O96      1.0000 0.96485  0.78170  0.70520  Biso   1.000  O
  C236     1.0000 0.95108  0.77746  0.67652  Biso   1.000  C
  C237     1.0000 0.92244  0.80008  0.66652  Biso   1.000  C
  C238     1.0000 0.91123  0.82957  0.68545  Biso   1.000  C
  H48      1.0000 0.92090  0.83820  0.70590  Biso   1.000  H
  C239     1.0000 0.88186  0.84354  0.66670  Biso   1.000  C
  C240     1.0000 0.87256  0.82453  0.63770  Biso   1.000  C
  S49      1.0000 0.10091  0.12990  0.79064  Biso   1.000  S
  O97      1.0000 0.04092  0.15596  0.75411  Biso   1.000  O
  O98      1.0000 0.03515  0.20520  0.78170  Biso   1.000  O
  C241     1.0000 0.04892  0.17652  0.77746  Biso   1.000  C
  C242     1.0000 0.07756  0.16652  0.80008  Biso   1.000  C
  C243     1.0000 0.08877  0.18545  0.82957  Biso   1.000  C
  H49      1.0000 0.07910  0.20590  0.83820  Biso   1.000  H
  C244     1.0000 0.11814  0.16670  0.84354  Biso   1.000  C
  C245     1.0000 0.12744  0.13770  0.82453  Biso   1.000  C
  S50      1.0000 0.10091  0.62990  0.29064  Biso   1.000  S
  O99      1.0000 0.04092  0.65596  0.25411  Biso   1.000  O
  O100     1.0000 0.03515  0.70520  0.28170  Biso   1.000  O
  C246     1.0000 0.04892  0.67652  0.27746  Biso   1.000  C
  C247     1.0000 0.07756  0.66652  0.30008  Biso   1.000  C
  C248     1.0000 0.08877  0.68545  0.32957  Biso   1.000  C
  H50      1.0000 0.07910  0.70590  0.33820  Biso   1.000  H
  C249     1.0000 0.11814  0.66670  0.34354  Biso   1.000  C
  C250     1.0000 0.12744  0.63770  0.32453  Biso   1.000  C
  S51      1.0000 0.60091  0.12990  0.29064  Biso   1.000  S
  O101     1.0000 0.54092  0.15596  0.25411  Biso   1.000  O
  O102     1.0000 0.53515  0.20520  0.28170  Biso   1.000  O
  C251     1.0000 0.54892  0.17652  0.27746  Biso   1.000  C
  C252     1.0000 0.57756  0.16652  0.30008  Biso   1.000  C
  C253     1.0000 0.58877  0.18545  0.32957  Biso   1.000  C
  H51      1.0000 0.57910  0.20590  0.33820  Biso   1.000  H
  C254     1.0000 0.61814  0.16670  0.34354  Biso   1.000  C
  C255     1.0000 0.62744  0.13770  0.32453  Biso   1.000  C
  S52      1.0000 0.60091  0.62990  0.79064  Biso   1.000  S
  O103     1.0000 0.54092  0.65596  0.75411  Biso   1.000  O
  O104     1.0000 0.53515  0.70520  0.78170  Biso   1.000  O
  C256     1.0000 0.54892  0.67652  0.77746  Biso   1.000  C
  C257     1.0000 0.57756  0.66652  0.80008  Biso   1.000  C
  C258     1.0000 0.58877  0.68545  0.82957  Biso   1.000  C
  H52      1.0000 0.57910  0.70590  0.83820  Biso   1.000  H
  C259     1.0000 0.61814  0.66670  0.84354  Biso   1.000  C
  C260     1.0000 0.62744  0.63770  0.82453  Biso   1.000  C
  S53      1.0000 0.89909  0.87010  0.79064  Biso   1.000  S
  O105     1.0000 0.95908  0.84404  0.75411  Biso   1.000  O
  O106     1.0000 0.96485  0.79480  0.78170  Biso   1.000  O
  C261     1.0000 0.95108  0.82348  0.77746  Biso   1.000  C
  C262     1.0000 0.92244  0.83348  0.80008  Biso   1.000  C
  C263     1.0000 0.91123  0.81455  0.82957  Biso   1.000  C
  H53      1.0000 0.92090  0.79410  0.83820  Biso   1.000  H
  C264     1.0000 0.88186  0.83330  0.84354  Biso   1.000  C
  C265     1.0000 0.87256  0.86230  0.82453  Biso   1.000  C
  S54      1.0000 0.89909  0.37010  0.29064  Biso   1.000  S
  O107     1.0000 0.95908  0.34404  0.25411  Biso   1.000  O
  O108     1.0000 0.96485  0.29480  0.28170  Biso   1.000  O
  C266     1.0000 0.95108  0.32348  0.27746  Biso   1.000  C
  C267     1.0000 0.92244  0.33348  0.30008  Biso   1.000  C
  C268     1.0000 0.91123  0.31455  0.32957  Biso   1.000  C
  H54      1.0000 0.92090  0.29410  0.33820  Biso   1.000  H
  C269     1.0000 0.88186  0.33330  0.34354  Biso   1.000  C
  C270     1.0000 0.87256  0.36230  0.32453  Biso   1.000  C
  S55      1.0000 0.39909  0.87010  0.29064  Biso   1.000  S
  O109     1.0000 0.45908  0.84404  0.25411  Biso   1.000  O
  O110     1.0000 0.46485  0.79480  0.28170  Biso   1.000  O
  C271     1.0000 0.45108  0.82348  0.27746  Biso   1.000  C
  C272     1.0000 0.42244  0.83348  0.30008  Biso   1.000  C
  C273     1.0000 0.41123  0.81455  0.32957  Biso   1.000  C
  H55      1.0000 0.42090  0.79410  0.33820  Biso   1.000  H
  C274     1.0000 0.38186  0.83330  0.34354  Biso   1.000  C
  C275     1.0000 0.37256  0.86230  0.32453  Biso   1.000  C
  S56      1.0000 0.39909  0.37010  0.79064  Biso   1.000  S
  O111     1.0000 0.45908  0.34404  0.75411  Biso   1.000  O
  O112     1.0000 0.46485  0.29480  0.78170  Biso   1.000  O
  C276     1.0000 0.45108  0.32348  0.77746  Biso   1.000  C
  C277     1.0000 0.42244  0.33348  0.80008  Biso   1.000  C
  C278     1.0000 0.41123  0.31455  0.82957  Biso   1.000  C
  H56      1.0000 0.42090  0.29410  0.83820  Biso   1.000  H
  C279     1.0000 0.38186  0.33330  0.84354  Biso   1.000  C
  C280     1.0000 0.37256  0.36230  0.82453  Biso   1.000  C
  S57      1.0000 0.10091  0.87010  0.20936  Biso   1.000  S
  O113     1.0000 0.04092  0.84404  0.24589  Biso   1.000  O
  O114     1.0000 0.03515  0.79480  0.21830  Biso   1.000  O
  C281     1.0000 0.04892  0.82348  0.22254  Biso   1.000  C
  C282     1.0000 0.07756  0.83348  0.19992  Biso   1.000  C
  C283     1.0000 0.08877  0.81455  0.17043  Biso   1.000  C
  H57      1.0000 0.07910  0.79410  0.16180  Biso   1.000  H
  C284     1.0000 0.11814  0.83330  0.15646  Biso   1.000  C
  C285     1.0000 0.12744  0.86230  0.17547  Biso   1.000  C
  S58      1.0000 0.10091  0.37010  0.70936  Biso   1.000  S
  O115     1.0000 0.04092  0.34404  0.74589  Biso   1.000  O
  O116     1.0000 0.03515  0.29480  0.71830  Biso   1.000  O
  C286     1.0000 0.04892  0.32348  0.72254  Biso   1.000  C
  C287     1.0000 0.07756  0.33348  0.69992  Biso   1.000  C
  C288     1.0000 0.08877  0.31455  0.67043  Biso   1.000  C
  H58      1.0000 0.07910  0.29410  0.66180  Biso   1.000  H
  C289     1.0000 0.11814  0.33330  0.65646  Biso   1.000  C
  C290     1.0000 0.12744  0.36230  0.67547  Biso   1.000  C
  S59      1.0000 0.60091  0.87010  0.70936  Biso   1.000  S
  O117     1.0000 0.54092  0.84404  0.74589  Biso   1.000  O
  O118     1.0000 0.53515  0.79480  0.71830  Biso   1.000  O
  C291     1.0000 0.54892  0.82348  0.72254  Biso   1.000  C
  C292     1.0000 0.57756  0.83348  0.69992  Biso   1.000  C
  C293     1.0000 0.58877  0.81455  0.67043  Biso   1.000  C
  H59      1.0000 0.57910  0.79410  0.66180  Biso   1.000  H
  C294     1.0000 0.61814  0.83330  0.65646  Biso   1.000  C
  C295     1.0000 0.62744  0.86230  0.67547  Biso   1.000  C
  S60      1.0000 0.60091  0.37010  0.20936  Biso   1.000  S
  O119     1.0000 0.54092  0.34404  0.24589  Biso   1.000  O
  O120     1.0000 0.53515  0.29480  0.21830  Biso   1.000  O
  C296     1.0000 0.54892  0.32348  0.22254  Biso   1.000  C
  C297     1.0000 0.57756  0.33348  0.19992  Biso   1.000  C
  C298     1.0000 0.58877  0.31455  0.17043  Biso   1.000  C
  H60      1.0000 0.57910  0.29410  0.16180  Biso   1.000  H
  C299     1.0000 0.61814  0.33330  0.15646  Biso   1.000  C
  C300     1.0000 0.62744  0.36230  0.17547  Biso   1.000  C
  S61      1.0000 0.89909  0.12990  0.20936  Biso   1.000  S
  O121     1.0000 0.95908  0.15596  0.24589  Biso   1.000  O
  O122     1.0000 0.96485  0.20520  0.21830  Biso   1.000  O
  C301     1.0000 0.95108  0.17652  0.22254  Biso   1.000  C
  C302     1.0000 0.92244  0.16652  0.19992  Biso   1.000  C
  C303     1.0000 0.91123  0.18545  0.17043  Biso   1.000  C
  H61      1.0000 0.92090  0.20590  0.16180  Biso   1.000  H
  C304     1.0000 0.88186  0.16670  0.15646  Biso   1.000  C
  C305     1.0000 0.87256  0.13770  0.17547  Biso   1.000  C
  S62      1.0000 0.89909  0.62990  0.70936  Biso   1.000  S
  O123     1.0000 0.95908  0.65596  0.74589  Biso   1.000  O
  O124     1.0000 0.96485  0.70520  0.71830  Biso   1.000  O
  C306     1.0000 0.95108  0.67652  0.72254  Biso   1.000  C
  C307     1.0000 0.92244  0.66652  0.69992  Biso   1.000  C
  C308     1.0000 0.91123  0.68545  0.67043  Biso   1.000  C
  H62      1.0000 0.92090  0.70590  0.66180  Biso   1.000  H
  C309     1.0000 0.88186  0.66670  0.65646  Biso   1.000  C
  C310     1.0000 0.87256  0.63770  0.67547  Biso   1.000  C
  S63      1.0000 0.39909  0.12990  0.70936  Biso   1.000  S
  O125     1.0000 0.45908  0.15596  0.74589  Biso   1.000  O
  O126     1.0000 0.46485  0.20520  0.71830  Biso   1.000  O
  C311     1.0000 0.45108  0.17652  0.72254  Biso   1.000  C
  C312     1.0000 0.42244  0.16652  0.69992  Biso   1.000  C
  C313     1.0000 0.41123  0.18545  0.67043  Biso   1.000  C
  H63      1.0000 0.42090  0.20590  0.66180  Biso   1.000  H
  C314     1.0000 0.38186  0.16670  0.65646  Biso   1.000  C
  C315     1.0000 0.37256  0.13770  0.67547  Biso   1.000  C
  S64      1.0000 0.39909  0.62990  0.20936  Biso   1.000  S
  O127     1.0000 0.45908  0.65596  0.24589  Biso   1.000  O
  O128     1.0000 0.46485  0.70520  0.21830  Biso   1.000  O
  C316     1.0000 0.45108  0.67652  0.22254  Biso   1.000  C
  C317     1.0000 0.42244  0.66652  0.19992  Biso   1.000  C
  C318     1.0000 0.41123  0.68545  0.17043  Biso   1.000  C
  H64      1.0000 0.42090  0.70590  0.16180  Biso   1.000  H
  C319     1.0000 0.38186  0.66670  0.15646  Biso   1.000  C
  C320     1.0000 0.37256  0.63770  0.17547  Biso   1.000  C
  S65      1.0000 0.12990  0.20936  0.89909  Biso   1.000  S
  O129     1.0000 0.15596  0.24589  0.95908  Biso   1.000  O
  O130     1.0000 0.20520  0.21830  0.96485  Biso   1.000  O
  C321     1.0000 0.17652  0.22254  0.95108  Biso   1.000  C
  C322     1.0000 0.16652  0.19992  0.92244  Biso   1.000  C
  C323     1.0000 0.18545  0.17043  0.91123  Biso   1.000  C
  H65      1.0000 0.20590  0.16180  0.92090  Biso   1.000  H
  C324     1.0000 0.16670  0.15646  0.88186  Biso   1.000  C
  C325     1.0000 0.13770  0.17547  0.87256  Biso   1.000  C
  S66      1.0000 0.12990  0.70936  0.39909  Biso   1.000  S
  O131     1.0000 0.15596  0.74589  0.45908  Biso   1.000  O
  O132     1.0000 0.20520  0.71830  0.46485  Biso   1.000  O
  C326     1.0000 0.17652  0.72254  0.45108  Biso   1.000  C
  C327     1.0000 0.16652  0.69992  0.42244  Biso   1.000  C
  C328     1.0000 0.18545  0.67043  0.41123  Biso   1.000  C
  H66      1.0000 0.20590  0.66180  0.42090  Biso   1.000  H
  C329     1.0000 0.16670  0.65646  0.38186  Biso   1.000  C
  C330     1.0000 0.13770  0.67547  0.37256  Biso   1.000  C
  S67      1.0000 0.62990  0.20936  0.39909  Biso   1.000  S
  O133     1.0000 0.65596  0.24589  0.45908  Biso   1.000  O
  O134     1.0000 0.70520  0.21830  0.46485  Biso   1.000  O
  C331     1.0000 0.67652  0.22254  0.45108  Biso   1.000  C
  C332     1.0000 0.66652  0.19992  0.42244  Biso   1.000  C
  C333     1.0000 0.68545  0.17043  0.41123  Biso   1.000  C
  H67      1.0000 0.70590  0.16180  0.42090  Biso   1.000  H
  C334     1.0000 0.66670  0.15646  0.38186  Biso   1.000  C
  C335     1.0000 0.63770  0.17547  0.37256  Biso   1.000  C
  S68      1.0000 0.62990  0.70936  0.89909  Biso   1.000  S
  O135     1.0000 0.65596  0.74589  0.95908  Biso   1.000  O
  O136     1.0000 0.70520  0.71830  0.96485  Biso   1.000  O
  C336     1.0000 0.67652  0.72254  0.95108  Biso   1.000  C
  C337     1.0000 0.66652  0.69992  0.92244  Biso   1.000  C
  C338     1.0000 0.68545  0.67043  0.91123  Biso   1.000  C
  H68      1.0000 0.70590  0.66180  0.92090  Biso   1.000  H
  C339     1.0000 0.66670  0.65646  0.88186  Biso   1.000  C
  C340     1.0000 0.63770  0.67547  0.87256  Biso   1.000  C
  S69      1.0000 0.87010  0.20936  0.10091  Biso   1.000  S
  O137     1.0000 0.84404  0.24589  0.04092  Biso   1.000  O
  O138     1.0000 0.79480  0.21830  0.03515  Biso   1.000  O
  C341     1.0000 0.82348  0.22254  0.04892  Biso   1.000  C
  C342     1.0000 0.83348  0.19992  0.07756  Biso   1.000  C
  C343     1.0000 0.81455  0.17043  0.08877  Biso   1.000  C
  H69      1.0000 0.79410  0.16180  0.07910  Biso   1.000  H
  C344     1.0000 0.83330  0.15646  0.11814  Biso   1.000  C
  C345     1.0000 0.86230  0.17547  0.12744  Biso   1.000  C
  S70      1.0000 0.87010  0.70936  0.60091  Biso   1.000  S
  O139     1.0000 0.84404  0.74589  0.54092  Biso   1.000  O
  O140     1.0000 0.79480  0.71830  0.53515  Biso   1.000  O
  C346     1.0000 0.82348  0.72254  0.54892  Biso   1.000  C
  C347     1.0000 0.83348  0.69992  0.57756  Biso   1.000  C
  C348     1.0000 0.81455  0.67043  0.58877  Biso   1.000  C
  H70      1.0000 0.79410  0.66180  0.57910  Biso   1.000  H
  C349     1.0000 0.83330  0.65646  0.61814  Biso   1.000  C
  C350     1.0000 0.86230  0.67547  0.62744  Biso   1.000  C
  S71      1.0000 0.37010  0.20936  0.60091  Biso   1.000  S
  O141     1.0000 0.34404  0.24589  0.54092  Biso   1.000  O
  O142     1.0000 0.29480  0.21830  0.53515  Biso   1.000  O
  C351     1.0000 0.32348  0.22254  0.54892  Biso   1.000  C
  C352     1.0000 0.33348  0.19992  0.57756  Biso   1.000  C
  C353     1.0000 0.31455  0.17043  0.58877  Biso   1.000  C
  H71      1.0000 0.29410  0.16180  0.57910  Biso   1.000  H
  C354     1.0000 0.33330  0.15646  0.61814  Biso   1.000  C
  C355     1.0000 0.36230  0.17547  0.62744  Biso   1.000  C
  S72      1.0000 0.37010  0.70936  0.10091  Biso   1.000  S
  O143     1.0000 0.34404  0.74589  0.04092  Biso   1.000  O
  O144     1.0000 0.29480  0.71830  0.03515  Biso   1.000  O
  C356     1.0000 0.32348  0.72254  0.04892  Biso   1.000  C
  C357     1.0000 0.33348  0.69992  0.07756  Biso   1.000  C
  C358     1.0000 0.31455  0.67043  0.08877  Biso   1.000  C
  H72      1.0000 0.29410  0.66180  0.07910  Biso   1.000  H
  C359     1.0000 0.33330  0.65646  0.11814  Biso   1.000  C
  C360     1.0000 0.36230  0.67547  0.12744  Biso   1.000  C
  S73      1.0000 0.87010  0.79064  0.89909  Biso   1.000  S
  O145     1.0000 0.84404  0.75411  0.95908  Biso   1.000  O
  O146     1.0000 0.79480  0.78170  0.96485  Biso   1.000  O
  C361     1.0000 0.82348  0.77746  0.95108  Biso   1.000  C
  C362     1.0000 0.83348  0.80008  0.92244  Biso   1.000  C
  C363     1.0000 0.81455  0.82957  0.91123  Biso   1.000  C
  H73      1.0000 0.79410  0.83820  0.92090  Biso   1.000  H
  C364     1.0000 0.83330  0.84354  0.88186  Biso   1.000  C
  C365     1.0000 0.86230  0.82453  0.87256  Biso   1.000  C
  S74      1.0000 0.87010  0.29064  0.39909  Biso   1.000  S
  O147     1.0000 0.84404  0.25411  0.45908  Biso   1.000  O
  O148     1.0000 0.79480  0.28170  0.46485  Biso   1.000  O
  C366     1.0000 0.82348  0.27746  0.45108  Biso   1.000  C
  C367     1.0000 0.83348  0.30008  0.42244  Biso   1.000  C
  C368     1.0000 0.81455  0.32957  0.41123  Biso   1.000  C
  H74      1.0000 0.79410  0.33820  0.42090  Biso   1.000  H
  C369     1.0000 0.83330  0.34354  0.38186  Biso   1.000  C
  C370     1.0000 0.86230  0.32453  0.37256  Biso   1.000  C
  S75      1.0000 0.37010  0.79064  0.39909  Biso   1.000  S
  O149     1.0000 0.34404  0.75411  0.45908  Biso   1.000  O
  O150     1.0000 0.29480  0.78170  0.46485  Biso   1.000  O
  C371     1.0000 0.32348  0.77746  0.45108  Biso   1.000  C
  C372     1.0000 0.33348  0.80008  0.42244  Biso   1.000  C
  C373     1.0000 0.31455  0.82957  0.41123  Biso   1.000  C
  H75      1.0000 0.29410  0.83820  0.42090  Biso   1.000  H
  C374     1.0000 0.33330  0.84354  0.38186  Biso   1.000  C
  C375     1.0000 0.36230  0.82453  0.37256  Biso   1.000  C
  S76      1.0000 0.37010  0.29064  0.89909  Biso   1.000  S
  O151     1.0000 0.34404  0.25411  0.95908  Biso   1.000  O
  O152     1.0000 0.29480  0.28170  0.96485  Biso   1.000  O
  C376     1.0000 0.32348  0.27746  0.95108  Biso   1.000  C
  C377     1.0000 0.33348  0.30008  0.92244  Biso   1.000  C
  C378     1.0000 0.31455  0.32957  0.91123  Biso   1.000  C
  H76      1.0000 0.29410  0.33820  0.92090  Biso   1.000  H
  C379     1.0000 0.33330  0.34354  0.88186  Biso   1.000  C
  C380     1.0000 0.36230  0.32453  0.87256  Biso   1.000  C
  S77      1.0000 0.12990  0.79064  0.10091  Biso   1.000  S
  O153     1.0000 0.15596  0.75411  0.04092  Biso   1.000  O
  O154     1.0000 0.20520  0.78170  0.03515  Biso   1.000  O
  C381     1.0000 0.17652  0.77746  0.04892  Biso   1.000  C
  C382     1.0000 0.16652  0.80008  0.07756  Biso   1.000  C
  C383     1.0000 0.18545  0.82957  0.08877  Biso   1.000  C
  H77      1.0000 0.20590  0.83820  0.07910  Biso   1.000  H
  C384     1.0000 0.16670  0.84354  0.11814  Biso   1.000  C
  C385     1.0000 0.13770  0.82453  0.12744  Biso   1.000  C
  S78      1.0000 0.12990  0.29064  0.60091  Biso   1.000  S
  O155     1.0000 0.15596  0.25411  0.54092  Biso   1.000  O
  O156     1.0000 0.20520  0.28170  0.53515  Biso   1.000  O
  C386     1.0000 0.17652  0.27746  0.54892  Biso   1.000  C
  C387     1.0000 0.16652  0.30008  0.57756  Biso   1.000  C
  C388     1.0000 0.18545  0.32957  0.58877  Biso   1.000  C
  H78      1.0000 0.20590  0.33820  0.57910  Biso   1.000  H
  C389     1.0000 0.16670  0.34354  0.61814  Biso   1.000  C
  C390     1.0000 0.13770  0.32453  0.62744  Biso   1.000  C
  S79      1.0000 0.62990  0.79064  0.60091  Biso   1.000  S
  O157     1.0000 0.65596  0.75411  0.54092  Biso   1.000  O
  O158     1.0000 0.70520  0.78170  0.53515  Biso   1.000  O
  C391     1.0000 0.67652  0.77746  0.54892  Biso   1.000  C
  C392     1.0000 0.66652  0.80008  0.57756  Biso   1.000  C
  C393     1.0000 0.68545  0.82957  0.58877  Biso   1.000  C
  H79      1.0000 0.70590  0.83820  0.57910  Biso   1.000  H
  C394     1.0000 0.66670  0.84354  0.61814  Biso   1.000  C
  C395     1.0000 0.63770  0.82453  0.62744  Biso   1.000  C
  S80      1.0000 0.62990  0.29064  0.10091  Biso   1.000  S
  O159     1.0000 0.65596  0.25411  0.04092  Biso   1.000  O
  O160     1.0000 0.70520  0.28170  0.03515  Biso   1.000  O
  C396     1.0000 0.67652  0.27746  0.04892  Biso   1.000  C
  C397     1.0000 0.66652  0.30008  0.07756  Biso   1.000  C
  C398     1.0000 0.68545  0.32957  0.08877  Biso   1.000  C
  H80      1.0000 0.70590  0.33820  0.07910  Biso   1.000  H
  C399     1.0000 0.66670  0.34354  0.11814  Biso   1.000  C
  C400     1.0000 0.63770  0.32453  0.12744  Biso   1.000  C
  S81      1.0000 0.20936  0.10091  0.87010  Biso   1.000  S
  O161     1.0000 0.24589  0.04092  0.84404  Biso   1.000  O
  O162     1.0000 0.21830  0.03515  0.79480  Biso   1.000  O
  C401     1.0000 0.22254  0.04892  0.82348  Biso   1.000  C
  C402     1.0000 0.19992  0.07756  0.83348  Biso   1.000  C
  C403     1.0000 0.17043  0.08877  0.81455  Biso   1.000  C
  H81      1.0000 0.16180  0.07910  0.79410  Biso   1.000  H
  C404     1.0000 0.15646  0.11814  0.83330  Biso   1.000  C
  C405     1.0000 0.17547  0.12744  0.86230  Biso   1.000  C
  S82      1.0000 0.20936  0.60091  0.37010  Biso   1.000  S
  O163     1.0000 0.24589  0.54092  0.34404  Biso   1.000  O
  O164     1.0000 0.21830  0.53515  0.29480  Biso   1.000  O
  C406     1.0000 0.22254  0.54892  0.32348  Biso   1.000  C
  C407     1.0000 0.19992  0.57756  0.33348  Biso   1.000  C
  C408     1.0000 0.17043  0.58877  0.31455  Biso   1.000  C
  H82      1.0000 0.16180  0.57910  0.29410  Biso   1.000  H
  C409     1.0000 0.15646  0.61814  0.33330  Biso   1.000  C
  C410     1.0000 0.17547  0.62744  0.36230  Biso   1.000  C
  S83      1.0000 0.70936  0.10091  0.37010  Biso   1.000  S
  O165     1.0000 0.74589  0.04092  0.34404  Biso   1.000  O
  O166     1.0000 0.71830  0.03515  0.29480  Biso   1.000  O
  C411     1.0000 0.72254  0.04892  0.32348  Biso   1.000  C
  C412     1.0000 0.69992  0.07756  0.33348  Biso   1.000  C
  C413     1.0000 0.67043  0.08877  0.31455  Biso   1.000  C
  H83      1.0000 0.66180  0.07910  0.29410  Biso   1.000  H
  C414     1.0000 0.65646  0.11814  0.33330  Biso   1.000  C
  C415     1.0000 0.67547  0.12744  0.36230  Biso   1.000  C
  S84      1.0000 0.70936  0.60091  0.87010  Biso   1.000  S
  O167     1.0000 0.74589  0.54092  0.84404  Biso   1.000  O
  O168     1.0000 0.71830  0.53515  0.79480  Biso   1.000  O
  C416     1.0000 0.72254  0.54892  0.82348  Biso   1.000  C
  C417     1.0000 0.69992  0.57756  0.83348  Biso   1.000  C
  C418     1.0000 0.67043  0.58877  0.81455  Biso   1.000  C
  H84      1.0000 0.66180  0.57910  0.79410  Biso   1.000  H
  C419     1.0000 0.65646  0.61814  0.83330  Biso   1.000  C
  C420     1.0000 0.67547  0.62744  0.86230  Biso   1.000  C
  S85      1.0000 0.20936  0.89909  0.12990  Biso   1.000  S
  O169     1.0000 0.24589  0.95908  0.15596  Biso   1.000  O
  O170     1.0000 0.21830  0.96485  0.20520  Biso   1.000  O
  C421     1.0000 0.22254  0.95108  0.17652  Biso   1.000  C
  C422     1.0000 0.19992  0.92244  0.16652  Biso   1.000  C
  C423     1.0000 0.17043  0.91123  0.18545  Biso   1.000  C
  H85      1.0000 0.16180  0.92090  0.20590  Biso   1.000  H
  C424     1.0000 0.15646  0.88186  0.16670  Biso   1.000  C
  C425     1.0000 0.17547  0.87256  0.13770  Biso   1.000  C
  S86      1.0000 0.20936  0.39909  0.62990  Biso   1.000  S
  O171     1.0000 0.24589  0.45908  0.65596  Biso   1.000  O
  O172     1.0000 0.21830  0.46485  0.70520  Biso   1.000  O
  C426     1.0000 0.22254  0.45108  0.67652  Biso   1.000  C
  C427     1.0000 0.19992  0.42244  0.66652  Biso   1.000  C
  C428     1.0000 0.17043  0.41123  0.68545  Biso   1.000  C
  H86      1.0000 0.16180  0.42090  0.70590  Biso   1.000  H
  C429     1.0000 0.15646  0.38186  0.66670  Biso   1.000  C
  C430     1.0000 0.17547  0.37256  0.63770  Biso   1.000  C
  S87      1.0000 0.70936  0.89909  0.62990  Biso   1.000  S
  O173     1.0000 0.74589  0.95908  0.65596  Biso   1.000  O
  O174     1.0000 0.71830  0.96485  0.70520  Biso   1.000  O
  C431     1.0000 0.72254  0.95108  0.67652  Biso   1.000  C
  C432     1.0000 0.69992  0.92244  0.66652  Biso   1.000  C
  C433     1.0000 0.67043  0.91123  0.68545  Biso   1.000  C
  H87      1.0000 0.66180  0.92090  0.70590  Biso   1.000  H
  C434     1.0000 0.65646  0.88186  0.66670  Biso   1.000  C
  C435     1.0000 0.67547  0.87256  0.63770  Biso   1.000  C
  S88      1.0000 0.70936  0.39909  0.12990  Biso   1.000  S
  O175     1.0000 0.74589  0.45908  0.15596  Biso   1.000  O
  O176     1.0000 0.71830  0.46485  0.20520  Biso   1.000  O
  C436     1.0000 0.72254  0.45108  0.17652  Biso   1.000  C
  C437     1.0000 0.69992  0.42244  0.16652  Biso   1.000  C
  C438     1.0000 0.67043  0.41123  0.18545  Biso   1.000  C
  H88      1.0000 0.66180  0.42090  0.20590  Biso   1.000  H
  C439     1.0000 0.65646  0.38186  0.16670  Biso   1.000  C
  C440     1.0000 0.67547  0.37256  0.13770  Biso   1.000  C
  S89      1.0000 0.79064  0.10091  0.12990  Biso   1.000  S
  O177     1.0000 0.75411  0.04092  0.15596  Biso   1.000  O
  O178     1.0000 0.78170  0.03515  0.20520  Biso   1.000  O
  C441     1.0000 0.77746  0.04892  0.17652  Biso   1.000  C
  C442     1.0000 0.80008  0.07756  0.16652  Biso   1.000  C
  C443     1.0000 0.82957  0.08877  0.18545  Biso   1.000  C
  H89      1.0000 0.83820  0.07910  0.20590  Biso   1.000  H
  C444     1.0000 0.84354  0.11814  0.16670  Biso   1.000  C
  C445     1.0000 0.82453  0.12744  0.13770  Biso   1.000  C
  S90      1.0000 0.79064  0.60091  0.62990  Biso   1.000  S
  O179     1.0000 0.75411  0.54092  0.65596  Biso   1.000  O
  O180     1.0000 0.78170  0.53515  0.70520  Biso   1.000  O
  C446     1.0000 0.77746  0.54892  0.67652  Biso   1.000  C
  C447     1.0000 0.80008  0.57756  0.66652  Biso   1.000  C
  C448     1.0000 0.82957  0.58877  0.68545  Biso   1.000  C
  H90      1.0000 0.83820  0.57910  0.70590  Biso   1.000  H
  C449     1.0000 0.84354  0.61814  0.66670  Biso   1.000  C
  C450     1.0000 0.82453  0.62744  0.63770  Biso   1.000  C
  S91      1.0000 0.29064  0.10091  0.62990  Biso   1.000  S
  O181     1.0000 0.25411  0.04092  0.65596  Biso   1.000  O
  O182     1.0000 0.28170  0.03515  0.70520  Biso   1.000  O
  C451     1.0000 0.27746  0.04892  0.67652  Biso   1.000  C
  C452     1.0000 0.30008  0.07756  0.66652  Biso   1.000  C
  C453     1.0000 0.32957  0.08877  0.68545  Biso   1.000  C
  H91      1.0000 0.33820  0.07910  0.70590  Biso   1.000  H
  C454     1.0000 0.34354  0.11814  0.66670  Biso   1.000  C
  C455     1.0000 0.32453  0.12744  0.63770  Biso   1.000  C
  S92      1.0000 0.29064  0.60091  0.12990  Biso   1.000  S
  O183     1.0000 0.25411  0.54092  0.15596  Biso   1.000  O
  O184     1.0000 0.28170  0.53515  0.20520  Biso   1.000  O
  C456     1.0000 0.27746  0.54892  0.17652  Biso   1.000  C
  C457     1.0000 0.30008  0.57756  0.16652  Biso   1.000  C
  C458     1.0000 0.32957  0.58877  0.18545  Biso   1.000  C
  H92      1.0000 0.33820  0.57910  0.20590  Biso   1.000  H
  C459     1.0000 0.34354  0.61814  0.16670  Biso   1.000  C
  C460     1.0000 0.32453  0.62744  0.13770  Biso   1.000  C
  S93      1.0000 0.79064  0.89909  0.87010  Biso   1.000  S
  O185     1.0000 0.75411  0.95908  0.84404  Biso   1.000  O
  O186     1.0000 0.78170  0.96485  0.79480  Biso   1.000  O
  C461     1.0000 0.77746  0.95108  0.82348  Biso   1.000  C
  C462     1.0000 0.80008  0.92244  0.83348  Biso   1.000  C
  C463     1.0000 0.82957  0.91123  0.81455  Biso   1.000  C
  H93      1.0000 0.83820  0.92090  0.79410  Biso   1.000  H
  C464     1.0000 0.84354  0.88186  0.83330  Biso   1.000  C
  C465     1.0000 0.82453  0.87256  0.86230  Biso   1.000  C
  S94      1.0000 0.79064  0.39909  0.37010  Biso   1.000  S
  O187     1.0000 0.75411  0.45908  0.34404  Biso   1.000  O
  O188     1.0000 0.78170  0.46485  0.29480  Biso   1.000  O
  C466     1.0000 0.77746  0.45108  0.32348  Biso   1.000  C
  C467     1.0000 0.80008  0.42244  0.33348  Biso   1.000  C
  C468     1.0000 0.82957  0.41123  0.31455  Biso   1.000  C
  H94      1.0000 0.83820  0.42090  0.29410  Biso   1.000  H
  C469     1.0000 0.84354  0.38186  0.33330  Biso   1.000  C
  C470     1.0000 0.82453  0.37256  0.36230  Biso   1.000  C
  S95      1.0000 0.29064  0.89909  0.37010  Biso   1.000  S
  O189     1.0000 0.25411  0.95908  0.34404  Biso   1.000  O
  O190     1.0000 0.28170  0.96485  0.29480  Biso   1.000  O
  C471     1.0000 0.27746  0.95108  0.32348  Biso   1.000  C
  C472     1.0000 0.30008  0.92244  0.33348  Biso   1.000  C
  C473     1.0000 0.32957  0.91123  0.31455  Biso   1.000  C
  H95      1.0000 0.33820  0.92090  0.29410  Biso   1.000  H
  C474     1.0000 0.34354  0.88186  0.33330  Biso   1.000  C
  C475     1.0000 0.32453  0.87256  0.36230  Biso   1.000  C
  S96      1.0000 0.29064  0.39909  0.87010  Biso   1.000  S
  O191     1.0000 0.25411  0.45908  0.84404  Biso   1.000  O
  O192     1.0000 0.28170  0.46485  0.79480  Biso   1.000  O
  C476     1.0000 0.27746  0.45108  0.82348  Biso   1.000  C
  C477     1.0000 0.30008  0.42244  0.83348  Biso   1.000  C
  C478     1.0000 0.32957  0.41123  0.81455  Biso   1.000  C
  H96      1.0000 0.33820  0.42090  0.79410  Biso   1.000  H
  C479     1.0000 0.34354  0.38186  0.83330  Biso   1.000  C
  C480     1.0000 0.32453  0.37256  0.86230  Biso   1.000  C
  S97      1.0000 0.37010  0.39909  0.29064  Biso   1.000  S
  O193     1.0000 0.34404  0.45908  0.25411  Biso   1.000  O
  O194     1.0000 0.29480  0.46485  0.28170  Biso   1.000  O
  C481     1.0000 0.32348  0.45108  0.27746  Biso   1.000  C
  C482     1.0000 0.33348  0.42244  0.30008  Biso   1.000  C
  C483     1.0000 0.31455  0.41123  0.32957  Biso   1.000  C
  H97      1.0000 0.29410  0.42090  0.33820  Biso   1.000  H
  C484     1.0000 0.33330  0.38186  0.34354  Biso   1.000  C
  C485     1.0000 0.36230  0.37256  0.32453  Biso   1.000  C
  S98      1.0000 0.37010  0.89909  0.79064  Biso   1.000  S
  O195     1.0000 0.34404  0.95908  0.75411  Biso   1.000  O
  O196     1.0000 0.29480  0.96485  0.78170  Biso   1.000  O
  C486     1.0000 0.32348  0.95108  0.77746  Biso   1.000  C
  C487     1.0000 0.33348  0.92244  0.80008  Biso   1.000  C
  C488     1.0000 0.31455  0.91123  0.82957  Biso   1.000  C
  H98      1.0000 0.29410  0.92090  0.83820  Biso   1.000  H
  C489     1.0000 0.33330  0.88186  0.84354  Biso   1.000  C
  C490     1.0000 0.36230  0.87256  0.82453  Biso   1.000  C
  S99      1.0000 0.87010  0.39909  0.79064  Biso   1.000  S
  O197     1.0000 0.84404  0.45908  0.75411  Biso   1.000  O
  O198     1.0000 0.79480  0.46485  0.78170  Biso   1.000  O
  C491     1.0000 0.82348  0.45108  0.77746  Biso   1.000  C
  C492     1.0000 0.83348  0.42244  0.80008  Biso   1.000  C
  C493     1.0000 0.81455  0.41123  0.82957  Biso   1.000  C
  H99      1.0000 0.79410  0.42090  0.83820  Biso   1.000  H
  C494     1.0000 0.83330  0.38186  0.84354  Biso   1.000  C
  C495     1.0000 0.86230  0.37256  0.82453  Biso   1.000  C
  S100     1.0000 0.87010  0.89909  0.29064  Biso   1.000  S
  O199     1.0000 0.84404  0.95908  0.25411  Biso   1.000  O
  O200     1.0000 0.79480  0.96485  0.28170  Biso   1.000  O
  C496     1.0000 0.82348  0.95108  0.27746  Biso   1.000  C
  C497     1.0000 0.83348  0.92244  0.30008  Biso   1.000  C
  C498     1.0000 0.81455  0.91123  0.32957  Biso   1.000  C
  H100     1.0000 0.79410  0.92090  0.33820  Biso   1.000  H
  C499     1.0000 0.83330  0.88186  0.34354  Biso   1.000  C
  C500     1.0000 0.86230  0.87256  0.32453  Biso   1.000  C
  S101     1.0000 0.62990  0.60091  0.29064  Biso   1.000  S
  O201     1.0000 0.65596  0.54092  0.25411  Biso   1.000  O
  O202     1.0000 0.70520  0.53515  0.28170  Biso   1.000  O
  C501     1.0000 0.67652  0.54892  0.27746  Biso   1.000  C
  C502     1.0000 0.66652  0.57756  0.30008  Biso   1.000  C
  C503     1.0000 0.68545  0.58877  0.32957  Biso   1.000  C
  H101     1.0000 0.70590  0.57910  0.33820  Biso   1.000  H
  C504     1.0000 0.66670  0.61814  0.34354  Biso   1.000  C
  C505     1.0000 0.63770  0.62744  0.32453  Biso   1.000  C
  S102     1.0000 0.62990  0.10091  0.79064  Biso   1.000  S
  O203     1.0000 0.65596  0.04092  0.75411  Biso   1.000  O
  O204     1.0000 0.70520  0.03515  0.78170  Biso   1.000  O
  C506     1.0000 0.67652  0.04892  0.77746  Biso   1.000  C
  C507     1.0000 0.66652  0.07756  0.80008  Biso   1.000  C
  C508     1.0000 0.68545  0.08877  0.82957  Biso   1.000  C
  H102     1.0000 0.70590  0.07910  0.83820  Biso   1.000  H
  C509     1.0000 0.66670  0.11814  0.84354  Biso   1.000  C
  C510     1.0000 0.63770  0.12744  0.82453  Biso   1.000  C
  S103     1.0000 0.12990  0.60091  0.79064  Biso   1.000  S
  O205     1.0000 0.15596  0.54092  0.75411  Biso   1.000  O
  O206     1.0000 0.20520  0.53515  0.78170  Biso   1.000  O
  C511     1.0000 0.17652  0.54892  0.77746  Biso   1.000  C
  C512     1.0000 0.16652  0.57756  0.80008  Biso   1.000  C
  C513     1.0000 0.18545  0.58877  0.82957  Biso   1.000  C
  H103     1.0000 0.20590  0.57910  0.83820  Biso   1.000  H
  C514     1.0000 0.16670  0.61814  0.84354  Biso   1.000  C
  C515     1.0000 0.13770  0.62744  0.82453  Biso   1.000  C
  S104     1.0000 0.12990  0.10091  0.29064  Biso   1.000  S
  O207     1.0000 0.15596  0.04092  0.25411  Biso   1.000  O
  O208     1.0000 0.20520  0.03515  0.28170  Biso   1.000  O
  C516     1.0000 0.17652  0.04892  0.27746  Biso   1.000  C
  C517     1.0000 0.16652  0.07756  0.30008  Biso   1.000  C
  C518     1.0000 0.18545  0.08877  0.32957  Biso   1.000  C
  H104     1.0000 0.20590  0.07910  0.33820  Biso   1.000  H
  C519     1.0000 0.16670  0.11814  0.34354  Biso   1.000  C
  C520     1.0000 0.13770  0.12744  0.32453  Biso   1.000  C
  S105     1.0000 0.62990  0.39909  0.70936  Biso   1.000  S
  O209     1.0000 0.65596  0.45908  0.74589  Biso   1.000  O
  O210     1.0000 0.70520  0.46485  0.71830  Biso   1.000  O
  C521     1.0000 0.67652  0.45108  0.72254  Biso   1.000  C
  C522     1.0000 0.66652  0.42244  0.69992  Biso   1.000  C
  C523     1.0000 0.68545  0.41123  0.67043  Biso   1.000  C
  H105     1.0000 0.70590  0.42090  0.66180  Biso   1.000  H
  C524     1.0000 0.66670  0.38186  0.65646  Biso   1.000  C
  C525     1.0000 0.63770  0.37256  0.67547  Biso   1.000  C
  S106     1.0000 0.62990  0.89909  0.20936  Biso   1.000  S
  O211     1.0000 0.65596  0.95908  0.24589  Biso   1.000  O
  O212     1.0000 0.70520  0.96485  0.21830  Biso   1.000  O
  C526     1.0000 0.67652  0.95108  0.22254  Biso   1.000  C
  C527     1.0000 0.66652  0.92244  0.19992  Biso   1.000  C
  C528     1.0000 0.68545  0.91123  0.17043  Biso   1.000  C
  H106     1.0000 0.70590  0.92090  0.16180  Biso   1.000  H
  C529     1.0000 0.66670  0.88186  0.15646  Biso   1.000  C
  C530     1.0000 0.63770  0.87256  0.17547  Biso   1.000  C
  S107     1.0000 0.12990  0.39909  0.20936  Biso   1.000  S
  O213     1.0000 0.15596  0.45908  0.24589  Biso   1.000  O
  O214     1.0000 0.20520  0.46485  0.21830  Biso   1.000  O
  C531     1.0000 0.17652  0.45108  0.22254  Biso   1.000  C
  C532     1.0000 0.16652  0.42244  0.19992  Biso   1.000  C
  C533     1.0000 0.18545  0.41123  0.17043  Biso   1.000  C
  H107     1.0000 0.20590  0.42090  0.16180  Biso   1.000  H
  C534     1.0000 0.16670  0.38186  0.15646  Biso   1.000  C
  C535     1.0000 0.13770  0.37256  0.17547  Biso   1.000  C
  S108     1.0000 0.12990  0.89909  0.70936  Biso   1.000  S
  O215     1.0000 0.15596  0.95908  0.74589  Biso   1.000  O
  O216     1.0000 0.20520  0.96485  0.71830  Biso   1.000  O
  C536     1.0000 0.17652  0.95108  0.72254  Biso   1.000  C
  C537     1.0000 0.16652  0.92244  0.69992  Biso   1.000  C
  C538     1.0000 0.18545  0.91123  0.67043  Biso   1.000  C
  H108     1.0000 0.20590  0.92090  0.66180  Biso   1.000  H
  C539     1.0000 0.16670  0.88186  0.65646  Biso   1.000  C
  C540     1.0000 0.13770  0.87256  0.67547  Biso   1.000  C
  S109     1.0000 0.37010  0.60091  0.70936  Biso   1.000  S
  O217     1.0000 0.34404  0.54092  0.74589  Biso   1.000  O
  O218     1.0000 0.29480  0.53515  0.71830  Biso   1.000  O
  C541     1.0000 0.32348  0.54892  0.72254  Biso   1.000  C
  C542     1.0000 0.33348  0.57756  0.69992  Biso   1.000  C
  C543     1.0000 0.31455  0.58877  0.67043  Biso   1.000  C
  H109     1.0000 0.29410  0.57910  0.66180  Biso   1.000  H
  C544     1.0000 0.33330  0.61814  0.65646  Biso   1.000  C
  C545     1.0000 0.36230  0.62744  0.67547  Biso   1.000  C
  S110     1.0000 0.37010  0.10091  0.20936  Biso   1.000  S
  O219     1.0000 0.34404  0.04092  0.24589  Biso   1.000  O
  O220     1.0000 0.29480  0.03515  0.21830  Biso   1.000  O
  C546     1.0000 0.32348  0.04892  0.22254  Biso   1.000  C
  C547     1.0000 0.33348  0.07756  0.19992  Biso   1.000  C
  C548     1.0000 0.31455  0.08877  0.17043  Biso   1.000  C
  H110     1.0000 0.29410  0.07910  0.16180  Biso   1.000  H
  C549     1.0000 0.33330  0.11814  0.15646  Biso   1.000  C
  C550     1.0000 0.36230  0.12744  0.17547  Biso   1.000  C
  S111     1.0000 0.87010  0.60091  0.20936  Biso   1.000  S
  O221     1.0000 0.84404  0.54092  0.24589  Biso   1.000  O
  O222     1.0000 0.79480  0.53515  0.21830  Biso   1.000  O
  C551     1.0000 0.82348  0.54892  0.22254  Biso   1.000  C
  C552     1.0000 0.83348  0.57756  0.19992  Biso   1.000  C
  C553     1.0000 0.81455  0.58877  0.17043  Biso   1.000  C
  H111     1.0000 0.79410  0.57910  0.16180  Biso   1.000  H
  C554     1.0000 0.83330  0.61814  0.15646  Biso   1.000  C
  C555     1.0000 0.86230  0.62744  0.17547  Biso   1.000  C
  S112     1.0000 0.87010  0.10091  0.70936  Biso   1.000  S
  O223     1.0000 0.84404  0.04092  0.74589  Biso   1.000  O
  O224     1.0000 0.79480  0.03515  0.71830  Biso   1.000  O
  C556     1.0000 0.82348  0.04892  0.72254  Biso   1.000  C
  C557     1.0000 0.83348  0.07756  0.69992  Biso   1.000  C
  C558     1.0000 0.81455  0.08877  0.67043  Biso   1.000  C
  H112     1.0000 0.79410  0.07910  0.66180  Biso   1.000  H
  C559     1.0000 0.83330  0.11814  0.65646  Biso   1.000  C
  C560     1.0000 0.86230  0.12744  0.67547  Biso   1.000  C
  S113     1.0000 0.29064  0.37010  0.39909  Biso   1.000  S
  O225     1.0000 0.25411  0.34404  0.45908  Biso   1.000  O
  O226     1.0000 0.28170  0.29480  0.46485  Biso   1.000  O
  C561     1.0000 0.27746  0.32348  0.45108  Biso   1.000  C
  C562     1.0000 0.30008  0.33348  0.42244  Biso   1.000  C
  C563     1.0000 0.32957  0.31455  0.41123  Biso   1.000  C
  H113     1.0000 0.33820  0.29410  0.42090  Biso   1.000  H
  C564     1.0000 0.34354  0.33330  0.38186  Biso   1.000  C
  C565     1.0000 0.32453  0.36230  0.37256  Biso   1.000  C
  S114     1.0000 0.29064  0.87010  0.89909  Biso   1.000  S
  O227     1.0000 0.25411  0.84404  0.95908  Biso   1.000  O
  O228     1.0000 0.28170  0.79480  0.96485  Biso   1.000  O
  C566     1.0000 0.27746  0.82348  0.95108  Biso   1.000  C
  C567     1.0000 0.30008  0.83348  0.92244  Biso   1.000  C
  C568     1.0000 0.32957  0.81455  0.91123  Biso   1.000  C
  H114     1.0000 0.33820  0.79410  0.92090  Biso   1.000  H
  C569     1.0000 0.34354  0.83330  0.88186  Biso   1.000  C
  C570     1.0000 0.32453  0.86230  0.87256  Biso   1.000  C
  S115     1.0000 0.79064  0.37010  0.89909  Biso   1.000  S
  O229     1.0000 0.75411  0.34404  0.95908  Biso   1.000  O
  O230     1.0000 0.78170  0.29480  0.96485  Biso   1.000  O
  C571     1.0000 0.77746  0.32348  0.95108  Biso   1.000  C
  C572     1.0000 0.80008  0.33348  0.92244  Biso   1.000  C
  C573     1.0000 0.82957  0.31455  0.91123  Biso   1.000  C
  H115     1.0000 0.83820  0.29410  0.92090  Biso   1.000  H
  C574     1.0000 0.84354  0.33330  0.88186  Biso   1.000  C
  C575     1.0000 0.82453  0.36230  0.87256  Biso   1.000  C
  S116     1.0000 0.79064  0.87010  0.39909  Biso   1.000  S
  O231     1.0000 0.75411  0.84404  0.45908  Biso   1.000  O
  O232     1.0000 0.78170  0.79480  0.46485  Biso   1.000  O
  C576     1.0000 0.77746  0.82348  0.45108  Biso   1.000  C
  C577     1.0000 0.80008  0.83348  0.42244  Biso   1.000  C
  C578     1.0000 0.82957  0.81455  0.41123  Biso   1.000  C
  H116     1.0000 0.83820  0.79410  0.42090  Biso   1.000  H
  C579     1.0000 0.84354  0.83330  0.38186  Biso   1.000  C
  C580     1.0000 0.82453  0.86230  0.37256  Biso   1.000  C
  S117     1.0000 0.29064  0.62990  0.60091  Biso   1.000  S
  O233     1.0000 0.25411  0.65596  0.54092  Biso   1.000  O
  O234     1.0000 0.28170  0.70520  0.53515  Biso   1.000  O
  C581     1.0000 0.27746  0.67652  0.54892  Biso   1.000  C
  C582     1.0000 0.30008  0.66652  0.57756  Biso   1.000  C
  C583     1.0000 0.32957  0.68545  0.58877  Biso   1.000  C
  H117     1.0000 0.33820  0.70590  0.57910  Biso   1.000  H
  C584     1.0000 0.34354  0.66670  0.61814  Biso   1.000  C
  C585     1.0000 0.32453  0.63770  0.62744  Biso   1.000  C
  S118     1.0000 0.29064  0.12990  0.10091  Biso   1.000  S
  O235     1.0000 0.25411  0.15596  0.04092  Biso   1.000  O
  O236     1.0000 0.28170  0.20520  0.03515  Biso   1.000  O
  C586     1.0000 0.27746  0.17652  0.04892  Biso   1.000  C
  C587     1.0000 0.30008  0.16652  0.07756  Biso   1.000  C
  C588     1.0000 0.32957  0.18545  0.08877  Biso   1.000  C
  H118     1.0000 0.33820  0.20590  0.07910  Biso   1.000  H
  C589     1.0000 0.34354  0.16670  0.11814  Biso   1.000  C
  C590     1.0000 0.32453  0.13770  0.12744  Biso   1.000  C
  S119     1.0000 0.79064  0.62990  0.10091  Biso   1.000  S
  O237     1.0000 0.75411  0.65596  0.04092  Biso   1.000  O
  O238     1.0000 0.78170  0.70520  0.03515  Biso   1.000  O
  C591     1.0000 0.77746  0.67652  0.04892  Biso   1.000  C
  C592     1.0000 0.80008  0.66652  0.07756  Biso   1.000  C
  C593     1.0000 0.82957  0.68545  0.08877  Biso   1.000  C
  H119     1.0000 0.83820  0.70590  0.07910  Biso   1.000  H
  C594     1.0000 0.84354  0.66670  0.11814  Biso   1.000  C
  C595     1.0000 0.82453  0.63770  0.12744  Biso   1.000  C
  S120     1.0000 0.79064  0.12990  0.60091  Biso   1.000  S
  O239     1.0000 0.75411  0.15596  0.54092  Biso   1.000  O
  O240     1.0000 0.78170  0.20520  0.53515  Biso   1.000  O
  C596     1.0000 0.77746  0.17652  0.54892  Biso   1.000  C
  C597     1.0000 0.80008  0.16652  0.57756  Biso   1.000  C
  C598     1.0000 0.82957  0.18545  0.58877  Biso   1.000  C
  H120     1.0000 0.83820  0.20590  0.57910  Biso   1.000  H
  C599     1.0000 0.84354  0.16670  0.61814  Biso   1.000  C
  C600     1.0000 0.82453  0.13770  0.62744  Biso   1.000  C
  S121     1.0000 0.70936  0.62990  0.39909  Biso   1.000  S
  O241     1.0000 0.74589  0.65596  0.45908  Biso   1.000  O
  O242     1.0000 0.71830  0.70520  0.46485  Biso   1.000  O
  C601     1.0000 0.72254  0.67652  0.45108  Biso   1.000  C
  C602     1.0000 0.69992  0.66652  0.42244  Biso   1.000  C
  C603     1.0000 0.67043  0.68545  0.41123  Biso   1.000  C
  H121     1.0000 0.66180  0.70590  0.42090  Biso   1.000  H
  C604     1.0000 0.65646  0.66670  0.38186  Biso   1.000  C
  C605     1.0000 0.67547  0.63770  0.37256  Biso   1.000  C
  S122     1.0000 0.70936  0.12990  0.89909  Biso   1.000  S
  O243     1.0000 0.74589  0.15596  0.95908  Biso   1.000  O
  O244     1.0000 0.71830  0.20520  0.96485  Biso   1.000  O
  C606     1.0000 0.72254  0.17652  0.95108  Biso   1.000  C
  C607     1.0000 0.69992  0.16652  0.92244  Biso   1.000  C
  C608     1.0000 0.67043  0.18545  0.91123  Biso   1.000  C
  H122     1.0000 0.66180  0.20590  0.92090  Biso   1.000  H
  C609     1.0000 0.65646  0.16670  0.88186  Biso   1.000  C
  C610     1.0000 0.67547  0.13770  0.87256  Biso   1.000  C
  S123     1.0000 0.20936  0.62990  0.89909  Biso   1.000  S
  O245     1.0000 0.24589  0.65596  0.95908  Biso   1.000  O
  O246     1.0000 0.21830  0.70520  0.96485  Biso   1.000  O
  C611     1.0000 0.22254  0.67652  0.95108  Biso   1.000  C
  C612     1.0000 0.19992  0.66652  0.92244  Biso   1.000  C
  C613     1.0000 0.17043  0.68545  0.91123  Biso   1.000  C
  H123     1.0000 0.16180  0.70590  0.92090  Biso   1.000  H
  C614     1.0000 0.15646  0.66670  0.88186  Biso   1.000  C
  C615     1.0000 0.17547  0.63770  0.87256  Biso   1.000  C
  S124     1.0000 0.20936  0.12990  0.39909  Biso   1.000  S
  O247     1.0000 0.24589  0.15596  0.45908  Biso   1.000  O
  O248     1.0000 0.21830  0.20520  0.46485  Biso   1.000  O
  C616     1.0000 0.22254  0.17652  0.45108  Biso   1.000  C
  C617     1.0000 0.19992  0.16652  0.42244  Biso   1.000  C
  C618     1.0000 0.17043  0.18545  0.41123  Biso   1.000  C
  H124     1.0000 0.16180  0.20590  0.42090  Biso   1.000  H
  C619     1.0000 0.15646  0.16670  0.38186  Biso   1.000  C
  C620     1.0000 0.17547  0.13770  0.37256  Biso   1.000  C
  S125     1.0000 0.70936  0.37010  0.60091  Biso   1.000  S
  O249     1.0000 0.74589  0.34404  0.54092  Biso   1.000  O
  O250     1.0000 0.71830  0.29480  0.53515  Biso   1.000  O
  C621     1.0000 0.72254  0.32348  0.54892  Biso   1.000  C
  C622     1.0000 0.69992  0.33348  0.57756  Biso   1.000  C
  C623     1.0000 0.67043  0.31455  0.58877  Biso   1.000  C
  H125     1.0000 0.66180  0.29410  0.57910  Biso   1.000  H
  C624     1.0000 0.65646  0.33330  0.61814  Biso   1.000  C
  C625     1.0000 0.67547  0.36230  0.62744  Biso   1.000  C
  S126     1.0000 0.70936  0.87010  0.10091  Biso   1.000  S
  O251     1.0000 0.74589  0.84404  0.04092  Biso   1.000  O
  O252     1.0000 0.71830  0.79480  0.03515  Biso   1.000  O
  C626     1.0000 0.72254  0.82348  0.04892  Biso   1.000  C
  C627     1.0000 0.69992  0.83348  0.07756  Biso   1.000  C
  C628     1.0000 0.67043  0.81455  0.08877  Biso   1.000  C
  H126     1.0000 0.66180  0.79410  0.07910  Biso   1.000  H
  C629     1.0000 0.65646  0.83330  0.11814  Biso   1.000  C
  C630     1.0000 0.67547  0.86230  0.12744  Biso   1.000  C
  S127     1.0000 0.20936  0.37010  0.10091  Biso   1.000  S
  O253     1.0000 0.24589  0.34404  0.04092  Biso   1.000  O
  O254     1.0000 0.21830  0.29480  0.03515  Biso   1.000  O
  C631     1.0000 0.22254  0.32348  0.04892  Biso   1.000  C
  C632     1.0000 0.19992  0.33348  0.07756  Biso   1.000  C
  C633     1.0000 0.17043  0.31455  0.08877  Biso   1.000  C
  H127     1.0000 0.16180  0.29410  0.07910  Biso   1.000  H
  C634     1.0000 0.15646  0.33330  0.11814  Biso   1.000  C
  C635     1.0000 0.17547  0.36230  0.12744  Biso   1.000  C
  S128     1.0000 0.20936  0.87010  0.60091  Biso   1.000  S
  O255     1.0000 0.24589  0.84404  0.54092  Biso   1.000  O
  O256     1.0000 0.21830  0.79480  0.53515  Biso   1.000  O
  C636     1.0000 0.22254  0.82348  0.54892  Biso   1.000  C
  C637     1.0000 0.19992  0.83348  0.57756  Biso   1.000  C
  C638     1.0000 0.17043  0.81455  0.58877  Biso   1.000  C
  H128     1.0000 0.16180  0.79410  0.57910  Biso   1.000  H
  C639     1.0000 0.15646  0.83330  0.61814  Biso   1.000  C
  C640     1.0000 0.17547  0.86230  0.62744  Biso   1.000  C
  S129     1.0000 0.39909  0.29064  0.37010  Biso   1.000  S
  O257     1.0000 0.45908  0.25411  0.34404  Biso   1.000  O
  O258     1.0000 0.46485  0.28170  0.29480  Biso   1.000  O
  C641     1.0000 0.45108  0.27746  0.32348  Biso   1.000  C
  C642     1.0000 0.42244  0.30008  0.33348  Biso   1.000  C
  C643     1.0000 0.41123  0.32957  0.31455  Biso   1.000  C
  H129     1.0000 0.42090  0.33820  0.29410  Biso   1.000  H
  C644     1.0000 0.38186  0.34354  0.33330  Biso   1.000  C
  C645     1.0000 0.37256  0.32453  0.36230  Biso   1.000  C
  S130     1.0000 0.39909  0.79064  0.87010  Biso   1.000  S
  O259     1.0000 0.45908  0.75411  0.84404  Biso   1.000  O
  O260     1.0000 0.46485  0.78170  0.79480  Biso   1.000  O
  C646     1.0000 0.45108  0.77746  0.82348  Biso   1.000  C
  C647     1.0000 0.42244  0.80008  0.83348  Biso   1.000  C
  C648     1.0000 0.41123  0.82957  0.81455  Biso   1.000  C
  H130     1.0000 0.42090  0.83820  0.79410  Biso   1.000  H
  C649     1.0000 0.38186  0.84354  0.83330  Biso   1.000  C
  C650     1.0000 0.37256  0.82453  0.86230  Biso   1.000  C
  S131     1.0000 0.89909  0.29064  0.87010  Biso   1.000  S
  O261     1.0000 0.95908  0.25411  0.84404  Biso   1.000  O
  O262     1.0000 0.96485  0.28170  0.79480  Biso   1.000  O
  C651     1.0000 0.95108  0.27746  0.82348  Biso   1.000  C
  C652     1.0000 0.92244  0.30008  0.83348  Biso   1.000  C
  C653     1.0000 0.91123  0.32957  0.81455  Biso   1.000  C
  H131     1.0000 0.92090  0.33820  0.79410  Biso   1.000  H
  C654     1.0000 0.88186  0.34354  0.83330  Biso   1.000  C
  C655     1.0000 0.87256  0.32453  0.86230  Biso   1.000  C
  S132     1.0000 0.89909  0.79064  0.37010  Biso   1.000  S
  O263     1.0000 0.95908  0.75411  0.34404  Biso   1.000  O
  O264     1.0000 0.96485  0.78170  0.29480  Biso   1.000  O
  C656     1.0000 0.95108  0.77746  0.32348  Biso   1.000  C
  C657     1.0000 0.92244  0.80008  0.33348  Biso   1.000  C
  C658     1.0000 0.91123  0.82957  0.31455  Biso   1.000  C
  H132     1.0000 0.92090  0.83820  0.29410  Biso   1.000  H
  C659     1.0000 0.88186  0.84354  0.33330  Biso   1.000  C
  C660     1.0000 0.87256  0.82453  0.36230  Biso   1.000  C
  S133     1.0000 0.60091  0.29064  0.62990  Biso   1.000  S
  O265     1.0000 0.54092  0.25411  0.65596  Biso   1.000  O
  O266     1.0000 0.53515  0.28170  0.70520  Biso   1.000  O
  C661     1.0000 0.54892  0.27746  0.67652  Biso   1.000  C
  C662     1.0000 0.57756  0.30008  0.66652  Biso   1.000  C
  C663     1.0000 0.58877  0.32957  0.68545  Biso   1.000  C
  H133     1.0000 0.57910  0.33820  0.70590  Biso   1.000  H
  C664     1.0000 0.61814  0.34354  0.66670  Biso   1.000  C
  C665     1.0000 0.62744  0.32453  0.63770  Biso   1.000  C
  S134     1.0000 0.60091  0.79064  0.12990  Biso   1.000  S
  O267     1.0000 0.54092  0.75411  0.15596  Biso   1.000  O
  O268     1.0000 0.53515  0.78170  0.20520  Biso   1.000  O
  C666     1.0000 0.54892  0.77746  0.17652  Biso   1.000  C
  C667     1.0000 0.57756  0.80008  0.16652  Biso   1.000  C
  C668     1.0000 0.58877  0.82957  0.18545  Biso   1.000  C
  H134     1.0000 0.57910  0.83820  0.20590  Biso   1.000  H
  C669     1.0000 0.61814  0.84354  0.16670  Biso   1.000  C
  C670     1.0000 0.62744  0.82453  0.13770  Biso   1.000  C
  S135     1.0000 0.10091  0.29064  0.12990  Biso   1.000  S
  O269     1.0000 0.04092  0.25411  0.15596  Biso   1.000  O
  O270     1.0000 0.03515  0.28170  0.20520  Biso   1.000  O
  C671     1.0000 0.04892  0.27746  0.17652  Biso   1.000  C
  C672     1.0000 0.07756  0.30008  0.16652  Biso   1.000  C
  C673     1.0000 0.08877  0.32957  0.18545  Biso   1.000  C
  H135     1.0000 0.07910  0.33820  0.20590  Biso   1.000  H
  C674     1.0000 0.11814  0.34354  0.16670  Biso   1.000  C
  C675     1.0000 0.12744  0.32453  0.13770  Biso   1.000  C
  S136     1.0000 0.10091  0.79064  0.62990  Biso   1.000  S
  O271     1.0000 0.04092  0.75411  0.65596  Biso   1.000  O
  O272     1.0000 0.03515  0.78170  0.70520  Biso   1.000  O
  C676     1.0000 0.04892  0.77746  0.67652  Biso   1.000  C
  C677     1.0000 0.07756  0.80008  0.66652  Biso   1.000  C
  C678     1.0000 0.08877  0.82957  0.68545  Biso   1.000  C
  H136     1.0000 0.07910  0.83820  0.70590  Biso   1.000  H
  C679     1.0000 0.11814  0.84354  0.66670  Biso   1.000  C
  C680     1.0000 0.12744  0.82453  0.63770  Biso   1.000  C
  S137     1.0000 0.39909  0.70936  0.62990  Biso   1.000  S
  O273     1.0000 0.45908  0.74589  0.65596  Biso   1.000  O
  O274     1.0000 0.46485  0.71830  0.70520  Biso   1.000  O
  C681     1.0000 0.45108  0.72254  0.67652  Biso   1.000  C
  C682     1.0000 0.42244  0.69992  0.66652  Biso   1.000  C
  C683     1.0000 0.41123  0.67043  0.68545  Biso   1.000  C
  H137     1.0000 0.42090  0.66180  0.70590  Biso   1.000  H
  C684     1.0000 0.38186  0.65646  0.66670  Biso   1.000  C
  C685     1.0000 0.37256  0.67547  0.63770  Biso   1.000  C
  S138     1.0000 0.39909  0.20936  0.12990  Biso   1.000  S
  O275     1.0000 0.45908  0.24589  0.15596  Biso   1.000  O
  O276     1.0000 0.46485  0.21830  0.20520  Biso   1.000  O
  C686     1.0000 0.45108  0.22254  0.17652  Biso   1.000  C
  C687     1.0000 0.42244  0.19992  0.16652  Biso   1.000  C
  C688     1.0000 0.41123  0.17043  0.18545  Biso   1.000  C
  H138     1.0000 0.42090  0.16180  0.20590  Biso   1.000  H
  C689     1.0000 0.38186  0.15646  0.16670  Biso   1.000  C
  C690     1.0000 0.37256  0.17547  0.13770  Biso   1.000  C
  S139     1.0000 0.89909  0.70936  0.12990  Biso   1.000  S
  O277     1.0000 0.95908  0.74589  0.15596  Biso   1.000  O
  O278     1.0000 0.96485  0.71830  0.20520  Biso   1.000  O
  C691     1.0000 0.95108  0.72254  0.17652  Biso   1.000  C
  C692     1.0000 0.92244  0.69992  0.16652  Biso   1.000  C
  C693     1.0000 0.91123  0.67043  0.18545  Biso   1.000  C
  H139     1.0000 0.92090  0.66180  0.20590  Biso   1.000  H
  C694     1.0000 0.88186  0.65646  0.16670  Biso   1.000  C
  C695     1.0000 0.87256  0.67547  0.13770  Biso   1.000  C
  S140     1.0000 0.89909  0.20936  0.62990  Biso   1.000  S
  O279     1.0000 0.95908  0.24589  0.65596  Biso   1.000  O
  O280     1.0000 0.96485  0.21830  0.70520  Biso   1.000  O
  C696     1.0000 0.95108  0.22254  0.67652  Biso   1.000  C
  C697     1.0000 0.92244  0.19992  0.66652  Biso   1.000  C
  C698     1.0000 0.91123  0.17043  0.68545  Biso   1.000  C
  H140     1.0000 0.92090  0.16180  0.70590  Biso   1.000  H
  C699     1.0000 0.88186  0.15646  0.66670  Biso   1.000  C
  C700     1.0000 0.87256  0.17547  0.63770  Biso   1.000  C
  S141     1.0000 0.60091  0.70936  0.37010  Biso   1.000  S
  O281     1.0000 0.54092  0.74589  0.34404  Biso   1.000  O
  O282     1.0000 0.53515  0.71830  0.29480  Biso   1.000  O
  C701     1.0000 0.54892  0.72254  0.32348  Biso   1.000  C
  C702     1.0000 0.57756  0.69992  0.33348  Biso   1.000  C
  C703     1.0000 0.58877  0.67043  0.31455  Biso   1.000  C
  H141     1.0000 0.57910  0.66180  0.29410  Biso   1.000  H
  C704     1.0000 0.61814  0.65646  0.33330  Biso   1.000  C
  C705     1.0000 0.62744  0.67547  0.36230  Biso   1.000  C
  S142     1.0000 0.60091  0.20936  0.87010  Biso   1.000  S
  O283     1.0000 0.54092  0.24589  0.84404  Biso   1.000  O
  O284     1.0000 0.53515  0.21830  0.79480  Biso   1.000  O
  C706     1.0000 0.54892  0.22254  0.82348  Biso   1.000  C
  C707     1.0000 0.57756  0.19992  0.83348  Biso   1.000  C
  C708     1.0000 0.58877  0.17043  0.81455  Biso   1.000  C
  H142     1.0000 0.57910  0.16180  0.79410  Biso   1.000  H
  C709     1.0000 0.61814  0.15646  0.83330  Biso   1.000  C
  C710     1.0000 0.62744  0.17547  0.86230  Biso   1.000  C
  S143     1.0000 0.10091  0.70936  0.87010  Biso   1.000  S
  O285     1.0000 0.04092  0.74589  0.84404  Biso   1.000  O
  O286     1.0000 0.03515  0.71830  0.79480  Biso   1.000  O
  C711     1.0000 0.04892  0.72254  0.82348  Biso   1.000  C
  C712     1.0000 0.07756  0.69992  0.83348  Biso   1.000  C
  C713     1.0000 0.08877  0.67043  0.81455  Biso   1.000  C
  H143     1.0000 0.07910  0.66180  0.79410  Biso   1.000  H
  C714     1.0000 0.11814  0.65646  0.83330  Biso   1.000  C
  C715     1.0000 0.12744  0.67547  0.86230  Biso   1.000  C
  S144     1.0000 0.10091  0.20936  0.37010  Biso   1.000  S
  O287     1.0000 0.04092  0.24589  0.34404  Biso   1.000  O
  O288     1.0000 0.03515  0.21830  0.29480  Biso   1.000  O
  C716     1.0000 0.04892  0.22254  0.32348  Biso   1.000  C
  C717     1.0000 0.07756  0.19992  0.33348  Biso   1.000  C
  C718     1.0000 0.08877  0.17043  0.31455  Biso   1.000  C
  H144     1.0000 0.07910  0.16180  0.29410  Biso   1.000  H
  C719     1.0000 0.11814  0.15646  0.33330  Biso   1.000  C
  C720     1.0000 0.12744  0.17547  0.36230  Biso   1.000  C
  S145     1.0000 0.89909  0.87010  0.20936  Biso   1.000  S
  O289     1.0000 0.95908  0.84404  0.24589  Biso   1.000  O
  O290     1.0000 0.96485  0.79480  0.21830  Biso   1.000  O
  C721     1.0000 0.95108  0.82348  0.22254  Biso   1.000  C
  C722     1.0000 0.92244  0.83348  0.19992  Biso   1.000  C
  C723     1.0000 0.91123  0.81455  0.17043  Biso   1.000  C
  H145     1.0000 0.92090  0.79410  0.16180  Biso   1.000  H
  C724     1.0000 0.88186  0.83330  0.15646  Biso   1.000  C
  C725     1.0000 0.87256  0.86230  0.17547  Biso   1.000  C
  S146     1.0000 0.89909  0.37010  0.70936  Biso   1.000  S
  O291     1.0000 0.95908  0.34404  0.74589  Biso   1.000  O
  O292     1.0000 0.96485  0.29480  0.71830  Biso   1.000  O
  C726     1.0000 0.95108  0.32348  0.72254  Biso   1.000  C
  C727     1.0000 0.92244  0.33348  0.69992  Biso   1.000  C
  C728     1.0000 0.91123  0.31455  0.67043  Biso   1.000  C
  H146     1.0000 0.92090  0.29410  0.66180  Biso   1.000  H
  C729     1.0000 0.88186  0.33330  0.65646  Biso   1.000  C
  C730     1.0000 0.87256  0.36230  0.67547  Biso   1.000  C
  S147     1.0000 0.39909  0.87010  0.70936  Biso   1.000  S
  O293     1.0000 0.45908  0.84404  0.74589  Biso   1.000  O
  O294     1.0000 0.46485  0.79480  0.71830  Biso   1.000  O
  C731     1.0000 0.45108  0.82348  0.72254  Biso   1.000  C
  C732     1.0000 0.42244  0.83348  0.69992  Biso   1.000  C
  C733     1.0000 0.41123  0.81455  0.67043  Biso   1.000  C
  H147     1.0000 0.42090  0.79410  0.66180  Biso   1.000  H
  C734     1.0000 0.38186  0.83330  0.65646  Biso   1.000  C
  C735     1.0000 0.37256  0.86230  0.67547  Biso   1.000  C
  S148     1.0000 0.39909  0.37010  0.20936  Biso   1.000  S
  O295     1.0000 0.45908  0.34404  0.24589  Biso   1.000  O
  O296     1.0000 0.46485  0.29480  0.21830  Biso   1.000  O
  C736     1.0000 0.45108  0.32348  0.22254  Biso   1.000  C
  C737     1.0000 0.42244  0.33348  0.19992  Biso   1.000  C
  C738     1.0000 0.41123  0.31455  0.17043  Biso   1.000  C
  H148     1.0000 0.42090  0.29410  0.16180  Biso   1.000  H
  C739     1.0000 0.38186  0.33330  0.15646  Biso   1.000  C
  C740     1.0000 0.37256  0.36230  0.17547  Biso   1.000  C
  S149     1.0000 0.10091  0.12990  0.20936  Biso   1.000  S
  O297     1.0000 0.04092  0.15596  0.24589  Biso   1.000  O
  O298     1.0000 0.03515  0.20520  0.21830  Biso   1.000  O
  C741     1.0000 0.04892  0.17652  0.22254  Biso   1.000  C
  C742     1.0000 0.07756  0.16652  0.19992  Biso   1.000  C
  C743     1.0000 0.08877  0.18545  0.17043  Biso   1.000  C
  H149     1.0000 0.07910  0.20590  0.16180  Biso   1.000  H
  C744     1.0000 0.11814  0.16670  0.15646  Biso   1.000  C
  C745     1.0000 0.12744  0.13770  0.17547  Biso   1.000  C
  S150     1.0000 0.10091  0.62990  0.70936  Biso   1.000  S
  O299     1.0000 0.04092  0.65596  0.74589  Biso   1.000  O
  O300     1.0000 0.03515  0.70520  0.71830  Biso   1.000  O
  C746     1.0000 0.04892  0.67652  0.72254  Biso   1.000  C
  C747     1.0000 0.07756  0.66652  0.69992  Biso   1.000  C
  C748     1.0000 0.08877  0.68545  0.67043  Biso   1.000  C
  H150     1.0000 0.07910  0.70590  0.66180  Biso   1.000  H
  C749     1.0000 0.11814  0.66670  0.65646  Biso   1.000  C
  C750     1.0000 0.12744  0.63770  0.67547  Biso   1.000  C
  S151     1.0000 0.60091  0.12990  0.70936  Biso   1.000  S
  O301     1.0000 0.54092  0.15596  0.74589  Biso   1.000  O
  O302     1.0000 0.53515  0.20520  0.71830  Biso   1.000  O
  C751     1.0000 0.54892  0.17652  0.72254  Biso   1.000  C
  C752     1.0000 0.57756  0.16652  0.69992  Biso   1.000  C
  C753     1.0000 0.58877  0.18545  0.67043  Biso   1.000  C
  H151     1.0000 0.57910  0.20590  0.66180  Biso   1.000  H
  C754     1.0000 0.61814  0.16670  0.65646  Biso   1.000  C
  C755     1.0000 0.62744  0.13770  0.67547  Biso   1.000  C
  S152     1.0000 0.60091  0.62990  0.20936  Biso   1.000  S
  O303     1.0000 0.54092  0.65596  0.24589  Biso   1.000  O
  O304     1.0000 0.53515  0.70520  0.21830  Biso   1.000  O
  C756     1.0000 0.54892  0.67652  0.22254  Biso   1.000  C
  C757     1.0000 0.57756  0.66652  0.19992  Biso   1.000  C
  C758     1.0000 0.58877  0.68545  0.17043  Biso   1.000  C
  H152     1.0000 0.57910  0.70590  0.16180  Biso   1.000  H
  C759     1.0000 0.61814  0.66670  0.15646  Biso   1.000  C
  C760     1.0000 0.62744  0.63770  0.17547  Biso   1.000  C
  S153     1.0000 0.89909  0.12990  0.79064  Biso   1.000  S
  O305     1.0000 0.95908  0.15596  0.75411  Biso   1.000  O
  O306     1.0000 0.96485  0.20520  0.78170  Biso   1.000  O
  C761     1.0000 0.95108  0.17652  0.77746  Biso   1.000  C
  C762     1.0000 0.92244  0.16652  0.80008  Biso   1.000  C
  C763     1.0000 0.91123  0.18545  0.82957  Biso   1.000  C
  H153     1.0000 0.92090  0.20590  0.83820  Biso   1.000  H
  C764     1.0000 0.88186  0.16670  0.84354  Biso   1.000  C
  C765     1.0000 0.87256  0.13770  0.82453  Biso   1.000  C
  S154     1.0000 0.89909  0.62990  0.29064  Biso   1.000  S
  O307     1.0000 0.95908  0.65596  0.25411  Biso   1.000  O
  O308     1.0000 0.96485  0.70520  0.28170  Biso   1.000  O
  C766     1.0000 0.95108  0.67652  0.27746  Biso   1.000  C
  C767     1.0000 0.92244  0.66652  0.30008  Biso   1.000  C
  C768     1.0000 0.91123  0.68545  0.32957  Biso   1.000  C
  H154     1.0000 0.92090  0.70590  0.33820  Biso   1.000  H
  C769     1.0000 0.88186  0.66670  0.34354  Biso   1.000  C
  C770     1.0000 0.87256  0.63770  0.32453  Biso   1.000  C
  S155     1.0000 0.39909  0.12990  0.29064  Biso   1.000  S
  O309     1.0000 0.45908  0.15596  0.25411  Biso   1.000  O
  O310     1.0000 0.46485  0.20520  0.28170  Biso   1.000  O
  C771     1.0000 0.45108  0.17652  0.27746  Biso   1.000  C
  C772     1.0000 0.42244  0.16652  0.30008  Biso   1.000  C
  C773     1.0000 0.41123  0.18545  0.32957  Biso   1.000  C
  H155     1.0000 0.42090  0.20590  0.33820  Biso   1.000  H
  C774     1.0000 0.38186  0.16670  0.34354  Biso   1.000  C
  C775     1.0000 0.37256  0.13770  0.32453  Biso   1.000  C
  S156     1.0000 0.39909  0.62990  0.79064  Biso   1.000  S
  O311     1.0000 0.45908  0.65596  0.75411  Biso   1.000  O
  O312     1.0000 0.46485  0.70520  0.78170  Biso   1.000  O
  C776     1.0000 0.45108  0.67652  0.77746  Biso   1.000  C
  C777     1.0000 0.42244  0.66652  0.80008  Biso   1.000  C
  C778     1.0000 0.41123  0.68545  0.82957  Biso   1.000  C
  H156     1.0000 0.42090  0.70590  0.83820  Biso   1.000  H
  C779     1.0000 0.38186  0.66670  0.84354  Biso   1.000  C
  C780     1.0000 0.37256  0.63770  0.82453  Biso   1.000  C
  S157     1.0000 0.10091  0.87010  0.79064  Biso   1.000  S
  O313     1.0000 0.04092  0.84404  0.75411  Biso   1.000  O
  O314     1.0000 0.03515  0.79480  0.78170  Biso   1.000  O
  C781     1.0000 0.04892  0.82348  0.77746  Biso   1.000  C
  C782     1.0000 0.07756  0.83348  0.80008  Biso   1.000  C
  C783     1.0000 0.08877  0.81455  0.82957  Biso   1.000  C
  H157     1.0000 0.07910  0.79410  0.83820  Biso   1.000  H
  C784     1.0000 0.11814  0.83330  0.84354  Biso   1.000  C
  C785     1.0000 0.12744  0.86230  0.82453  Biso   1.000  C
  S158     1.0000 0.10091  0.37010  0.29064  Biso   1.000  S
  O315     1.0000 0.04092  0.34404  0.25411  Biso   1.000  O
  O316     1.0000 0.03515  0.29480  0.28170  Biso   1.000  O
  C786     1.0000 0.04892  0.32348  0.27746  Biso   1.000  C
  C787     1.0000 0.07756  0.33348  0.30008  Biso   1.000  C
  C788     1.0000 0.08877  0.31455  0.32957  Biso   1.000  C
  H158     1.0000 0.07910  0.29410  0.33820  Biso   1.000  H
  C789     1.0000 0.11814  0.33330  0.34354  Biso   1.000  C
  C790     1.0000 0.12744  0.36230  0.32453  Biso   1.000  C
  S159     1.0000 0.60091  0.87010  0.29064  Biso   1.000  S
  O317     1.0000 0.54092  0.84404  0.25411  Biso   1.000  O
  O318     1.0000 0.53515  0.79480  0.28170  Biso   1.000  O
  C791     1.0000 0.54892  0.82348  0.27746  Biso   1.000  C
  C792     1.0000 0.57756  0.83348  0.30008  Biso   1.000  C
  C793     1.0000 0.58877  0.81455  0.32957  Biso   1.000  C
  H159     1.0000 0.57910  0.79410  0.33820  Biso   1.000  H
  C794     1.0000 0.61814  0.83330  0.34354  Biso   1.000  C
  C795     1.0000 0.62744  0.86230  0.32453  Biso   1.000  C
  S160     1.0000 0.60091  0.37010  0.79064  Biso   1.000  S
  O319     1.0000 0.54092  0.34404  0.75411  Biso   1.000  O
  O320     1.0000 0.53515  0.29480  0.78170  Biso   1.000  O
  C796     1.0000 0.54892  0.32348  0.77746  Biso   1.000  C
  C797     1.0000 0.57756  0.33348  0.80008  Biso   1.000  C
  C798     1.0000 0.58877  0.31455  0.82957  Biso   1.000  C
  H160     1.0000 0.57910  0.29410  0.83820  Biso   1.000  H
  C799     1.0000 0.61814  0.33330  0.84354  Biso   1.000  C
  C800     1.0000 0.62744  0.36230  0.82453  Biso   1.000  C
  S161     1.0000 0.87010  0.79064  0.10091  Biso   1.000  S
  O321     1.0000 0.84404  0.75411  0.04092  Biso   1.000  O
  O322     1.0000 0.79480  0.78170  0.03515  Biso   1.000  O
  C801     1.0000 0.82348  0.77746  0.04892  Biso   1.000  C
  C802     1.0000 0.83348  0.80008  0.07756  Biso   1.000  C
  C803     1.0000 0.81455  0.82957  0.08877  Biso   1.000  C
  H161     1.0000 0.79410  0.83820  0.07910  Biso   1.000  H
  C804     1.0000 0.83330  0.84354  0.11814  Biso   1.000  C
  C805     1.0000 0.86230  0.82453  0.12744  Biso   1.000  C
  S162     1.0000 0.87010  0.29064  0.60091  Biso   1.000  S
  O323     1.0000 0.84404  0.25411  0.54092  Biso   1.000  O
  O324     1.0000 0.79480  0.28170  0.53515  Biso   1.000  O
  C806     1.0000 0.82348  0.27746  0.54892  Biso   1.000  C
  C807     1.0000 0.83348  0.30008  0.57756  Biso   1.000  C
  C808     1.0000 0.81455  0.32957  0.58877  Biso   1.000  C
  H162     1.0000 0.79410  0.33820  0.57910  Biso   1.000  H
  C809     1.0000 0.83330  0.34354  0.61814  Biso   1.000  C
  C810     1.0000 0.86230  0.32453  0.62744  Biso   1.000  C
  S163     1.0000 0.37010  0.79064  0.60091  Biso   1.000  S
  O325     1.0000 0.34404  0.75411  0.54092  Biso   1.000  O
  O326     1.0000 0.29480  0.78170  0.53515  Biso   1.000  O
  C811     1.0000 0.32348  0.77746  0.54892  Biso   1.000  C
  C812     1.0000 0.33348  0.80008  0.57756  Biso   1.000  C
  C813     1.0000 0.31455  0.82957  0.58877  Biso   1.000  C
  H163     1.0000 0.29410  0.83820  0.57910  Biso   1.000  H
  C814     1.0000 0.33330  0.84354  0.61814  Biso   1.000  C
  C815     1.0000 0.36230  0.82453  0.62744  Biso   1.000  C
  S164     1.0000 0.37010  0.29064  0.10091  Biso   1.000  S
  O327     1.0000 0.34404  0.25411  0.04092  Biso   1.000  O
  O328     1.0000 0.29480  0.28170  0.03515  Biso   1.000  O
  C816     1.0000 0.32348  0.27746  0.04892  Biso   1.000  C
  C817     1.0000 0.33348  0.30008  0.07756  Biso   1.000  C
  C818     1.0000 0.31455  0.32957  0.08877  Biso   1.000  C
  H164     1.0000 0.29410  0.33820  0.07910  Biso   1.000  H
  C819     1.0000 0.33330  0.34354  0.11814  Biso   1.000  C
  C820     1.0000 0.36230  0.32453  0.12744  Biso   1.000  C
  S165     1.0000 0.12990  0.79064  0.89909  Biso   1.000  S
  O329     1.0000 0.15596  0.75411  0.95908  Biso   1.000  O
  O330     1.0000 0.20520  0.78170  0.96485  Biso   1.000  O
  C821     1.0000 0.17652  0.77746  0.95108  Biso   1.000  C
  C822     1.0000 0.16652  0.80008  0.92244  Biso   1.000  C
  C823     1.0000 0.18545  0.82957  0.91123  Biso   1.000  C
  H165     1.0000 0.20590  0.83820  0.92090  Biso   1.000  H
  C824     1.0000 0.16670  0.84354  0.88186  Biso   1.000  C
  C825     1.0000 0.13770  0.82453  0.87256  Biso   1.000  C
  S166     1.0000 0.12990  0.29064  0.39909  Biso   1.000  S
  O331     1.0000 0.15596  0.25411  0.45908  Biso   1.000  O
  O332     1.0000 0.20520  0.28170  0.46485  Biso   1.000  O
  C826     1.0000 0.17652  0.27746  0.45108  Biso   1.000  C
  C827     1.0000 0.16652  0.30008  0.42244  Biso   1.000  C
  C828     1.0000 0.18545  0.32957  0.41123  Biso   1.000  C
  H166     1.0000 0.20590  0.33820  0.42090  Biso   1.000  H
  C829     1.0000 0.16670  0.34354  0.38186  Biso   1.000  C
  C830     1.0000 0.13770  0.32453  0.37256  Biso   1.000  C
  S167     1.0000 0.62990  0.79064  0.39909  Biso   1.000  S
  O333     1.0000 0.65596  0.75411  0.45908  Biso   1.000  O
  O334     1.0000 0.70520  0.78170  0.46485  Biso   1.000  O
  C831     1.0000 0.67652  0.77746  0.45108  Biso   1.000  C
  C832     1.0000 0.66652  0.80008  0.42244  Biso   1.000  C
  C833     1.0000 0.68545  0.82957  0.41123  Biso   1.000  C
  H167     1.0000 0.70590  0.83820  0.42090  Biso   1.000  H
  C834     1.0000 0.66670  0.84354  0.38186  Biso   1.000  C
  C835     1.0000 0.63770  0.82453  0.37256  Biso   1.000  C
  S168     1.0000 0.62990  0.29064  0.89909  Biso   1.000  S
  O335     1.0000 0.65596  0.25411  0.95908  Biso   1.000  O
  O336     1.0000 0.70520  0.28170  0.96485  Biso   1.000  O
  C836     1.0000 0.67652  0.27746  0.95108  Biso   1.000  C
  C837     1.0000 0.66652  0.30008  0.92244  Biso   1.000  C
  C838     1.0000 0.68545  0.32957  0.91123  Biso   1.000  C
  H168     1.0000 0.70590  0.33820  0.92090  Biso   1.000  H
  C839     1.0000 0.66670  0.34354  0.88186  Biso   1.000  C
  C840     1.0000 0.63770  0.32453  0.87256  Biso   1.000  C
  S169     1.0000 0.12990  0.20936  0.10091  Biso   1.000  S
  O337     1.0000 0.15596  0.24589  0.04092  Biso   1.000  O
  O338     1.0000 0.20520  0.21830  0.03515  Biso   1.000  O
  C841     1.0000 0.17652  0.22254  0.04892  Biso   1.000  C
  C842     1.0000 0.16652  0.19992  0.07756  Biso   1.000  C
  C843     1.0000 0.18545  0.17043  0.08877  Biso   1.000  C
  H169     1.0000 0.20590  0.16180  0.07910  Biso   1.000  H
  C844     1.0000 0.16670  0.15646  0.11814  Biso   1.000  C
  C845     1.0000 0.13770  0.17547  0.12744  Biso   1.000  C
  S170     1.0000 0.12990  0.70936  0.60091  Biso   1.000  S
  O339     1.0000 0.15596  0.74589  0.54092  Biso   1.000  O
  O340     1.0000 0.20520  0.71830  0.53515  Biso   1.000  O
  C846     1.0000 0.17652  0.72254  0.54892  Biso   1.000  C
  C847     1.0000 0.16652  0.69992  0.57756  Biso   1.000  C
  C848     1.0000 0.18545  0.67043  0.58877  Biso   1.000  C
  H170     1.0000 0.20590  0.66180  0.57910  Biso   1.000  H
  C849     1.0000 0.16670  0.65646  0.61814  Biso   1.000  C
  C850     1.0000 0.13770  0.67547  0.62744  Biso   1.000  C
  S171     1.0000 0.62990  0.20936  0.60091  Biso   1.000  S
  O341     1.0000 0.65596  0.24589  0.54092  Biso   1.000  O
  O342     1.0000 0.70520  0.21830  0.53515  Biso   1.000  O
  C851     1.0000 0.67652  0.22254  0.54892  Biso   1.000  C
  C852     1.0000 0.66652  0.19992  0.57756  Biso   1.000  C
  C853     1.0000 0.68545  0.17043  0.58877  Biso   1.000  C
  H171     1.0000 0.70590  0.16180  0.57910  Biso   1.000  H
  C854     1.0000 0.66670  0.15646  0.61814  Biso   1.000  C
  C855     1.0000 0.63770  0.17547  0.62744  Biso   1.000  C
  S172     1.0000 0.62990  0.70936  0.10091  Biso   1.000  S
  O343     1.0000 0.65596  0.74589  0.04092  Biso   1.000  O
  O344     1.0000 0.70520  0.71830  0.03515  Biso   1.000  O
  C856     1.0000 0.67652  0.72254  0.04892  Biso   1.000  C
  C857     1.0000 0.66652  0.69992  0.07756  Biso   1.000  C
  C858     1.0000 0.68545  0.67043  0.08877  Biso   1.000  C
  H172     1.0000 0.70590  0.66180  0.07910  Biso   1.000  H
  C859     1.0000 0.66670  0.65646  0.11814  Biso   1.000  C
  C860     1.0000 0.63770  0.67547  0.12744  Biso   1.000  C
  S173     1.0000 0.87010  0.20936  0.89909  Biso   1.000  S
  O345     1.0000 0.84404  0.24589  0.95908  Biso   1.000  O
  O346     1.0000 0.79480  0.21830  0.96485  Biso   1.000  O
  C861     1.0000 0.82348  0.22254  0.95108  Biso   1.000  C
  C862     1.0000 0.83348  0.19992  0.92244  Biso   1.000  C
  C863     1.0000 0.81455  0.17043  0.91123  Biso   1.000  C
  H173     1.0000 0.79410  0.16180  0.92090  Biso   1.000  H
  C864     1.0000 0.83330  0.15646  0.88186  Biso   1.000  C
  C865     1.0000 0.86230  0.17547  0.87256  Biso   1.000  C
  S174     1.0000 0.87010  0.70936  0.39909  Biso   1.000  S
  O347     1.0000 0.84404  0.74589  0.45908  Biso   1.000  O
  O348     1.0000 0.79480  0.71830  0.46485  Biso   1.000  O
  C866     1.0000 0.82348  0.72254  0.45108  Biso   1.000  C
  C867     1.0000 0.83348  0.69992  0.42244  Biso   1.000  C
  C868     1.0000 0.81455  0.67043  0.41123  Biso   1.000  C
  H174     1.0000 0.79410  0.66180  0.42090  Biso   1.000  H
  C869     1.0000 0.83330  0.65646  0.38186  Biso   1.000  C
  C870     1.0000 0.86230  0.67547  0.37256  Biso   1.000  C
  S175     1.0000 0.37010  0.20936  0.39909  Biso   1.000  S
  O349     1.0000 0.34404  0.24589  0.45908  Biso   1.000  O
  O350     1.0000 0.29480  0.21830  0.46485  Biso   1.000  O
  C871     1.0000 0.32348  0.22254  0.45108  Biso   1.000  C
  C872     1.0000 0.33348  0.19992  0.42244  Biso   1.000  C
  C873     1.0000 0.31455  0.17043  0.41123  Biso   1.000  C
  H175     1.0000 0.29410  0.16180  0.42090  Biso   1.000  H
  C874     1.0000 0.33330  0.15646  0.38186  Biso   1.000  C
  C875     1.0000 0.36230  0.17547  0.37256  Biso   1.000  C
  S176     1.0000 0.37010  0.70936  0.89909  Biso   1.000  S
  O351     1.0000 0.34404  0.74589  0.95908  Biso   1.000  O
  O352     1.0000 0.29480  0.71830  0.96485  Biso   1.000  O
  C876     1.0000 0.32348  0.72254  0.95108  Biso   1.000  C
  C877     1.0000 0.33348  0.69992  0.92244  Biso   1.000  C
  C878     1.0000 0.31455  0.67043  0.91123  Biso   1.000  C
  H176     1.0000 0.29410  0.66180  0.92090  Biso   1.000  H
  C879     1.0000 0.33330  0.65646  0.88186  Biso   1.000  C
  C880     1.0000 0.36230  0.67547  0.87256  Biso   1.000  C
  S177     1.0000 0.79064  0.89909  0.12990  Biso   1.000  S
  O353     1.0000 0.75411  0.95908  0.15596  Biso   1.000  O
  O354     1.0000 0.78170  0.96485  0.20520  Biso   1.000  O
  C881     1.0000 0.77746  0.95108  0.17652  Biso   1.000  C
  C882     1.0000 0.80008  0.92244  0.16652  Biso   1.000  C
  C883     1.0000 0.82957  0.91123  0.18545  Biso   1.000  C
  H177     1.0000 0.83820  0.92090  0.20590  Biso   1.000  H
  C884     1.0000 0.84354  0.88186  0.16670  Biso   1.000  C
  C885     1.0000 0.82453  0.87256  0.13770  Biso   1.000  C
  S178     1.0000 0.79064  0.39909  0.62990  Biso   1.000  S
  O355     1.0000 0.75411  0.45908  0.65596  Biso   1.000  O
  O356     1.0000 0.78170  0.46485  0.70520  Biso   1.000  O
  C886     1.0000 0.77746  0.45108  0.67652  Biso   1.000  C
  C887     1.0000 0.80008  0.42244  0.66652  Biso   1.000  C
  C888     1.0000 0.82957  0.41123  0.68545  Biso   1.000  C
  H178     1.0000 0.83820  0.42090  0.70590  Biso   1.000  H
  C889     1.0000 0.84354  0.38186  0.66670  Biso   1.000  C
  C890     1.0000 0.82453  0.37256  0.63770  Biso   1.000  C
  S179     1.0000 0.29064  0.89909  0.62990  Biso   1.000  S
  O357     1.0000 0.25411  0.95908  0.65596  Biso   1.000  O
  O358     1.0000 0.28170  0.96485  0.70520  Biso   1.000  O
  C891     1.0000 0.27746  0.95108  0.67652  Biso   1.000  C
  C892     1.0000 0.30008  0.92244  0.66652  Biso   1.000  C
  C893     1.0000 0.32957  0.91123  0.68545  Biso   1.000  C
  H179     1.0000 0.33820  0.92090  0.70590  Biso   1.000  H
  C894     1.0000 0.34354  0.88186  0.66670  Biso   1.000  C
  C895     1.0000 0.32453  0.87256  0.63770  Biso   1.000  C
  S180     1.0000 0.29064  0.39909  0.12990  Biso   1.000  S
  O359     1.0000 0.25411  0.45908  0.15596  Biso   1.000  O
  O360     1.0000 0.28170  0.46485  0.20520  Biso   1.000  O
  C896     1.0000 0.27746  0.45108  0.17652  Biso   1.000  C
  C897     1.0000 0.30008  0.42244  0.16652  Biso   1.000  C
  C898     1.0000 0.32957  0.41123  0.18545  Biso   1.000  C
  H180     1.0000 0.33820  0.42090  0.20590  Biso   1.000  H
  C899     1.0000 0.34354  0.38186  0.16670  Biso   1.000  C
  C900     1.0000 0.32453  0.37256  0.13770  Biso   1.000  C
  S181     1.0000 0.79064  0.10091  0.87010  Biso   1.000  S
  O361     1.0000 0.75411  0.04092  0.84404  Biso   1.000  O
  O362     1.0000 0.78170  0.03515  0.79480  Biso   1.000  O
  C901     1.0000 0.77746  0.04892  0.82348  Biso   1.000  C
  C902     1.0000 0.80008  0.07756  0.83348  Biso   1.000  C
  C903     1.0000 0.82957  0.08877  0.81455  Biso   1.000  C
  H181     1.0000 0.83820  0.07910  0.79410  Biso   1.000  H
  C904     1.0000 0.84354  0.11814  0.83330  Biso   1.000  C
  C905     1.0000 0.82453  0.12744  0.86230  Biso   1.000  C
  S182     1.0000 0.79064  0.60091  0.37010  Biso   1.000  S
  O363     1.0000 0.75411  0.54092  0.34404  Biso   1.000  O
  O364     1.0000 0.78170  0.53515  0.29480  Biso   1.000  O
  C906     1.0000 0.77746  0.54892  0.32348  Biso   1.000  C
  C907     1.0000 0.80008  0.57756  0.33348  Biso   1.000  C
  C908     1.0000 0.82957  0.58877  0.31455  Biso   1.000  C
  H182     1.0000 0.83820  0.57910  0.29410  Biso   1.000  H
  C909     1.0000 0.84354  0.61814  0.33330  Biso   1.000  C
  C910     1.0000 0.82453  0.62744  0.36230  Biso   1.000  C
  S183     1.0000 0.29064  0.10091  0.37010  Biso   1.000  S
  O365     1.0000 0.25411  0.04092  0.34404  Biso   1.000  O
  O366     1.0000 0.28170  0.03515  0.29480  Biso   1.000  O
  C911     1.0000 0.27746  0.04892  0.32348  Biso   1.000  C
  C912     1.0000 0.30008  0.07756  0.33348  Biso   1.000  C
  C913     1.0000 0.32957  0.08877  0.31455  Biso   1.000  C
  H183     1.0000 0.33820  0.07910  0.29410  Biso   1.000  H
  C914     1.0000 0.34354  0.11814  0.33330  Biso   1.000  C
  C915     1.0000 0.32453  0.12744  0.36230  Biso   1.000  C
  S184     1.0000 0.29064  0.60091  0.87010  Biso   1.000  S
  O367     1.0000 0.25411  0.54092  0.84404  Biso   1.000  O
  O368     1.0000 0.28170  0.53515  0.79480  Biso   1.000  O
  C916     1.0000 0.27746  0.54892  0.82348  Biso   1.000  C
  C917     1.0000 0.30008  0.57756  0.83348  Biso   1.000  C
  C918     1.0000 0.32957  0.58877  0.81455  Biso   1.000  C
  H184     1.0000 0.33820  0.57910  0.79410  Biso   1.000  H
  C919     1.0000 0.34354  0.61814  0.83330  Biso   1.000  C
  C920     1.0000 0.32453  0.62744  0.86230  Biso   1.000  C
  S185     1.0000 0.20936  0.89909  0.87010  Biso   1.000  S
  O369     1.0000 0.24589  0.95908  0.84404  Biso   1.000  O
  O370     1.0000 0.21830  0.96485  0.79480  Biso   1.000  O
  C921     1.0000 0.22254  0.95108  0.82348  Biso   1.000  C
  C922     1.0000 0.19992  0.92244  0.83348  Biso   1.000  C
  C923     1.0000 0.17043  0.91123  0.81455  Biso   1.000  C
  H185     1.0000 0.16180  0.92090  0.79410  Biso   1.000  H
  C924     1.0000 0.15646  0.88186  0.83330  Biso   1.000  C
  C925     1.0000 0.17547  0.87256  0.86230  Biso   1.000  C
  S186     1.0000 0.20936  0.39909  0.37010  Biso   1.000  S
  O371     1.0000 0.24589  0.45908  0.34404  Biso   1.000  O
  O372     1.0000 0.21830  0.46485  0.29480  Biso   1.000  O
  C926     1.0000 0.22254  0.45108  0.32348  Biso   1.000  C
  C927     1.0000 0.19992  0.42244  0.33348  Biso   1.000  C
  C928     1.0000 0.17043  0.41123  0.31455  Biso   1.000  C
  H186     1.0000 0.16180  0.42090  0.29410  Biso   1.000  H
  C929     1.0000 0.15646  0.38186  0.33330  Biso   1.000  C
  C930     1.0000 0.17547  0.37256  0.36230  Biso   1.000  C
  S187     1.0000 0.70936  0.89909  0.37010  Biso   1.000  S
  O373     1.0000 0.74589  0.95908  0.34404  Biso   1.000  O
  O374     1.0000 0.71830  0.96485  0.29480  Biso   1.000  O
  C931     1.0000 0.72254  0.95108  0.32348  Biso   1.000  C
  C932     1.0000 0.69992  0.92244  0.33348  Biso   1.000  C
  C933     1.0000 0.67043  0.91123  0.31455  Biso   1.000  C
  H187     1.0000 0.66180  0.92090  0.29410  Biso   1.000  H
  C934     1.0000 0.65646  0.88186  0.33330  Biso   1.000  C
  C935     1.0000 0.67547  0.87256  0.36230  Biso   1.000  C
  S188     1.0000 0.70936  0.39909  0.87010  Biso   1.000  S
  O375     1.0000 0.74589  0.45908  0.84404  Biso   1.000  O
  O376     1.0000 0.71830  0.46485  0.79480  Biso   1.000  O
  C936     1.0000 0.72254  0.45108  0.82348  Biso   1.000  C
  C937     1.0000 0.69992  0.42244  0.83348  Biso   1.000  C
  C938     1.0000 0.67043  0.41123  0.81455  Biso   1.000  C
  H188     1.0000 0.66180  0.42090  0.79410  Biso   1.000  H
  C939     1.0000 0.65646  0.38186  0.83330  Biso   1.000  C
  C940     1.0000 0.67547  0.37256  0.86230  Biso   1.000  C
  S189     1.0000 0.20936  0.10091  0.12990  Biso   1.000  S
  O377     1.0000 0.24589  0.04092  0.15596  Biso   1.000  O
  O378     1.0000 0.21830  0.03515  0.20520  Biso   1.000  O
  C941     1.0000 0.22254  0.04892  0.17652  Biso   1.000  C
  C942     1.0000 0.19992  0.07756  0.16652  Biso   1.000  C
  C943     1.0000 0.17043  0.08877  0.18545  Biso   1.000  C
  H189     1.0000 0.16180  0.07910  0.20590  Biso   1.000  H
  C944     1.0000 0.15646  0.11814  0.16670  Biso   1.000  C
  C945     1.0000 0.17547  0.12744  0.13770  Biso   1.000  C
  S190     1.0000 0.20936  0.60091  0.62990  Biso   1.000  S
  O379     1.0000 0.24589  0.54092  0.65596  Biso   1.000  O
  O380     1.0000 0.21830  0.53515  0.70520  Biso   1.000  O
  C946     1.0000 0.22254  0.54892  0.67652  Biso   1.000  C
  C947     1.0000 0.19992  0.57756  0.66652  Biso   1.000  C
  C948     1.0000 0.17043  0.58877  0.68545  Biso   1.000  C
  H190     1.0000 0.16180  0.57910  0.70590  Biso   1.000  H
  C949     1.0000 0.15646  0.61814  0.66670  Biso   1.000  C
  C950     1.0000 0.17547  0.62744  0.63770  Biso   1.000  C
  S191     1.0000 0.70936  0.10091  0.62990  Biso   1.000  S
  O381     1.0000 0.74589  0.04092  0.65596  Biso   1.000  O
  O382     1.0000 0.71830  0.03515  0.70520  Biso   1.000  O
  C951     1.0000 0.72254  0.04892  0.67652  Biso   1.000  C
  C952     1.0000 0.69992  0.07756  0.66652  Biso   1.000  C
  C953     1.0000 0.67043  0.08877  0.68545  Biso   1.000  C
  H191     1.0000 0.66180  0.07910  0.70590  Biso   1.000  H
  C954     1.0000 0.65646  0.11814  0.66670  Biso   1.000  C
  C955     1.0000 0.67547  0.12744  0.63770  Biso   1.000  C
  S192     1.0000 0.70936  0.60091  0.12990  Biso   1.000  S
  O383     1.0000 0.74589  0.54092  0.15596  Biso   1.000  O
  O384     1.0000 0.71830  0.53515  0.20520  Biso   1.000  O
  C956     1.0000 0.72254  0.54892  0.17652  Biso   1.000  C
  C957     1.0000 0.69992  0.57756  0.16652  Biso   1.000  C
  C958     1.0000 0.67043  0.58877  0.18545  Biso   1.000  C
  H192     1.0000 0.66180  0.57910  0.20590  Biso   1.000  H
  C959     1.0000 0.65646  0.61814  0.16670  Biso   1.000  C
  C960     1.0000 0.67547  0.62744  0.13770  Biso   1.000  C
  Mn1      1.0000 0.68386  0.50000  0.77163  Biso   1.000  Mn
  Mn2      1.0000 0.68386  0.00000  0.27163  Biso   1.000  Mn
  Mn3      1.0000 0.18386  0.50000  0.27163  Biso   1.000  Mn
  Mn4      1.0000 0.18386  0.00000  0.77163  Biso   1.000  Mn
  Mn5      1.0000 0.31614  0.50000  0.77163  Biso   1.000  Mn
  Mn6      1.0000 0.31614  0.00000  0.27163  Biso   1.000  Mn
  Mn7      1.0000 0.81614  0.50000  0.27163  Biso   1.000  Mn
  Mn8      1.0000 0.81614  0.00000  0.77163  Biso   1.000  Mn
  Mn9      1.0000 0.31614  0.50000  0.22837  Biso   1.000  Mn
  Mn10     1.0000 0.31614  0.00000  0.72837  Biso   1.000  Mn
  Mn11     1.0000 0.81614  0.50000  0.72837  Biso   1.000  Mn
  Mn12     1.0000 0.81614  0.00000  0.22837  Biso   1.000  Mn
  Mn13     1.0000 0.68386  0.50000  0.22837  Biso   1.000  Mn
  Mn14     1.0000 0.68386  0.00000  0.72837  Biso   1.000  Mn
  Mn15     1.0000 0.18386  0.50000  0.72837  Biso   1.000  Mn
  Mn16     1.0000 0.18386  0.00000  0.22837  Biso   1.000  Mn
  Mn17     1.0000 0.77163  0.68386  0.50000  Biso   1.000  Mn
  Mn18     1.0000 0.77163  0.18386  0.00000  Biso   1.000  Mn
  Mn19     1.0000 0.27163  0.68386  0.00000  Biso   1.000  Mn
  Mn20     1.0000 0.27163  0.18386  0.50000  Biso   1.000  Mn
  Mn21     1.0000 0.77163  0.31614  0.50000  Biso   1.000  Mn
  Mn22     1.0000 0.77163  0.81614  0.00000  Biso   1.000  Mn
  Mn23     1.0000 0.27163  0.31614  0.00000  Biso   1.000  Mn
  Mn24     1.0000 0.27163  0.81614  0.50000  Biso   1.000  Mn
  Mn25     1.0000 0.22837  0.31614  0.50000  Biso   1.000  Mn
  Mn26     1.0000 0.22837  0.81614  0.00000  Biso   1.000  Mn
  Mn27     1.0000 0.72837  0.31614  0.00000  Biso   1.000  Mn
  Mn28     1.0000 0.72837  0.81614  0.50000  Biso   1.000  Mn
  Mn29     1.0000 0.22837  0.68386  0.50000  Biso   1.000  Mn
  Mn30     1.0000 0.22837  0.18386  0.00000  Biso   1.000  Mn
  Mn31     1.0000 0.72837  0.68386  0.00000  Biso   1.000  Mn
  Mn32     1.0000 0.72837  0.18386  0.50000  Biso   1.000  Mn
  Mn33     1.0000 0.50000  0.77163  0.68386  Biso   1.000  Mn
  Mn34     1.0000 0.50000  0.27163  0.18386  Biso   1.000  Mn
  Mn35     1.0000 0.00000  0.77163  0.18386  Biso   1.000  Mn
  Mn36     1.0000 0.00000  0.27163  0.68386  Biso   1.000  Mn
  Mn37     1.0000 0.50000  0.77163  0.31614  Biso   1.000  Mn
  Mn38     1.0000 0.50000  0.27163  0.81614  Biso   1.000  Mn
  Mn39     1.0000 0.00000  0.77163  0.81614  Biso   1.000  Mn
  Mn40     1.0000 0.00000  0.27163  0.31614  Biso   1.000  Mn
  Mn41     1.0000 0.50000  0.22837  0.31614  Biso   1.000  Mn
  Mn42     1.0000 0.50000  0.72837  0.81614  Biso   1.000  Mn
  Mn43     1.0000 0.00000  0.22837  0.81614  Biso   1.000  Mn
  Mn44     1.0000 0.00000  0.72837  0.31614  Biso   1.000  Mn
  Mn45     1.0000 0.50000  0.22837  0.68386  Biso   1.000  Mn
  Mn46     1.0000 0.50000  0.72837  0.18386  Biso   1.000  Mn
  Mn47     1.0000 0.00000  0.22837  0.18386  Biso   1.000  Mn
  Mn48     1.0000 0.00000  0.72837  0.68386  Biso   1.000  Mn
  Mn49     1.0000 0.00000  0.18386  0.72837  Biso   1.000  Mn
  Mn50     1.0000 0.00000  0.68386  0.22837  Biso   1.000  Mn
  Mn51     1.0000 0.50000  0.18386  0.22837  Biso   1.000  Mn
  Mn52     1.0000 0.50000  0.68386  0.72837  Biso   1.000  Mn
  Mn53     1.0000 0.00000  0.81614  0.72837  Biso   1.000  Mn
  Mn54     1.0000 0.00000  0.31614  0.22837  Biso   1.000  Mn
  Mn55     1.0000 0.50000  0.81614  0.22837  Biso   1.000  Mn
  Mn56     1.0000 0.50000  0.31614  0.72837  Biso   1.000  Mn
  Mn57     1.0000 0.00000  0.81614  0.27163  Biso   1.000  Mn
  Mn58     1.0000 0.00000  0.31614  0.77163  Biso   1.000  Mn
  Mn59     1.0000 0.50000  0.81614  0.77163  Biso   1.000  Mn
  Mn60     1.0000 0.50000  0.31614  0.27163  Biso   1.000  Mn
  Mn61     1.0000 0.00000  0.18386  0.27163  Biso   1.000  Mn
  Mn62     1.0000 0.00000  0.68386  0.77163  Biso   1.000  Mn
  Mn63     1.0000 0.50000  0.18386  0.77163  Biso   1.000  Mn
  Mn64     1.0000 0.50000  0.68386  0.27163  Biso   1.000  Mn
  Mn65     1.0000 0.18386  0.27163  0.00000  Biso   1.000  Mn
  Mn66     1.0000 0.18386  0.77163  0.50000  Biso   1.000  Mn
  Mn67     1.0000 0.68386  0.27163  0.50000  Biso   1.000  Mn
  Mn68     1.0000 0.68386  0.77163  0.00000  Biso   1.000  Mn
  Mn69     1.0000 0.81614  0.27163  0.00000  Biso   1.000  Mn
  Mn70     1.0000 0.81614  0.77163  0.50000  Biso   1.000  Mn
  Mn71     1.0000 0.31614  0.27163  0.50000  Biso   1.000  Mn
  Mn72     1.0000 0.31614  0.77163  0.00000  Biso   1.000  Mn
  Mn73     1.0000 0.81614  0.72837  0.00000  Biso   1.000  Mn
  Mn74     1.0000 0.81614  0.22837  0.50000  Biso   1.000  Mn
  Mn75     1.0000 0.31614  0.72837  0.50000  Biso   1.000  Mn
  Mn76     1.0000 0.31614  0.22837  0.00000  Biso   1.000  Mn
  Mn77     1.0000 0.18386  0.72837  0.00000  Biso   1.000  Mn
  Mn78     1.0000 0.18386  0.22837  0.50000  Biso   1.000  Mn
  Mn79     1.0000 0.68386  0.72837  0.50000  Biso   1.000  Mn
  Mn80     1.0000 0.68386  0.22837  0.00000  Biso   1.000  Mn
  Mn81     1.0000 0.27163  0.00000  0.81614  Biso   1.000  Mn
  Mn82     1.0000 0.27163  0.50000  0.31614  Biso   1.000  Mn
  Mn83     1.0000 0.77163  0.00000  0.31614  Biso   1.000  Mn
  Mn84     1.0000 0.77163  0.50000  0.81614  Biso   1.000  Mn
  Mn85     1.0000 0.27163  0.00000  0.18386  Biso   1.000  Mn
  Mn86     1.0000 0.27163  0.50000  0.68386  Biso   1.000  Mn
  Mn87     1.0000 0.77163  0.00000  0.68386  Biso   1.000  Mn
  Mn88     1.0000 0.77163  0.50000  0.18386  Biso   1.000  Mn
  Mn89     1.0000 0.72837  0.00000  0.18386  Biso   1.000  Mn
  Mn90     1.0000 0.72837  0.50000  0.68386  Biso   1.000  Mn
  Mn91     1.0000 0.22837  0.00000  0.68386  Biso   1.000  Mn
  Mn92     1.0000 0.22837  0.50000  0.18386  Biso   1.000  Mn
  Mn93     1.0000 0.72837  0.00000  0.81614  Biso   1.000  Mn
  Mn94     1.0000 0.72837  0.50000  0.31614  Biso   1.000  Mn
  Mn95     1.0000 0.22837  0.00000  0.31614  Biso   1.000  Mn
  Mn96     1.0000 0.22837  0.50000  0.81614  Biso   1.000  Mn
