data_RAVXOD_clean
_audit_creation_date              2014-07-02
_audit_creation_method            'Materials Studio'
_symmetry_space_group_name_H-M    'P1'
_symmetry_Int_Tables_number       1
_symmetry_cell_setting            triclinic
loop_
_symmetry_equiv_pos_as_xyz
  x,y,z
_cell_length_a                    7.0382
_cell_length_b                    83.7732
_cell_length_c                    83.7732
_cell_angle_alpha                 60.0778
_cell_angle_beta                  88.3952
_cell_angle_gamma                 91.6048
loop_
_atom_site_label
_atom_site_type_symbol
_atom_site_fract_x
_atom_site_fract_y
_atom_site_fract_z
_atom_site_U_iso_or_equiv
_atom_site_adp_type
_atom_site_occupancy
Mg1    Mg    0.36512   0.32767   0.32385   0.01267  Uiso   1.00
Mg2    Mg    0.65592   0.67167   0.67623   0.01267  Uiso   1.00
Mg3    Mg    0.68897   0.32385   0.34848   0.01267  Uiso   1.00
Mg4    Mg    0.33215   0.67623   0.65210   0.01267  Uiso   1.00
Mg5    Mg    0.03745   0.34848   0.32767   0.01267  Uiso   1.00
Mg6    Mg    0.98425   0.65210   0.67167   0.01267  Uiso   1.00
H1     H     0.40563   0.50966   0.08725   0.01267  Uiso   1.00
H2     H     0.65325   0.51518   0.07954   0.01267  Uiso   1.00
H3     H     0.51084   0.50116   0.07302   0.01267  Uiso   1.00
H4     H     0.61447   0.49030   0.11283   0.01267  Uiso   1.00
H5     H     0.72966   0.48237   0.09860   0.01267  Uiso   1.00
H6     H     0.42548   0.46756   0.09705   0.01267  Uiso   1.00
H7     H     0.30148   0.47621   0.11032   0.01267  Uiso   1.00
H8     H     0.49111   0.45736   0.13749   0.01267  Uiso   1.00
H9     H     0.63744   0.45081   0.12386   0.01267  Uiso   1.00
H10    H     0.35774   0.43403   0.11998   0.01267  Uiso   1.00
H11    H     0.42641   0.42476   0.14317   0.01267  Uiso   1.00
H12    H     0.28185   0.39007   0.14184   0.01267  Uiso   1.00
H13    H     0.32463   0.36573   0.15221   0.01267  Uiso   1.00
H14    H     0.41440   0.38155   0.12888   0.01267  Uiso   1.00
H15    H     0.99369   0.37117   0.14250   0.01267  Uiso   1.00
H16    H     0.12586   0.36349   0.12897   0.01267  Uiso   1.00
H17    H     0.16996   0.39569   0.10273   0.01267  Uiso   1.00
H18    H     0.05970   0.40442   0.11632   0.01267  Uiso   1.00
H19    H     0.75451   0.38499   0.11903   0.01267  Uiso   1.00
H20    H     0.87347   0.37870   0.10389   0.01267  Uiso   1.00
H21    H     0.92663   0.41611   0.08151   0.01267  Uiso   1.00
H22    H     0.71954   0.40328   0.08170   0.01267  Uiso   1.00
H23    H     0.62237   0.55071   0.92421   0.01267  Uiso   1.00
H24    H     0.72677   0.56853   0.92802   0.01267  Uiso   1.00
H25    H     0.77453   0.56899   0.90658   0.01267  Uiso   1.00
H26    H     0.34439   0.50165   0.97289   0.01267  Uiso   1.00
H27    H     0.37025   0.50056   0.95203   0.01267  Uiso   1.00
H28    H     0.50309   0.51810   0.95430   0.01267  Uiso   1.00
H29    H     0.78060   0.53637   0.95778   0.01267  Uiso   1.00
H30    H     0.34108   0.53449   0.92152   0.01267  Uiso   1.00
H31    H     0.61599   0.46960   0.02193   0.01267  Uiso   1.00
H32    H     0.67364   0.46683   0.00236   0.01267  Uiso   1.00
H33    H     0.81230   0.45576   0.02258   0.01267  Uiso   1.00
H34    H     0.53913   0.41099   0.10258   0.01267  Uiso   1.00
H35    H     0.62413   0.43096   0.08181   0.01267  Uiso   1.00
H36    H     0.14237   0.45209   0.13720   0.01267  Uiso   1.00
H37    H     0.14295   0.42797   0.15358   0.01267  Uiso   1.00
H38    H     0.67074   0.44284   0.16623   0.01267  Uiso   1.00
H39    H     0.92323   0.44070   0.16901   0.01267  Uiso   1.00
H40    H     0.82256   0.44701   0.14712   0.01267  Uiso   1.00
H41    H     0.44622   0.35903   0.19168   0.01267  Uiso   1.00
H42    H     0.62385   0.35738   0.17680   0.01267  Uiso   1.00
H43    H     0.67778   0.35042   0.20017   0.01267  Uiso   1.00
H44    H     0.11461   0.40720   0.19596   0.01267  Uiso   1.00
H45    H     0.35245   0.41714   0.19021   0.01267  Uiso   1.00
H46    H     0.26797   0.40203   0.18179   0.01267  Uiso   1.00
H47    H     0.36067   0.32880   0.26834   0.01267  Uiso   1.00
H48    H     0.43091   0.32516   0.24964   0.01267  Uiso   1.00
H49    H     0.60587   0.33261   0.26003   0.01267  Uiso   1.00
H50    H     0.88613   0.54325   0.89563   0.01267  Uiso   1.00
H51    H     0.36456   0.59532   0.86574   0.01267  Uiso   1.00
H52    H     0.90459   0.61237   0.77089   0.01267  Uiso   1.00
H53    H     0.33805   0.64561   0.77248   0.01267  Uiso   1.00
H54    H     0.82143   0.49369   0.97756   0.01267  Uiso   1.00
H55    H     0.79872   0.38427   0.15665   0.01267  Uiso   1.00
H56    H     0.67906   0.41262   0.19556   0.01267  Uiso   1.00
H57    H     0.12693   0.63944   0.75356   0.01267  Uiso   1.00
H58    H     0.34093   0.64635   0.72771   0.01267  Uiso   1.00
H59    H     0.64892   0.64575   0.72063   0.01267  Uiso   1.00
H60    H     0.37320   0.35619   0.27695   0.01267  Uiso   1.00
H61    H     0.67925   0.35036   0.27307   0.01267  Uiso   1.00
H62    H     0.88648   0.35817   0.24638   0.01267  Uiso   1.00
H63    H     0.31682   0.58835   0.80198   0.01267  Uiso   1.00
H64    H     0.19794   0.61703   0.84059   0.01267  Uiso   1.00
H65    H     0.17461   0.50811   0.01991   0.01267  Uiso   1.00
H66    H     0.67078   0.35546   0.22480   0.01267  Uiso   1.00
H67    H     0.09858   0.38729   0.22795   0.01267  Uiso   1.00
H68    H     0.63186   0.40609   0.13155   0.01267  Uiso   1.00
H69    H     0.11031   0.45817   0.10194   0.01267  Uiso   1.00
H70    H     0.44192   0.67247   0.74513   0.01267  Uiso   1.00
H71    H     0.69497   0.67498   0.74038   0.01267  Uiso   1.00
H72    H     0.54166   0.66772   0.72805   0.01267  Uiso   1.00
H73    H     0.72277   0.59804   0.81659   0.01267  Uiso   1.00
H74    H     0.64091   0.58312   0.80785   0.01267  Uiso   1.00
H75    H     0.88022   0.59267   0.80285   0.01267  Uiso   1.00
H76    H     0.32276   0.65068   0.79705   0.01267  Uiso   1.00
H77    H     0.37476   0.64380   0.82044   0.01267  Uiso   1.00
H78    H     0.55324   0.64191   0.80577   0.01267  Uiso   1.00
H79    H     0.17352   0.55416   0.85047   0.01267  Uiso   1.00
H80    H     0.07227   0.56037   0.82863   0.01267  Uiso   1.00
H81    H     0.32481   0.55823   0.83138   0.01267  Uiso   1.00
H82    H     0.85362   0.57311   0.84398   0.01267  Uiso   1.00
H83    H     0.85402   0.54903   0.86052   0.01267  Uiso   1.00
H84    H     0.37260   0.57073   0.91546   0.01267  Uiso   1.00
H85    H     0.45752   0.59062   0.89461   0.01267  Uiso   1.00
H86    H     0.18367   0.54603   0.97488   0.01267  Uiso   1.00
H87    H     0.32229   0.53499   0.99510   0.01267  Uiso   1.00
H88    H     0.38001   0.53220   0.97554   0.01267  Uiso   1.00
H89    H     0.65553   0.46712   0.07600   0.01267  Uiso   1.00
H90    H     0.21586   0.46543   0.03960   0.01267  Uiso   1.00
H91    H     0.49336   0.48363   0.04322   0.01267  Uiso   1.00
H92    H     0.62610   0.50111   0.04558   0.01267  Uiso   1.00
H93    H     0.65194   0.50012   0.02467   0.01267  Uiso   1.00
H94    H     0.22222   0.43263   0.09077   0.01267  Uiso   1.00
H95    H     0.26990   0.43321   0.06927   0.01267  Uiso   1.00
H96    H     0.37429   0.45095   0.07318   0.01267  Uiso   1.00
H97    H     0.27728   0.59851   0.91537   0.01267  Uiso   1.00
H98    H     0.07012   0.58563   0.91566   0.01267  Uiso   1.00
H99    H     0.12333   0.62302   0.89308   0.01267  Uiso   1.00
H100   H     0.24218   0.61659   0.87804   0.01267  Uiso   1.00
H101   H     0.93692   0.59712   0.88089   0.01267  Uiso   1.00
H102   H     0.82675   0.60598   0.89437   0.01267  Uiso   1.00
H103   H     0.87081   0.63810   0.86799   0.01267  Uiso   1.00
H104   H     0.00299   0.63031   0.85456   0.01267  Uiso   1.00
H105   H     0.58225   0.61996   0.86821   0.01267  Uiso   1.00
H106   H     0.67209   0.63568   0.84484   0.01267  Uiso   1.00
H107   H     0.71479   0.61131   0.85536   0.01267  Uiso   1.00
H108   H     0.57025   0.57649   0.85429   0.01267  Uiso   1.00
H109   H     0.63863   0.56733   0.87747   0.01267  Uiso   1.00
H110   H     0.35877   0.55051   0.87370   0.01267  Uiso   1.00
H111   H     0.50503   0.54382   0.86017   0.01267  Uiso   1.00
H112   H     0.69438   0.52506   0.88740   0.01267  Uiso   1.00
H113   H     0.57062   0.53386   0.90055   0.01267  Uiso   1.00
H114   H     0.26623   0.51902   0.89912   0.01267  Uiso   1.00
H115   H     0.38099   0.51096   0.88497   0.01267  Uiso   1.00
H116   H     0.48516   0.50028   0.92472   0.01267  Uiso   1.00
H117   H     0.34218   0.48623   0.91832   0.01267  Uiso   1.00
H118   H     0.58977   0.49168   0.91057   0.01267  Uiso   1.00
H119   H     0.49288   0.08725   0.40309   0.01267  Uiso   1.00
H120   H     0.73279   0.07954   0.40528   0.01267  Uiso   1.00
H121   H     0.58386   0.07302   0.42582   0.01267  Uiso   1.00
H122   H     0.72730   0.11283   0.39687   0.01267  Uiso   1.00
H123   H     0.82826   0.09860   0.41903   0.01267  Uiso   1.00
H124   H     0.52253   0.09705   0.43539   0.01267  Uiso   1.00
H125   H     0.41180   0.11032   0.41347   0.01267  Uiso   1.00
H126   H     0.62860   0.13749   0.40515   0.01267  Uiso   1.00
H127   H     0.76130   0.12386   0.42533   0.01267  Uiso   1.00
H128   H     0.47772   0.11998   0.44599   0.01267  Uiso   1.00
H129   H     0.56958   0.14317   0.43207   0.01267  Uiso   1.00
H130   H     0.42369   0.14184   0.46809   0.01267  Uiso   1.00
H131   H     0.47684   0.15221   0.48206   0.01267  Uiso   1.00
H132   H     0.54328   0.12888   0.48957   0.01267  Uiso   1.00
H133   H     0.13619   0.14250   0.48633   0.01267  Uiso   1.00
H134   H     0.25483   0.12897   0.50754   0.01267  Uiso   1.00
H135   H     0.27269   0.10273   0.50158   0.01267  Uiso   1.00
H136   H     0.17602   0.11632   0.47926   0.01267  Uiso   1.00
H137   H     0.87354   0.11903   0.49598   0.01267  Uiso   1.00
H138   H     0.97736   0.10389   0.51741   0.01267  Uiso   1.00
H139   H     0.00814   0.08151   0.50238   0.01267  Uiso   1.00
H140   H     0.80124   0.08170   0.51502   0.01267  Uiso   1.00
H141   H     0.54658   0.92421   0.52508   0.01267  Uiso   1.00
H142   H     0.65479   0.92802   0.50345   0.01267  Uiso   1.00
H143   H     0.68111   0.90658   0.52443   0.01267  Uiso   1.00
H144   H     0.31728   0.97289   0.52546   0.01267  Uiso   1.00
H145   H     0.32228   0.95203   0.54741   0.01267  Uiso   1.00
H146   H     0.45739   0.95430   0.52760   0.01267  Uiso   1.00
H147   H     0.73838   0.95778   0.50585   0.01267  Uiso   1.00
H148   H     0.26260   0.92152   0.54399   0.01267  Uiso   1.00
H149   H     0.63792   0.02193   0.50847   0.01267  Uiso   1.00
H150   H     0.67600   0.00236   0.53081   0.01267  Uiso   1.00
H151   H     0.83488   0.02258   0.52166   0.01267  Uiso   1.00
H152   H     0.64171   0.10258   0.48643   0.01267  Uiso   1.00
H153   H     0.70594   0.08181   0.48723   0.01267  Uiso   1.00
H154   H     0.27957   0.13720   0.41071   0.01267  Uiso   1.00
H155   H     0.29653   0.15358   0.41845   0.01267  Uiso   1.00
H156   H     0.83697   0.16623   0.39093   0.01267  Uiso   1.00
H157   H     0.09224   0.16901   0.39029   0.01267  Uiso   1.00
H158   H     0.96968   0.14712   0.40587   0.01267  Uiso   1.00
H159   H     0.63790   0.19168   0.44929   0.01267  Uiso   1.00
H160   H     0.80065   0.17680   0.46582   0.01267  Uiso   1.00
H161   H     0.87795   0.20017   0.44941   0.01267  Uiso   1.00
H162   H     0.31057   0.19596   0.39684   0.01267  Uiso   1.00
H163   H     0.54266   0.19021   0.39265   0.01267  Uiso   1.00
H164   H     0.44976   0.18179   0.41618   0.01267  Uiso   1.00
H165   H     0.62901   0.26834   0.40286   0.01267  Uiso   1.00
H166   H     0.68055   0.24964   0.42520   0.01267  Uiso   1.00
H167   H     0.86590   0.26003   0.40736   0.01267  Uiso   1.00
H168   H     0.78176   0.89563   0.56112   0.01267  Uiso   1.00
H169   H     0.23030   0.86574   0.53894   0.01267  Uiso   1.00
H170   H     0.67548   0.77089   0.61674   0.01267  Uiso   1.00
H171   H     0.11053   0.77248   0.58191   0.01267  Uiso   1.00
H172   H     0.79899   0.97756   0.52875   0.01267  Uiso   1.00
H173   H     0.95537   0.15665   0.45908   0.01267  Uiso   1.00
H174   H     0.87462   0.19556   0.39182   0.01267  Uiso   1.00
H175   H     0.88049   0.75356   0.60700   0.01267  Uiso   1.00
H176   H     0.06864   0.72771   0.62594   0.01267  Uiso   1.00
H177   H     0.36955   0.72063   0.63362   0.01267  Uiso   1.00
H178   H     0.65015   0.27695   0.36686   0.01267  Uiso   1.00
H179   H     0.95232   0.27307   0.37657   0.01267  Uiso   1.00
H180   H     0.13286   0.24638   0.39545   0.01267  Uiso   1.00
H181   H     0.11880   0.80198   0.60967   0.01267  Uiso   1.00
H182   H     0.03853   0.84059   0.54238   0.01267  Uiso   1.00
H183   H     0.19452   0.01991   0.47198   0.01267  Uiso   1.00
H184   H     0.89558   0.22480   0.41974   0.01267  Uiso   1.00
H185   H     0.32653   0.22795   0.38476   0.01267  Uiso   1.00
H186   H     0.76341   0.13155   0.46236   0.01267  Uiso   1.00
H187   H     0.21225   0.10194   0.43989   0.01267  Uiso   1.00
H188   H     0.18705   0.74513   0.58240   0.01267  Uiso   1.00
H189   H     0.43535   0.74038   0.58464   0.01267  Uiso   1.00
H190   H     0.26971   0.72805   0.60423   0.01267  Uiso   1.00
H191   H     0.53936   0.81659   0.58537   0.01267  Uiso   1.00
H192   H     0.44876   0.80785   0.60903   0.01267  Uiso   1.00
H193   H     0.68307   0.80285   0.60448   0.01267  Uiso   1.00
H194   H     0.11981   0.79705   0.55227   0.01267  Uiso   1.00
H195   H     0.19520   0.82044   0.53576   0.01267  Uiso   1.00
H196   H     0.35901   0.80577   0.55232   0.01267  Uiso   1.00
H197   H     0.02399   0.85047   0.59537   0.01267  Uiso   1.00
H198   H     0.90090   0.82863   0.61100   0.01267  Uiso   1.00
H199   H     0.15619   0.83138   0.61039   0.01267  Uiso   1.00
H200   H     0.69760   0.84398   0.58291   0.01267  Uiso   1.00
H201   H     0.71454   0.86052   0.59045   0.01267  Uiso   1.00
H202   H     0.28806   0.91546   0.51381   0.01267  Uiso   1.00
H203   H     0.35213   0.89461   0.51477   0.01267  Uiso   1.00
H204   H     0.15855   0.97488   0.47909   0.01267  Uiso   1.00
H205   H     0.31739   0.99510   0.46991   0.01267  Uiso   1.00
H206   H     0.35555   0.97554   0.49226   0.01267  Uiso   1.00
H207   H     0.73153   0.07600   0.45688   0.01267  Uiso   1.00
H208   H     0.25546   0.03960   0.49497   0.01267  Uiso   1.00
H209   H     0.53658   0.04322   0.47315   0.01267  Uiso   1.00
H210   H     0.67168   0.04558   0.45331   0.01267  Uiso   1.00
H211   H     0.67661   0.02467   0.47521   0.01267  Uiso   1.00
H212   H     0.31299   0.09077   0.47660   0.01267  Uiso   1.00
H213   H     0.33917   0.06927   0.49752   0.01267  Uiso   1.00
H214   H     0.44747   0.07318   0.47587   0.01267  Uiso   1.00
H215   H     0.19265   0.91537   0.48612   0.01267  Uiso   1.00
H216   H     0.98578   0.91566   0.49871   0.01267  Uiso   1.00
H217   H     0.01641   0.89308   0.48390   0.01267  Uiso   1.00
H218   H     0.12022   0.87804   0.50537   0.01267  Uiso   1.00
H219   H     0.81781   0.88089   0.52199   0.01267  Uiso   1.00
H220   H     0.72112   0.89437   0.49965   0.01267  Uiso   1.00
H221   H     0.73880   0.86799   0.49391   0.01267  Uiso   1.00
H222   H     0.85755   0.85456   0.51513   0.01267  Uiso   1.00
H223   H     0.45046   0.86821   0.51183   0.01267  Uiso   1.00
H224   H     0.51693   0.84484   0.51948   0.01267  Uiso   1.00
H225   H     0.57015   0.85536   0.53333   0.01267  Uiso   1.00
H226   H     0.42454   0.85429   0.56922   0.01267  Uiso   1.00
H227   H     0.51610   0.87747   0.55520   0.01267  Uiso   1.00
H228   H     0.23247   0.87370   0.57579   0.01267  Uiso   1.00
H229   H     0.36520   0.86017   0.59601   0.01267  Uiso   1.00
H230   H     0.58178   0.88740   0.58754   0.01267  Uiso   1.00
H231   H     0.47117   0.90055   0.56559   0.01267  Uiso   1.00
H232   H     0.16535   0.89912   0.58186   0.01267  Uiso   1.00
H233   H     0.26596   0.88497   0.60407   0.01267  Uiso   1.00
H234   H     0.40988   0.92472   0.57500   0.01267  Uiso   1.00
H235   H     0.26050   0.91832   0.59545   0.01267  Uiso   1.00
H236   H     0.50034   0.91057   0.59775   0.01267  Uiso   1.00
H237   H     0.89597   0.40309   0.50966   0.01267  Uiso   1.00
H238   H     0.13807   0.40528   0.51518   0.01267  Uiso   1.00
H239   H     0.00968   0.42582   0.50116   0.01267  Uiso   1.00
H240   H     0.12417   0.39687   0.49030   0.01267  Uiso   1.00
H241   H     0.24729   0.41903   0.48237   0.01267  Uiso   1.00
H242   H     0.95792   0.43539   0.46756   0.01267  Uiso   1.00
H243   H     0.82527   0.41347   0.47621   0.01267  Uiso   1.00
H244   H     0.03375   0.40515   0.45736   0.01267  Uiso   1.00
H245   H     0.18663   0.42533   0.45081   0.01267  Uiso   1.00
H246   H     0.92371   0.44599   0.43403   0.01267  Uiso   1.00
H247   H     0.00165   0.43207   0.42476   0.01267  Uiso   1.00
H248   H     0.89178   0.46809   0.39007   0.01267  Uiso   1.00
H249   H     0.95890   0.48206   0.36573   0.01267  Uiso   1.00
H250   H     0.03285   0.48957   0.38155   0.01267  Uiso   1.00
H251   H     0.62252   0.48633   0.37117   0.01267  Uiso   1.00
H252   H     0.76237   0.50754   0.36349   0.01267  Uiso   1.00
H253   H     0.77427   0.50158   0.39569   0.01267  Uiso   1.00
H254   H     0.65528   0.47926   0.40442   0.01267  Uiso   1.00
H255   H     0.36952   0.49598   0.38499   0.01267  Uiso   1.00
H256   H     0.49477   0.51741   0.37870   0.01267  Uiso   1.00
H257   H     0.51052   0.50238   0.41611   0.01267  Uiso   1.00
H258   H     0.31626   0.51502   0.40328   0.01267  Uiso   1.00
H259   H     0.07166   0.52508   0.55071   0.01267  Uiso   1.00
H260   H     0.15824   0.50345   0.56853   0.01267  Uiso   1.00
H261   H     0.20554   0.52443   0.56899   0.01267  Uiso   1.00
H262   H     0.84274   0.52546   0.50165   0.01267  Uiso   1.00
H263   H     0.86969   0.54741   0.50056   0.01267  Uiso   1.00
H264   H     0.98499   0.52760   0.51810   0.01267  Uiso   1.00
H265   H     0.24423   0.50585   0.53637   0.01267  Uiso   1.00
H266   H     0.80659   0.54399   0.53449   0.01267  Uiso   1.00
H267   H     0.14639   0.50847   0.46960   0.01267  Uiso   1.00
H268   H     0.20681   0.53081   0.46683   0.01267  Uiso   1.00
H269   H     0.35654   0.52166   0.45576   0.01267  Uiso   1.00
H270   H     0.12814   0.48643   0.41099   0.01267  Uiso   1.00
H271   H     0.19317   0.48723   0.43096   0.01267  Uiso   1.00
H272   H     0.69028   0.41071   0.45209   0.01267  Uiso   1.00
H273   H     0.71498   0.41845   0.42797   0.01267  Uiso   1.00
H274   H     0.22790   0.39093   0.44284   0.01267  Uiso   1.00
H275   H     0.48253   0.39029   0.44070   0.01267  Uiso   1.00
H276   H     0.37555   0.40587   0.44701   0.01267  Uiso   1.00
H277   H     0.08719   0.44929   0.35903   0.01267  Uiso   1.00
H278   H     0.26647   0.46582   0.35738   0.01267  Uiso   1.00
H279   H     0.32736   0.44941   0.35042   0.01267  Uiso   1.00
H280   H     0.70741   0.39684   0.40720   0.01267  Uiso   1.00
H281   H     0.93531   0.39265   0.41714   0.01267  Uiso   1.00
H282   H     0.86594   0.41618   0.40203   0.01267  Uiso   1.00
H283   H     0.03187   0.40286   0.32880   0.01267  Uiso   1.00
H284   H     0.10575   0.42520   0.32516   0.01267  Uiso   1.00
H285   H     0.27326   0.40736   0.33261   0.01267  Uiso   1.00
H286   H     0.34288   0.56112   0.54325   0.01267  Uiso   1.00
H287   H     0.76924   0.53894   0.59532   0.01267  Uiso   1.00
H288   H     0.29222   0.61674   0.61237   0.01267  Uiso   1.00
H289   H     0.69244   0.58191   0.64561   0.01267  Uiso   1.00
H290   H     0.32774   0.52875   0.49369   0.01267  Uiso   1.00
H291   H     0.41445   0.45908   0.38427   0.01267  Uiso   1.00
H292   H     0.26644   0.39182   0.41262   0.01267  Uiso   1.00
H293   H     0.48749   0.60700   0.63944   0.01267  Uiso   1.00
H294   H     0.69458   0.62594   0.64635   0.01267  Uiso   1.00
H295   H     0.00317   0.63362   0.64575   0.01267  Uiso   1.00
H296   H     0.01701   0.36686   0.35619   0.01267  Uiso   1.00
H297   H     0.32889   0.37657   0.35036   0.01267  Uiso   1.00
H298   H     0.52831   0.39545   0.35817   0.01267  Uiso   1.00
H299   H     0.72847   0.60967   0.58835   0.01267  Uiso   1.00
H300   H     0.58091   0.54238   0.61703   0.01267  Uiso   1.00
H301   H     0.66650   0.47198   0.50811   0.01267  Uiso   1.00
H302   H     0.31532   0.41974   0.35546   0.01267  Uiso   1.00
H303   H     0.71129   0.38476   0.38729   0.01267  Uiso   1.00
H304   H     0.22577   0.46236   0.40609   0.01267  Uiso   1.00
H305   H     0.65214   0.43989   0.45817   0.01267  Uiso   1.00
H306   H     0.76945   0.58240   0.67247   0.01267  Uiso   1.00
H307   H     0.01999   0.58464   0.67498   0.01267  Uiso   1.00
H308   H     0.87394   0.60423   0.66772   0.01267  Uiso   1.00
H309   H     0.12473   0.58537   0.59804   0.01267  Uiso   1.00
H310   H     0.05779   0.60903   0.58312   0.01267  Uiso   1.00
H311   H     0.28755   0.60448   0.59267   0.01267  Uiso   1.00
H312   H     0.67208   0.55227   0.65068   0.01267  Uiso   1.00
H313   H     0.73096   0.53576   0.64380   0.01267  Uiso   1.00
H314   H     0.91133   0.55232   0.64191   0.01267  Uiso   1.00
H315   H     0.61936   0.59537   0.55416   0.01267  Uiso   1.00
H316   H     0.51190   0.61100   0.56037   0.01267  Uiso   1.00
H317   H     0.76658   0.61039   0.55823   0.01267  Uiso   1.00
H318   H     0.28051   0.58291   0.57311   0.01267  Uiso   1.00
H319   H     0.30499   0.59045   0.54903   0.01267  Uiso   1.00
H320   H     0.80187   0.51381   0.57073   0.01267  Uiso   1.00
H321   H     0.86690   0.51477   0.59062   0.01267  Uiso   1.00
H322   H     0.63764   0.47909   0.54603   0.01267  Uiso   1.00
H323   H     0.78730   0.46991   0.53499   0.01267  Uiso   1.00
H324   H     0.84781   0.49226   0.53220   0.01267  Uiso   1.00
H325   H     0.18841   0.45688   0.46712   0.01267  Uiso   1.00
H326   H     0.75043   0.49497   0.46543   0.01267  Uiso   1.00
H327   H     0.00973   0.47315   0.48363   0.01267  Uiso   1.00
H328   H     0.12499   0.45331   0.50111   0.01267  Uiso   1.00
H329   H     0.15182   0.47521   0.50012   0.01267  Uiso   1.00
H330   H     0.78959   0.47660   0.43263   0.01267  Uiso   1.00
H331   H     0.83669   0.49752   0.43321   0.01267  Uiso   1.00
H332   H     0.92334   0.47587   0.45095   0.01267  Uiso   1.00
H333   H     0.67877   0.48612   0.59851   0.01267  Uiso   1.00
H334   H     0.48449   0.49871   0.58563   0.01267  Uiso   1.00
H335   H     0.50031   0.48390   0.62302   0.01267  Uiso   1.00
H336   H     0.62559   0.50537   0.61659   0.01267  Uiso   1.00
H337   H     0.33980   0.52199   0.59712   0.01267  Uiso   1.00
H338   H     0.22077   0.49965   0.60598   0.01267  Uiso   1.00
H339   H     0.23271   0.49391   0.63810   0.01267  Uiso   1.00
H340   H     0.37268   0.51513   0.63031   0.01267  Uiso   1.00
H341   H     0.96229   0.51183   0.61996   0.01267  Uiso   1.00
H342   H     0.03641   0.51948   0.63568   0.01267  Uiso   1.00
H343   H     0.10348   0.53333   0.61131   0.01267  Uiso   1.00
H344   H     0.99376   0.56922   0.57649   0.01267  Uiso   1.00
H345   H     0.07130   0.55520   0.56733   0.01267  Uiso   1.00
H346   H     0.80826   0.57579   0.55051   0.01267  Uiso   1.00
H347   H     0.96121   0.59601   0.54382   0.01267  Uiso   1.00
H348   H     0.16932   0.58754   0.52506   0.01267  Uiso   1.00
H349   H     0.03676   0.56559   0.53386   0.01267  Uiso   1.00
H350   H     0.74721   0.58186   0.51902   0.01267  Uiso   1.00
H351   H     0.87003   0.60407   0.51096   0.01267  Uiso   1.00
H352   H     0.98488   0.57500   0.50028   0.01267  Uiso   1.00
H353   H     0.85595   0.59545   0.48623   0.01267  Uiso   1.00
H354   H     0.09809   0.59775   0.49168   0.01267  Uiso   1.00
C1     C     0.53674   0.50429   0.08428   0.01267  Uiso   1.00
C2     C     0.59291   0.48691   0.10167   0.01267  Uiso   1.00
C3     C     0.43918   0.47126   0.10807   0.01267  Uiso   1.00
C4     C     0.49152   0.45413   0.12607   0.01267  Uiso   1.00
C5     C     0.36061   0.43687   0.13167   0.01267  Uiso   1.00
C6     C     0.29424   0.37841   0.13906   0.01267  Uiso   1.00
C7     C     0.10967   0.37515   0.13169   0.01267  Uiso   1.00
C8     C     0.05926   0.39256   0.11382   0.01267  Uiso   1.00
C9     C     0.86371   0.38984   0.10747   0.01267  Uiso   1.00
C10    C     0.80111   0.40756   0.09030   0.01267  Uiso   1.00
C11    C     0.75149   0.55973   0.92171   0.01267  Uiso   1.00
C12    C     0.36451   0.51016   0.95761   0.01267  Uiso   1.00
C13    C     0.90369   0.53605   0.94984   0.01267  Uiso   1.00
C14    C     0.91515   0.54760   0.93055   0.01267  Uiso   1.00
C15    C     0.07704   0.54734   0.92027   0.01267  Uiso   1.00
C16    C     0.21990   0.53504   0.92948   0.01267  Uiso   1.00
C17    C     0.20773   0.52334   0.94877   0.01267  Uiso   1.00
C18    C     0.04856   0.52409   0.95906   0.01267  Uiso   1.00
C19    C     0.73520   0.46842   0.01364   0.01267  Uiso   1.00
C20    C     0.67064   0.41936   0.09496   0.01267  Uiso   1.00
C21    C     0.15899   0.43824   0.13859   0.01267  Uiso   1.00
C22    C     0.80126   0.43821   0.16223   0.01267  Uiso   1.00
C23    C     0.60138   0.36064   0.18810   0.01267  Uiso   1.00
C24    C     0.26386   0.40452   0.19370   0.01267  Uiso   1.00
C25    C     0.45671   0.33412   0.25581   0.01267  Uiso   1.00
C26    C     0.99160   0.56633   0.86945   0.01267  Uiso   1.00
C27    C     0.98582   0.55501   0.88885   0.01267  Uiso   1.00
C28    C     0.22760   0.57475   0.89134   0.01267  Uiso   1.00
C29    C     0.25460   0.58432   0.87202   0.01267  Uiso   1.00
C30    C     0.78208   0.61980   0.77127   0.01267  Uiso   1.00
C31    C     0.66679   0.61243   0.78754   0.01267  Uiso   1.00
C32    C     0.58859   0.64666   0.75643   0.01267  Uiso   1.00
C33    C     0.46293   0.63846   0.77220   0.01267  Uiso   1.00
C34    C     0.09866   0.55925   0.89987   0.01267  Uiso   1.00
C35    C     0.13941   0.58038   0.86067   0.01267  Uiso   1.00
C36    C     0.49873   0.62131   0.78772   0.01267  Uiso   1.00
C37    C     0.74356   0.63663   0.75552   0.01267  Uiso   1.00
C38    C     0.89826   0.49678   0.98686   0.01267  Uiso   1.00
C39    C     0.86971   0.48526   0.00609   0.01267  Uiso   1.00
C40    C     0.96995   0.48953   0.01804   0.01267  Uiso   1.00
C41    C     0.67389   0.38006   0.18232   0.01267  Uiso   1.00
C42    C     0.77044   0.39067   0.16497   0.01267  Uiso   1.00
C43    C     0.81202   0.40984   0.15726   0.01267  Uiso   1.00
C44    C     0.77822   0.41781   0.16868   0.01267  Uiso   1.00
C45    C     0.70319   0.40653   0.18686   0.01267  Uiso   1.00
C46    C     0.63500   0.38831   0.19321   0.01267  Uiso   1.00
C47    C     0.19112   0.64703   0.72542   0.01267  Uiso   1.00
C48    C     0.06815   0.64303   0.74041   0.01267  Uiso   1.00
C49    C     0.87144   0.64326   0.73869   0.01267  Uiso   1.00
C50    C     0.79966   0.64726   0.72160   0.01267  Uiso   1.00
C51    C     0.10499   0.34915   0.29238   0.01267  Uiso   1.00
C52    C     0.90304   0.34740   0.29153   0.01267  Uiso   1.00
C53    C     0.76249   0.34052   0.30769   0.01267  Uiso   1.00
C54    C     0.25620   0.65898   0.69255   0.01267  Uiso   1.00
C55    C     0.12315   0.65188   0.70792   0.01267  Uiso   1.00
C56    C     0.92154   0.65119   0.70633   0.01267  Uiso   1.00
C57    C     0.22221   0.35387   0.27658   0.01267  Uiso   1.00
C58    C     0.14583   0.35682   0.26000   0.01267  Uiso   1.00
C59    C     0.94892   0.35549   0.25915   0.01267  Uiso   1.00
C60    C     0.83031   0.35101   0.27456   0.01267  Uiso   1.00
C61    C     0.36305   0.61269   0.80424   0.01267  Uiso   1.00
C62    C     0.29288   0.59452   0.81061   0.01267  Uiso   1.00
C63    C     0.21752   0.58331   0.82880   0.01267  Uiso   1.00
C64    C     0.18409   0.59139   0.84012   0.01267  Uiso   1.00
C65    C     0.22623   0.61057   0.83233   0.01267  Uiso   1.00
C66    C     0.32404   0.62105   0.81503   0.01267  Uiso   1.00
C67    C     0.02610   0.51227   0.97943   0.01267  Uiso   1.00
C68    C     0.12628   0.51656   0.99137   0.01267  Uiso   1.00
C69    C     0.09773   0.50501   0.01060   0.01267  Uiso   1.00
C70    C     0.26810   0.36358   0.24285   0.01267  Uiso   1.00
C71    C     0.50321   0.37939   0.21000   0.01267  Uiso   1.00
C72    C     0.85684   0.42093   0.13673   0.01267  Uiso   1.00
C73    C     0.89788   0.44229   0.09755   0.01267  Uiso   1.00
C74    C     0.54493   0.36236   0.22537   0.01267  Uiso   1.00
C75    C     0.42423   0.35390   0.24148   0.01267  Uiso   1.00
C76    C     0.33359   0.38785   0.21063   0.01267  Uiso   1.00
C77    C     0.22277   0.38022   0.22721   0.01267  Uiso   1.00
C78    C     0.74179   0.41709   0.12533   0.01267  Uiso   1.00
C79    C     0.76895   0.42678   0.10598   0.01267  Uiso   1.00
C80    C     0.01063   0.44641   0.10866   0.01267  Uiso   1.00
C81    C     0.00477   0.43497   0.12806   0.01267  Uiso   1.00
C82    C     0.56486   0.66650   0.74165   0.01267  Uiso   1.00
C83    C     0.73062   0.59559   0.80466   0.01267  Uiso   1.00
C84    C     0.39785   0.64044   0.80922   0.01267  Uiso   1.00
C85    C     0.19444   0.56291   0.83534   0.01267  Uiso   1.00
C86    C     0.83742   0.56293   0.85900   0.01267  Uiso   1.00
C87    C     0.32603   0.58227   0.90228   0.01267  Uiso   1.00
C88    C     0.26077   0.53338   0.98383   0.01267  Uiso   1.00
C89    C     0.94784   0.47767   0.03840   0.01267  Uiso   1.00
C90    C     0.78875   0.47837   0.04873   0.01267  Uiso   1.00
C91    C     0.77671   0.46660   0.06801   0.01267  Uiso   1.00
C92    C     0.91960   0.45428   0.07717   0.01267  Uiso   1.00
C93    C     0.08148   0.45410   0.06685   0.01267  Uiso   1.00
C94    C     0.09284   0.46572   0.04757   0.01267  Uiso   1.00
C95    C     0.63188   0.49155   0.03995   0.01267  Uiso   1.00
C96    C     0.24520   0.44196   0.07565   0.01267  Uiso   1.00
C97    C     0.19563   0.59415   0.90684   0.01267  Uiso   1.00
C98    C     0.13301   0.61180   0.88960   0.01267  Uiso   1.00
C99    C     0.93742   0.60903   0.88329   0.01267  Uiso   1.00
C100   C     0.88700   0.62638   0.86536   0.01267  Uiso   1.00
C101   C     0.70243   0.62305   0.85804   0.01267  Uiso   1.00
C102   C     0.63579   0.56440   0.86584   0.01267  Uiso   1.00
C103   C     0.50465   0.54714   0.87153   0.01267  Uiso   1.00
C104   C     0.55678   0.53007   0.88959   0.01267  Uiso   1.00
C105   C     0.40282   0.51444   0.89607   0.01267  Uiso   1.00
C106   C     0.45889   0.49709   0.91352   0.01267  Uiso   1.00
C107   C     0.62102   0.08428   0.41143   0.01267  Uiso   1.00
C108   C     0.69458   0.10167   0.41142   0.01267  Uiso   1.00
C109   C     0.54725   0.10807   0.42067   0.01267  Uiso   1.00
C110   C     0.61759   0.12607   0.41980   0.01267  Uiso   1.00
C111   C     0.49228   0.13167   0.43146   0.01267  Uiso   1.00
C112   C     0.43330   0.13906   0.48253   0.01267  Uiso   1.00
C113   C     0.24136   0.13169   0.49316   0.01267  Uiso   1.00
C114   C     0.17308   0.11382   0.49362   0.01267  Uiso   1.00
C115   C     0.97118   0.10747   0.50269   0.01267  Uiso   1.00
C116   C     0.89141   0.09030   0.50214   0.01267  Uiso   1.00
C117   C     0.67320   0.92171   0.51856   0.01267  Uiso   1.00
C118   C     0.32212   0.95761   0.53223   0.01267  Uiso   1.00
C119   C     0.85353   0.94984   0.51411   0.01267  Uiso   1.00
C120   C     0.84570   0.93055   0.52185   0.01267  Uiso   1.00
C121   C     0.99731   0.92027   0.53239   0.01267  Uiso   1.00
C122   C     0.14938   0.92948   0.53548   0.01267  Uiso   1.00
C123   C     0.15650   0.94877   0.52789   0.01267  Uiso   1.00
C124   C     0.00762   0.95906   0.51685   0.01267  Uiso   1.00
C125   C     0.74884   0.01364   0.51794   0.01267  Uiso   1.00
C126   C     0.76560   0.09496   0.48568   0.01267  Uiso   1.00
C127   C     0.29758   0.13859   0.42317   0.01267  Uiso   1.00
C128   C     0.96349   0.16223   0.39956   0.01267  Uiso   1.00
C129   C     0.78948   0.18810   0.45126   0.01267  Uiso   1.00
C130   C     0.45756   0.19370   0.40178   0.01267  Uiso   1.00
C131   C     0.71252   0.25581   0.41007   0.01267  Uiso   1.00
C132   C     0.86105   0.86945   0.56422   0.01267  Uiso   1.00
C133   C     0.87467   0.88885   0.55614   0.01267  Uiso   1.00
C134   C     0.11894   0.89134   0.53391   0.01267  Uiso   1.00
C135   C     0.12662   0.87202   0.54366   0.01267  Uiso   1.00
C136   C     0.55335   0.77127   0.60893   0.01267  Uiso   1.00
C137   C     0.45433   0.78754   0.60003   0.01267  Uiso   1.00
C138   C     0.34502   0.75643   0.59691   0.01267  Uiso   1.00
C139   C     0.23513   0.77220   0.58934   0.01267  Uiso   1.00
C140   C     0.99853   0.89987   0.54088   0.01267  Uiso   1.00
C141   C     0.00008   0.86067   0.55895   0.01267  Uiso   1.00
C142   C     0.28645   0.78772   0.59097   0.01267  Uiso   1.00
C143   C     0.49908   0.75552   0.60785   0.01267  Uiso   1.00
C144   C     0.88512   0.98686   0.51636   0.01267  Uiso   1.00
C145   C     0.87580   0.00609   0.50865   0.01267  Uiso   1.00
C146   C     0.98799   0.01804   0.49243   0.01267  Uiso   1.00
C147   C     0.85621   0.18232   0.43762   0.01267  Uiso   1.00
C148   C     0.93541   0.16497   0.44436   0.01267  Uiso   1.00
C149   C     0.96928   0.15726   0.43290   0.01267  Uiso   1.00
C150   C     0.94690   0.16868   0.41351   0.01267  Uiso   1.00
C151   C     0.89005   0.18686   0.40661   0.01267  Uiso   1.00
C152   C     0.82821   0.19321   0.41848   0.01267  Uiso   1.00
C153   C     0.91654   0.72542   0.62755   0.01267  Uiso   1.00
C154   C     0.80856   0.74041   0.61656   0.01267  Uiso   1.00
C155   C     0.61013   0.73869   0.61805   0.01267  Uiso   1.00
C156   C     0.52126   0.72160   0.63114   0.01267  Uiso   1.00
C157   C     0.39737   0.29238   0.35847   0.01267  Uiso   1.00
C158   C     0.19457   0.29153   0.36107   0.01267  Uiso   1.00
C159   C     0.07018   0.30769   0.35179   0.01267  Uiso   1.00
C160   C     0.94875   0.69255   0.64847   0.01267  Uiso   1.00
C161   C     0.83107   0.70792   0.64020   0.01267  Uiso   1.00
C162   C     0.62787   0.70633   0.64248   0.01267  Uiso   1.00
C163   C     0.49879   0.27658   0.36955   0.01267  Uiso   1.00
C164   C     0.40583   0.26000   0.38318   0.01267  Uiso   1.00
C165   C     0.20807   0.25915   0.38536   0.01267  Uiso   1.00
C166   C     0.10487   0.27456   0.37443   0.01267  Uiso   1.00
C167   C     0.16729   0.80424   0.58307   0.01267  Uiso   1.00
C168   C     0.10349   0.81061   0.59487   0.01267  Uiso   1.00
C169   C     0.04632   0.82880   0.58789   0.01267  Uiso   1.00
C170   C     0.02421   0.84012   0.56849   0.01267  Uiso   1.00
C171   C     0.05856   0.83233   0.55710   0.01267  Uiso   1.00
C172   C     0.13907   0.81503   0.56392   0.01267  Uiso   1.00
C173   C     0.00553   0.97943   0.50830   0.01267  Uiso   1.00
C174   C     0.11765   0.99137   0.49207   0.01267  Uiso   1.00
C175   C     0.10833   0.01060   0.48439   0.01267  Uiso   1.00
C176   C     0.51095   0.24285   0.39357   0.01267  Uiso   1.00
C177   C     0.71321   0.21000   0.41061   0.01267  Uiso   1.00
C178   C     0.99357   0.13673   0.44234   0.01267  Uiso   1.00
C179   C     0.99543   0.09755   0.46016   0.01267  Uiso   1.00
C180   C     0.77030   0.22537   0.41227   0.01267  Uiso   1.00
C181   C     0.66571   0.24148   0.40462   0.01267  Uiso   1.00
C182   C     0.54422   0.21063   0.40152   0.01267  Uiso   1.00
C183   C     0.44998   0.22721   0.39257   0.01267  Uiso   1.00
C184   C     0.86712   0.12533   0.45758   0.01267  Uiso   1.00
C185   C     0.87493   0.10598   0.46724   0.01267  Uiso   1.00
C186   C     0.11929   0.10866   0.44493   0.01267  Uiso   1.00
C187   C     0.13283   0.12806   0.43697   0.01267  Uiso   1.00
C188   C     0.30651   0.74165   0.59185   0.01267  Uiso   1.00
C189   C     0.53528   0.80466   0.59975   0.01267  Uiso   1.00
C190   C     0.20707   0.80922   0.55034   0.01267  Uiso   1.00
C191   C     0.02978   0.83534   0.60175   0.01267  Uiso   1.00
C192   C     0.69642   0.85900   0.57807   0.01267  Uiso   1.00
C193   C     0.22831   0.90228   0.51545   0.01267  Uiso   1.00
C194   C     0.24460   0.98383   0.48279   0.01267  Uiso   1.00
C195   C     0.98624   0.03840   0.48393   0.01267  Uiso   1.00
C196   C     0.83748   0.04873   0.47290   0.01267  Uiso   1.00
C197   C     0.84472   0.06801   0.46539   0.01267  Uiso   1.00
C198   C     0.99677   0.07717   0.46855   0.01267  Uiso   1.00
C199   C     0.14833   0.06685   0.47905   0.01267  Uiso   1.00
C200   C     0.14041   0.04757   0.48671   0.01267  Uiso   1.00
C201   C     0.67183   0.03995   0.46850   0.01267  Uiso   1.00
C202   C     0.32085   0.07565   0.48239   0.01267  Uiso   1.00
C203   C     0.10247   0.90684   0.49901   0.01267  Uiso   1.00
C204   C     0.02261   0.88960   0.49860   0.01267  Uiso   1.00
C205   C     0.82071   0.88329   0.50768   0.01267  Uiso   1.00
C206   C     0.75236   0.86536   0.50826   0.01267  Uiso   1.00
C207   C     0.56047   0.85804   0.51891   0.01267  Uiso   1.00
C208   C     0.50163   0.86584   0.56976   0.01267  Uiso   1.00
C209   C     0.37618   0.87153   0.58133   0.01267  Uiso   1.00
C210   C     0.44637   0.88959   0.58034   0.01267  Uiso   1.00
C211   C     0.29889   0.89607   0.58949   0.01267  Uiso   1.00
C212   C     0.37241   0.91352   0.58939   0.01267  Uiso   1.00
C213   C     0.03245   0.41143   0.50429   0.01267  Uiso   1.00
C214   C     0.10600   0.41142   0.48691   0.01267  Uiso   1.00
C215   C     0.96792   0.42067   0.47126   0.01267  Uiso   1.00
C216   C     0.03739   0.41980   0.45413   0.01267  Uiso   1.00
C217   C     0.92374   0.43146   0.43687   0.01267  Uiso   1.00
C218   C     0.91583   0.48253   0.37841   0.01267  Uiso   1.00
C219   C     0.73452   0.49316   0.37515   0.01267  Uiso   1.00
C220   C     0.66670   0.49362   0.39256   0.01267  Uiso   1.00
C221   C     0.47387   0.50269   0.38984   0.01267  Uiso   1.00
C222   C     0.39355   0.50214   0.40756   0.01267  Uiso   1.00
C223   C     0.19176   0.51856   0.55973   0.01267  Uiso   1.00
C224   C     0.85435   0.53223   0.51016   0.01267  Uiso   1.00
C225   C     0.36764   0.51411   0.53605   0.01267  Uiso   1.00
C226   C     0.36755   0.52185   0.54760   0.01267  Uiso   1.00
C227   C     0.52970   0.53239   0.54734   0.01267  Uiso   1.00
C228   C     0.68486   0.53548   0.53504   0.01267  Uiso   1.00
C229   C     0.68439   0.52789   0.52334   0.01267  Uiso   1.00
C230   C     0.52447   0.51685   0.52409   0.01267  Uiso   1.00
C231   C     0.26678   0.51794   0.46842   0.01267  Uiso   1.00
C232   C     0.25128   0.48568   0.41936   0.01267  Uiso   1.00
C233   C     0.72075   0.42317   0.43824   0.01267  Uiso   1.00
C234   C     0.36305   0.39956   0.43821   0.01267  Uiso   1.00
C235   C     0.24074   0.45126   0.36064   0.01267  Uiso   1.00
C236   C     0.85934   0.40178   0.40452   0.01267  Uiso   1.00
C237   C     0.12259   0.41007   0.33412   0.01267  Uiso   1.00
C238   C     0.42527   0.56422   0.56633   0.01267  Uiso   1.00
C239   C     0.43081   0.55614   0.55501   0.01267  Uiso   1.00
C240   C     0.65285   0.53391   0.57475   0.01267  Uiso   1.00
C241   C     0.67028   0.54366   0.58432   0.01267  Uiso   1.00
C242   C     0.16228   0.60893   0.61980   0.01267  Uiso   1.00
C243   C     0.05436   0.60003   0.61243   0.01267  Uiso   1.00
C244   C     0.94193   0.59691   0.64666   0.01267  Uiso   1.00
C245   C     0.82447   0.58934   0.63846   0.01267  Uiso   1.00
C246   C     0.53941   0.54088   0.55925   0.01267  Uiso   1.00
C247   C     0.55903   0.55895   0.58038   0.01267  Uiso   1.00
C248   C     0.87742   0.59097   0.62131   0.01267  Uiso   1.00
C249   C     0.10693   0.60785   0.63663   0.01267  Uiso   1.00
C250   C     0.40148   0.51636   0.49678   0.01267  Uiso   1.00
C251   C     0.38445   0.50865   0.48526   0.01267  Uiso   1.00
C252   C     0.48042   0.49243   0.48953   0.01267  Uiso   1.00
C253   C     0.29383   0.43762   0.38006   0.01267  Uiso   1.00
C254   C     0.37977   0.44436   0.39067   0.01267  Uiso   1.00
C255   C     0.40218   0.43290   0.40984   0.01267  Uiso   1.00
C256   C     0.36041   0.41351   0.41781   0.01267  Uiso   1.00
C257   C     0.29666   0.40661   0.40653   0.01267  Uiso   1.00
C258   C     0.24669   0.41848   0.38831   0.01267  Uiso   1.00
C259   C     0.54409   0.62755   0.64703   0.01267  Uiso   1.00
C260   C     0.42512   0.61656   0.64303   0.01267  Uiso   1.00
C261   C     0.22818   0.61805   0.64326   0.01267  Uiso   1.00
C262   C     0.15240   0.63114   0.64726   0.01267  Uiso   1.00
C263   C     0.75584   0.35847   0.34915   0.01267  Uiso   1.00
C264   C     0.55564   0.36107   0.34740   0.01267  Uiso   1.00
C265   C     0.42197   0.35179   0.34052   0.01267  Uiso   1.00
C266   C     0.59722   0.64847   0.65898   0.01267  Uiso   1.00
C267   C     0.47127   0.64020   0.65188   0.01267  Uiso   1.00
C268   C     0.27035   0.64248   0.65119   0.01267  Uiso   1.00
C269   C     0.86834   0.36955   0.35387   0.01267  Uiso   1.00
C270   C     0.78901   0.38318   0.35682   0.01267  Uiso   1.00
C271   C     0.59343   0.38536   0.35549   0.01267  Uiso   1.00
C272   C     0.47930   0.37443   0.35101   0.01267  Uiso   1.00
C273   C     0.75036   0.58307   0.61269   0.01267  Uiso   1.00
C274   C     0.69836   0.59487   0.59452   0.01267  Uiso   1.00
C275   C     0.63421   0.58789   0.58331   0.01267  Uiso   1.00
C276   C     0.59270   0.56849   0.59139   0.01267  Uiso   1.00
C277   C     0.61566   0.55710   0.61057   0.01267  Uiso   1.00
C278   C     0.70299   0.56392   0.62105   0.01267  Uiso   1.00
C279   C     0.51383   0.50830   0.51227   0.01267  Uiso   1.00
C280   C     0.60972   0.49207   0.51656   0.01267  Uiso   1.00
C281   C     0.59272   0.48439   0.50501   0.01267  Uiso   1.00
C282   C     0.90452   0.39357   0.36358   0.01267  Uiso   1.00
C283   C     0.12382   0.41061   0.37939   0.01267  Uiso   1.00
C284   C     0.43591   0.44234   0.42093   0.01267  Uiso   1.00
C285   C     0.45559   0.46016   0.44229   0.01267  Uiso   1.00
C286   C     0.18257   0.41227   0.36236   0.01267  Uiso   1.00
C287   C     0.07033   0.40462   0.35390   0.01267  Uiso   1.00
C288   C     0.94574   0.40152   0.38785   0.01267  Uiso   1.00
C289   C     0.84255   0.39257   0.38022   0.01267  Uiso   1.00
C290   C     0.32470   0.45758   0.41709   0.01267  Uiso   1.00
C291   C     0.34217   0.46724   0.42678   0.01267  Uiso   1.00
C292   C     0.56422   0.44493   0.44641   0.01267  Uiso   1.00
C293   C     0.56980   0.43697   0.43497   0.01267  Uiso   1.00
C294   C     0.89836   0.59185   0.66650   0.01267  Uiso   1.00
C295   C     0.13503   0.59975   0.59559   0.01267  Uiso   1.00
C296   C     0.75741   0.55034   0.64044   0.01267  Uiso   1.00
C297   C     0.63153   0.60175   0.56291   0.01267  Uiso   1.00
C298   C     0.27449   0.57807   0.56293   0.01267  Uiso   1.00
C299   C     0.74376   0.51545   0.58227   0.01267  Uiso   1.00
C300   C     0.72739   0.48279   0.53338   0.01267  Uiso   1.00
C301   C     0.47017   0.48393   0.47767   0.01267  Uiso   1.00
C302   C     0.31038   0.47290   0.47837   0.01267  Uiso   1.00
C303   C     0.31011   0.46539   0.46660   0.01267  Uiso   1.00
C304   C     0.46532   0.46855   0.45428   0.01267  Uiso   1.00
C305   C     0.62738   0.47905   0.45410   0.01267  Uiso   1.00
C306   C     0.62712   0.48671   0.46572   0.01267  Uiso   1.00
C307   C     0.14033   0.46850   0.49155   0.01267  Uiso   1.00
C308   C     0.80324   0.48239   0.44196   0.01267  Uiso   1.00
C309   C     0.60148   0.49901   0.59415   0.01267  Uiso   1.00
C310   C     0.52121   0.49860   0.61180   0.01267  Uiso   1.00
C311   C     0.32839   0.50768   0.60903   0.01267  Uiso   1.00
C312   C     0.26062   0.50826   0.62638   0.01267  Uiso   1.00
C313   C     0.07938   0.51891   0.62305   0.01267  Uiso   1.00
C314   C     0.07139   0.56976   0.56440   0.01267  Uiso   1.00
C315   C     0.95751   0.58133   0.54714   0.01267  Uiso   1.00
C316   C     0.02671   0.58034   0.53007   0.01267  Uiso   1.00
C317   C     0.88838   0.58949   0.51444   0.01267  Uiso   1.00
C318   C     0.96180   0.58939   0.49709   0.01267  Uiso   1.00
O1     O     0.19402   0.34866   0.30746   0.01267  Uiso   1.00
O2     O     0.81617   0.33709   0.32352   0.01267  Uiso   1.00
O3     O     0.58700   0.33783   0.30539   0.01267  Uiso   1.00
O4     O     0.43369   0.66077   0.69488   0.01267  Uiso   1.00
O5     O     0.19908   0.66398   0.67643   0.01267  Uiso   1.00
O6     O     0.84772   0.65324   0.69158   0.01267  Uiso   1.00
O7     O     0.50148   0.30746   0.34388   0.01267  Uiso   1.00
O8     O     0.13969   0.32352   0.33939   0.01267  Uiso   1.00
O9     O     0.89239   0.30539   0.35678   0.01267  Uiso   1.00
O10    O     0.12857   0.69488   0.64435   0.01267  Uiso   1.00
O11    O     0.87551   0.67643   0.65959   0.01267  Uiso   1.00
O12    O     0.53930   0.69158   0.65518   0.01267  Uiso   1.00
O13    O     0.84536   0.34388   0.34866   0.01267  Uiso   1.00
O14    O     0.47908   0.33939   0.33709   0.01267  Uiso   1.00
O15    O     0.24917   0.35678   0.33783   0.01267  Uiso   1.00
O16    O     0.77292   0.64435   0.66077   0.01267  Uiso   1.00
O17    O     0.53510   0.65959   0.66398   0.01267  Uiso   1.00
O18    O     0.19448   0.65518   0.65324   0.01267  Uiso   1.00
