data_image0
_cell_length_a       52.349
_cell_length_b       20.421
_cell_length_c       9.9111
_cell_angle_alpha    90
_cell_angle_beta     90
_cell_angle_gamma    90

_symmetry_space_group_name_H-M    "P 1"
_symmetry_int_tables_number       1

loop_
  _symmetry_equiv_pos_as_xyz
  'x, y, z'

loop_
  _atom_site_label
  _atom_site_occupancy
  _atom_site_fract_x
  _atom_site_fract_y
  _atom_site_fract_z
  _atom_site_thermal_displace_type
  _atom_site_B_iso_or_equiv
  _atom_site_type_symbol
  Co1      1.0000 0.46179  0.33956  0.16536  Biso   1.000  Co
  O1       1.0000 0.45939  0.41590  0.30966  Biso   1.000  O
  O2       1.0000 0.46488  0.32349  0.41590  Biso   1.000  O
  O3       1.0000 0.45887  0.41970  0.02899  Biso   1.000  O
  O4       1.0000 0.46125  0.32708  0.92580  Biso   1.000  O
  N1       1.0000 0.46447  0.73447  0.66330  Biso   1.000  N
  N2       1.0000 0.50245  0.35057  0.15770  Biso   1.000  N
  N3       1.0000 0.67086  0.42118  0.92970  Biso   1.000  N
  C1       1.0000 0.46417  0.52428  0.66590  Biso   1.000  C
  C2       1.0000 0.46423  0.48859  0.54510  Biso   1.000  C
  H1       1.0000 0.46500  0.51090  0.46120  Biso   1.000  H
  C3       1.0000 0.46317  0.42070  0.54780  Biso   1.000  C
  C4       1.0000 0.46226  0.38771  0.66870  Biso   1.000  C
  H2       1.0000 0.46180  0.34120  0.66990  Biso   1.000  H
  C5       1.0000 0.46204  0.42282  0.79000  Biso   1.000  C
  C6       1.0000 0.46314  0.49027  0.78760  Biso   1.000  C
  H3       1.0000 0.46320  0.51390  0.87020  Biso   1.000  H
  C7       1.0000 0.45481  0.69967  0.56060  Biso   1.000  C
  H4       1.0000 0.44790  0.72260  0.48570  Biso   1.000  H
  C8       1.0000 0.45444  0.63236  0.55860  Biso   1.000  C
  H5       1.0000 0.44710  0.61010  0.48370  Biso   1.000  H
  C9       1.0000 0.46458  0.59674  0.66450  Biso   1.000  C
  C10      1.0000 0.47466  0.63277  0.77080  Biso   1.000  C
  H6       1.0000 0.48170  0.61100  0.84690  Biso   1.000  H
  C11      1.0000 0.47438  0.70063  0.76560  Biso   1.000  C
  H7       1.0000 0.48170  0.72420  0.83870  Biso   1.000  H
  C12      1.0000 0.46248  0.38401  0.41650  Biso   1.000  C
  C13      1.0000 0.46058  0.38675  0.92190  Biso   1.000  C
  C14      1.0000 0.58331  0.38646  0.11430  Biso   1.000  C
  H8       1.0000 0.58990  0.40960  0.19490  Biso   1.000  H
  H9       1.0000 0.59220  0.34390  0.10790  Biso   1.000  H
  C15      1.0000 0.51239  0.41039  0.17660  Biso   1.000  C
  H10      1.0000 0.50110  0.44510  0.19970  Biso   1.000  H
  C16      1.0000 0.53805  0.42423  0.16430  Biso   1.000  C
  H11      1.0000 0.54410  0.46760  0.17770  Biso   1.000  H
  C17      1.0000 0.55503  0.37428  0.13220  Biso   1.000  C
  C18      1.0000 0.54484  0.31281  0.11160  Biso   1.000  C
  H12      1.0000 0.55570  0.27720  0.08920  Biso   1.000  H
  C19      1.0000 0.51879  0.30309  0.12360  Biso   1.000  C
  H13      1.0000 0.51220  0.26050  0.10670  Biso   1.000  H
  C20      1.0000 0.58925  0.42629  0.99100  Biso   1.000  C
  H14      1.0000 0.58300  0.47160  0.00370  Biso   1.000  H
  H15      1.0000 0.58030  0.40730  0.91200  Biso   1.000  H
  C21      1.0000 0.66043  0.45726  0.02560  Biso   1.000  C
  H16      1.0000 0.67140  0.48180  0.08270  Biso   1.000  H
  C22      1.0000 0.63421  0.46122  0.04740  Biso   1.000  C
  H17      1.0000 0.62770  0.48720  0.11920  Biso   1.000  H
  C23      1.0000 0.61766  0.42742  0.96490  Biso   1.000  C
  C24      1.0000 0.62842  0.39156  0.86400  Biso   1.000  C
  H18      1.0000 0.61790  0.36810  0.80290  Biso   1.000  H
  C25      1.0000 0.65480  0.38918  0.85010  Biso   1.000  C
  H19      1.0000 0.66170  0.36320  0.77960  Biso   1.000  H
  Co2      1.0000 0.46179  0.83956  0.66536  Biso   1.000  Co
  O5       1.0000 0.45939  0.91590  0.80966  Biso   1.000  O
  O6       1.0000 0.46488  0.82349  0.91590  Biso   1.000  O
  O7       1.0000 0.45887  0.91970  0.52899  Biso   1.000  O
  O8       1.0000 0.46125  0.82708  0.42580  Biso   1.000  O
  N4       1.0000 0.46447  0.23447  0.16330  Biso   1.000  N
  N5       1.0000 0.50245  0.85057  0.65770  Biso   1.000  N
  N6       1.0000 0.67086  0.92118  0.42970  Biso   1.000  N
  C26      1.0000 0.46417  0.02428  0.16590  Biso   1.000  C
  C27      1.0000 0.46423  0.98859  0.04510  Biso   1.000  C
  H20      1.0000 0.46500  0.01090  0.96120  Biso   1.000  H
  C28      1.0000 0.46317  0.92070  0.04780  Biso   1.000  C
  C29      1.0000 0.46226  0.88771  0.16870  Biso   1.000  C
  H21      1.0000 0.46180  0.84120  0.16990  Biso   1.000  H
  C30      1.0000 0.46204  0.92282  0.29000  Biso   1.000  C
  C31      1.0000 0.46314  0.99027  0.28760  Biso   1.000  C
  H22      1.0000 0.46320  0.01390  0.37020  Biso   1.000  H
  C32      1.0000 0.45481  0.19967  0.06060  Biso   1.000  C
  H23      1.0000 0.44790  0.22260  0.98570  Biso   1.000  H
  C33      1.0000 0.45444  0.13236  0.05860  Biso   1.000  C
  H24      1.0000 0.44710  0.11010  0.98370  Biso   1.000  H
  C34      1.0000 0.46458  0.09674  0.16450  Biso   1.000  C
  C35      1.0000 0.47466  0.13277  0.27080  Biso   1.000  C
  H25      1.0000 0.48170  0.11100  0.34690  Biso   1.000  H
  C36      1.0000 0.47438  0.20063  0.26560  Biso   1.000  C
  H26      1.0000 0.48170  0.22420  0.33870  Biso   1.000  H
  C37      1.0000 0.46248  0.88401  0.91650  Biso   1.000  C
  C38      1.0000 0.46058  0.88675  0.42190  Biso   1.000  C
  C39      1.0000 0.58331  0.88646  0.61430  Biso   1.000  C
  H27      1.0000 0.58990  0.90960  0.69490  Biso   1.000  H
  H28      1.0000 0.59220  0.84390  0.60790  Biso   1.000  H
  C40      1.0000 0.51239  0.91039  0.67660  Biso   1.000  C
  H29      1.0000 0.50110  0.94510  0.69970  Biso   1.000  H
  C41      1.0000 0.53805  0.92423  0.66430  Biso   1.000  C
  H30      1.0000 0.54410  0.96760  0.67770  Biso   1.000  H
  C42      1.0000 0.55503  0.87428  0.63220  Biso   1.000  C
  C43      1.0000 0.54484  0.81281  0.61160  Biso   1.000  C
  H31      1.0000 0.55570  0.77720  0.58920  Biso   1.000  H
  C44      1.0000 0.51879  0.80309  0.62360  Biso   1.000  C
  H32      1.0000 0.51220  0.76050  0.60670  Biso   1.000  H
  C45      1.0000 0.58925  0.92629  0.49100  Biso   1.000  C
  H33      1.0000 0.58300  0.97160  0.50370  Biso   1.000  H
  H34      1.0000 0.58030  0.90730  0.41200  Biso   1.000  H
  C46      1.0000 0.66043  0.95726  0.52560  Biso   1.000  C
  H35      1.0000 0.67140  0.98180  0.58270  Biso   1.000  H
  C47      1.0000 0.63421  0.96122  0.54740  Biso   1.000  C
  H36      1.0000 0.62770  0.98720  0.61920  Biso   1.000  H
  C48      1.0000 0.61766  0.92742  0.46490  Biso   1.000  C
  C49      1.0000 0.62842  0.89156  0.36400  Biso   1.000  C
  H37      1.0000 0.61790  0.86810  0.30290  Biso   1.000  H
  C50      1.0000 0.65480  0.88918  0.35010  Biso   1.000  C
  H38      1.0000 0.66170  0.86320  0.27960  Biso   1.000  H
  Co3      1.0000 0.96179  0.33956  0.66536  Biso   1.000  Co
  O9       1.0000 0.95939  0.41590  0.80966  Biso   1.000  O
  O10      1.0000 0.96488  0.32349  0.91590  Biso   1.000  O
  O11      1.0000 0.95887  0.41970  0.52899  Biso   1.000  O
  O12      1.0000 0.96125  0.32708  0.42580  Biso   1.000  O
  N7       1.0000 0.96447  0.73447  0.16330  Biso   1.000  N
  N8       1.0000 0.00245  0.35057  0.65770  Biso   1.000  N
  N9       1.0000 0.17086  0.42118  0.42970  Biso   1.000  N
  C51      1.0000 0.96417  0.52428  0.16590  Biso   1.000  C
  C52      1.0000 0.96423  0.48859  0.04510  Biso   1.000  C
  H39      1.0000 0.96500  0.51090  0.96120  Biso   1.000  H
  C53      1.0000 0.96317  0.42070  0.04780  Biso   1.000  C
  C54      1.0000 0.96226  0.38771  0.16870  Biso   1.000  C
  H40      1.0000 0.96180  0.34120  0.16990  Biso   1.000  H
  C55      1.0000 0.96204  0.42282  0.29000  Biso   1.000  C
  C56      1.0000 0.96314  0.49027  0.28760  Biso   1.000  C
  H41      1.0000 0.96320  0.51390  0.37020  Biso   1.000  H
  C57      1.0000 0.95481  0.69967  0.06060  Biso   1.000  C
  H42      1.0000 0.94790  0.72260  0.98570  Biso   1.000  H
  C58      1.0000 0.95444  0.63236  0.05860  Biso   1.000  C
  H43      1.0000 0.94710  0.61010  0.98370  Biso   1.000  H
  C59      1.0000 0.96458  0.59674  0.16450  Biso   1.000  C
  C60      1.0000 0.97466  0.63277  0.27080  Biso   1.000  C
  H44      1.0000 0.98170  0.61100  0.34690  Biso   1.000  H
  C61      1.0000 0.97438  0.70063  0.26560  Biso   1.000  C
  H45      1.0000 0.98170  0.72420  0.33870  Biso   1.000  H
  C62      1.0000 0.96248  0.38401  0.91650  Biso   1.000  C
  C63      1.0000 0.96058  0.38675  0.42190  Biso   1.000  C
  C64      1.0000 0.08331  0.38646  0.61430  Biso   1.000  C
  H46      1.0000 0.08990  0.40960  0.69490  Biso   1.000  H
  H47      1.0000 0.09220  0.34390  0.60790  Biso   1.000  H
  C65      1.0000 0.01239  0.41039  0.67660  Biso   1.000  C
  H48      1.0000 0.00110  0.44510  0.69970  Biso   1.000  H
  C66      1.0000 0.03805  0.42423  0.66430  Biso   1.000  C
  H49      1.0000 0.04410  0.46760  0.67770  Biso   1.000  H
  C67      1.0000 0.05503  0.37428  0.63220  Biso   1.000  C
  C68      1.0000 0.04484  0.31281  0.61160  Biso   1.000  C
  H50      1.0000 0.05570  0.27720  0.58920  Biso   1.000  H
  C69      1.0000 0.01879  0.30309  0.62360  Biso   1.000  C
  H51      1.0000 0.01220  0.26050  0.60670  Biso   1.000  H
  C70      1.0000 0.08925  0.42629  0.49100  Biso   1.000  C
  H52      1.0000 0.08300  0.47160  0.50370  Biso   1.000  H
  H53      1.0000 0.08030  0.40730  0.41200  Biso   1.000  H
  C71      1.0000 0.16043  0.45726  0.52560  Biso   1.000  C
  H54      1.0000 0.17140  0.48180  0.58270  Biso   1.000  H
  C72      1.0000 0.13421  0.46122  0.54740  Biso   1.000  C
  H55      1.0000 0.12770  0.48720  0.61920  Biso   1.000  H
  C73      1.0000 0.11766  0.42742  0.46490  Biso   1.000  C
  C74      1.0000 0.12842  0.39156  0.36400  Biso   1.000  C
  H56      1.0000 0.11790  0.36810  0.30290  Biso   1.000  H
  C75      1.0000 0.15480  0.38918  0.35010  Biso   1.000  C
  H57      1.0000 0.16170  0.36320  0.27960  Biso   1.000  H
  Co4      1.0000 0.96179  0.83956  0.16536  Biso   1.000  Co
  O13      1.0000 0.95939  0.91590  0.30966  Biso   1.000  O
  O14      1.0000 0.96488  0.82349  0.41590  Biso   1.000  O
  O15      1.0000 0.95887  0.91970  0.02899  Biso   1.000  O
  O16      1.0000 0.96125  0.82708  0.92580  Biso   1.000  O
  N10      1.0000 0.96447  0.23447  0.66330  Biso   1.000  N
  N11      1.0000 0.00245  0.85057  0.15770  Biso   1.000  N
  N12      1.0000 0.17086  0.92118  0.92970  Biso   1.000  N
  C76      1.0000 0.96417  0.02428  0.66590  Biso   1.000  C
  C77      1.0000 0.96423  0.98859  0.54510  Biso   1.000  C
  H58      1.0000 0.96500  0.01090  0.46120  Biso   1.000  H
  C78      1.0000 0.96317  0.92070  0.54780  Biso   1.000  C
  C79      1.0000 0.96226  0.88771  0.66870  Biso   1.000  C
  H59      1.0000 0.96180  0.84120  0.66990  Biso   1.000  H
  C80      1.0000 0.96204  0.92282  0.79000  Biso   1.000  C
  C81      1.0000 0.96314  0.99027  0.78760  Biso   1.000  C
  H60      1.0000 0.96320  0.01390  0.87020  Biso   1.000  H
  C82      1.0000 0.95481  0.19967  0.56060  Biso   1.000  C
  H61      1.0000 0.94790  0.22260  0.48570  Biso   1.000  H
  C83      1.0000 0.95444  0.13236  0.55860  Biso   1.000  C
  H62      1.0000 0.94710  0.11010  0.48370  Biso   1.000  H
  C84      1.0000 0.96458  0.09674  0.66450  Biso   1.000  C
  C85      1.0000 0.97466  0.13277  0.77080  Biso   1.000  C
  H63      1.0000 0.98170  0.11100  0.84690  Biso   1.000  H
  C86      1.0000 0.97438  0.20063  0.76560  Biso   1.000  C
  H64      1.0000 0.98170  0.22420  0.83870  Biso   1.000  H
  C87      1.0000 0.96248  0.88401  0.41650  Biso   1.000  C
  C88      1.0000 0.96058  0.88675  0.92190  Biso   1.000  C
  C89      1.0000 0.08331  0.88646  0.11430  Biso   1.000  C
  H65      1.0000 0.08990  0.90960  0.19490  Biso   1.000  H
  H66      1.0000 0.09220  0.84390  0.10790  Biso   1.000  H
  C90      1.0000 0.01239  0.91039  0.17660  Biso   1.000  C
  H67      1.0000 0.00110  0.94510  0.19970  Biso   1.000  H
  C91      1.0000 0.03805  0.92423  0.16430  Biso   1.000  C
  H68      1.0000 0.04410  0.96760  0.17770  Biso   1.000  H
  C92      1.0000 0.05503  0.87428  0.13220  Biso   1.000  C
  C93      1.0000 0.04484  0.81281  0.11160  Biso   1.000  C
  H69      1.0000 0.05570  0.77720  0.08920  Biso   1.000  H
  C94      1.0000 0.01879  0.80309  0.12360  Biso   1.000  C
  H70      1.0000 0.01220  0.76050  0.10670  Biso   1.000  H
  C95      1.0000 0.08925  0.92629  0.99100  Biso   1.000  C
  H71      1.0000 0.08300  0.97160  0.00370  Biso   1.000  H
  H72      1.0000 0.08030  0.90730  0.91200  Biso   1.000  H
  C96      1.0000 0.16043  0.95726  0.02560  Biso   1.000  C
  H73      1.0000 0.17140  0.98180  0.08270  Biso   1.000  H
  C97      1.0000 0.13421  0.96122  0.04740  Biso   1.000  C
  H74      1.0000 0.12770  0.98720  0.11920  Biso   1.000  H
  C98      1.0000 0.11766  0.92742  0.96490  Biso   1.000  C
  C99      1.0000 0.12842  0.89156  0.86400  Biso   1.000  C
  H75      1.0000 0.11790  0.86810  0.80290  Biso   1.000  H
  C100     1.0000 0.15480  0.88918  0.85010  Biso   1.000  C
  H76      1.0000 0.16170  0.86320  0.77960  Biso   1.000  H
  Co5      1.0000 0.71179  0.91044  0.41536  Biso   1.000  Co
  O17      1.0000 0.70939  0.83410  0.55966  Biso   1.000  O
  O18      1.0000 0.71488  0.92651  0.66590  Biso   1.000  O
  O19      1.0000 0.70887  0.83030  0.27899  Biso   1.000  O
  O20      1.0000 0.71125  0.92292  0.17580  Biso   1.000  O
  N13      1.0000 0.71447  0.51553  0.91330  Biso   1.000  N
  N14      1.0000 0.75245  0.89943  0.40770  Biso   1.000  N
  N15      1.0000 0.92086  0.82882  0.17970  Biso   1.000  N
  C101     1.0000 0.71417  0.72572  0.91590  Biso   1.000  C
  C102     1.0000 0.71423  0.76141  0.79510  Biso   1.000  C
  H77      1.0000 0.71500  0.73910  0.71120  Biso   1.000  H
  C103     1.0000 0.71317  0.82930  0.79780  Biso   1.000  C
  C104     1.0000 0.71226  0.86229  0.91870  Biso   1.000  C
  H78      1.0000 0.71180  0.90880  0.91990  Biso   1.000  H
  C105     1.0000 0.71204  0.82718  0.04000  Biso   1.000  C
  C106     1.0000 0.71314  0.75973  0.03760  Biso   1.000  C
  H79      1.0000 0.71320  0.73610  0.12020  Biso   1.000  H
  C107     1.0000 0.70481  0.55033  0.81060  Biso   1.000  C
  H80      1.0000 0.69790  0.52740  0.73570  Biso   1.000  H
  C108     1.0000 0.70444  0.61764  0.80860  Biso   1.000  C
  H81      1.0000 0.69710  0.63990  0.73370  Biso   1.000  H
  C109     1.0000 0.71458  0.65326  0.91450  Biso   1.000  C
  C110     1.0000 0.72466  0.61723  0.02080  Biso   1.000  C
  H82      1.0000 0.73170  0.63900  0.09690  Biso   1.000  H
  C111     1.0000 0.72438  0.54937  0.01560  Biso   1.000  C
  H83      1.0000 0.73170  0.52580  0.08870  Biso   1.000  H
  C112     1.0000 0.71248  0.86599  0.66650  Biso   1.000  C
  C113     1.0000 0.71058  0.86325  0.17190  Biso   1.000  C
  C114     1.0000 0.83331  0.86354  0.36430  Biso   1.000  C
  H84      1.0000 0.83990  0.84040  0.44490  Biso   1.000  H
  H85      1.0000 0.84220  0.90610  0.35790  Biso   1.000  H
  C115     1.0000 0.76239  0.83961  0.42660  Biso   1.000  C
  H86      1.0000 0.75110  0.80490  0.44970  Biso   1.000  H
  C116     1.0000 0.78805  0.82577  0.41430  Biso   1.000  C
  H87      1.0000 0.79410  0.78240  0.42770  Biso   1.000  H
  C117     1.0000 0.80503  0.87572  0.38220  Biso   1.000  C
  C118     1.0000 0.79484  0.93719  0.36160  Biso   1.000  C
  H88      1.0000 0.80570  0.97280  0.33920  Biso   1.000  H
  C119     1.0000 0.76879  0.94691  0.37360  Biso   1.000  C
  H89      1.0000 0.76220  0.98950  0.35670  Biso   1.000  H
  C120     1.0000 0.83925  0.82371  0.24100  Biso   1.000  C
  H90      1.0000 0.83300  0.77840  0.25370  Biso   1.000  H
  H91      1.0000 0.83030  0.84270  0.16200  Biso   1.000  H
  C121     1.0000 0.91043  0.79274  0.27560  Biso   1.000  C
  H92      1.0000 0.92140  0.76820  0.33270  Biso   1.000  H
  C122     1.0000 0.88421  0.78878  0.29740  Biso   1.000  C
  H93      1.0000 0.87770  0.76280  0.36920  Biso   1.000  H
  C123     1.0000 0.86766  0.82258  0.21490  Biso   1.000  C
  C124     1.0000 0.87842  0.85844  0.11400  Biso   1.000  C
  H94      1.0000 0.86790  0.88190  0.05290  Biso   1.000  H
  C125     1.0000 0.90480  0.86082  0.10010  Biso   1.000  C
  H95      1.0000 0.91170  0.88680  0.02960  Biso   1.000  H
  Co6      1.0000 0.71179  0.41044  0.91536  Biso   1.000  Co
  O21      1.0000 0.70939  0.33410  0.05966  Biso   1.000  O
  O22      1.0000 0.71488  0.42651  0.16590  Biso   1.000  O
  O23      1.0000 0.70887  0.33030  0.77899  Biso   1.000  O
  O24      1.0000 0.71125  0.42292  0.67580  Biso   1.000  O
  N16      1.0000 0.71447  0.01553  0.41330  Biso   1.000  N
  N17      1.0000 0.75245  0.39943  0.90770  Biso   1.000  N
  N18      1.0000 0.92086  0.32882  0.67970  Biso   1.000  N
  C126     1.0000 0.71417  0.22572  0.41590  Biso   1.000  C
  C127     1.0000 0.71423  0.26141  0.29510  Biso   1.000  C
  H96      1.0000 0.71500  0.23910  0.21120  Biso   1.000  H
  C128     1.0000 0.71317  0.32930  0.29780  Biso   1.000  C
  C129     1.0000 0.71226  0.36229  0.41870  Biso   1.000  C
  H97      1.0000 0.71180  0.40880  0.41990  Biso   1.000  H
  C130     1.0000 0.71204  0.32718  0.54000  Biso   1.000  C
  C131     1.0000 0.71314  0.25973  0.53760  Biso   1.000  C
  H98      1.0000 0.71320  0.23610  0.62020  Biso   1.000  H
  C132     1.0000 0.70481  0.05033  0.31060  Biso   1.000  C
  H99      1.0000 0.69790  0.02740  0.23570  Biso   1.000  H
  C133     1.0000 0.70444  0.11764  0.30860  Biso   1.000  C
  H100     1.0000 0.69710  0.13990  0.23370  Biso   1.000  H
  C134     1.0000 0.71458  0.15326  0.41450  Biso   1.000  C
  C135     1.0000 0.72466  0.11723  0.52080  Biso   1.000  C
  H101     1.0000 0.73170  0.13900  0.59690  Biso   1.000  H
  C136     1.0000 0.72438  0.04937  0.51560  Biso   1.000  C
  H102     1.0000 0.73170  0.02580  0.58870  Biso   1.000  H
  C137     1.0000 0.71248  0.36599  0.16650  Biso   1.000  C
  C138     1.0000 0.71058  0.36325  0.67190  Biso   1.000  C
  C139     1.0000 0.83331  0.36354  0.86430  Biso   1.000  C
  H103     1.0000 0.83990  0.34040  0.94490  Biso   1.000  H
  H104     1.0000 0.84220  0.40610  0.85790  Biso   1.000  H
  C140     1.0000 0.76239  0.33961  0.92660  Biso   1.000  C
  H105     1.0000 0.75110  0.30490  0.94970  Biso   1.000  H
  C141     1.0000 0.78805  0.32577  0.91430  Biso   1.000  C
  H106     1.0000 0.79410  0.28240  0.92770  Biso   1.000  H
  C142     1.0000 0.80503  0.37572  0.88220  Biso   1.000  C
  C143     1.0000 0.79484  0.43719  0.86160  Biso   1.000  C
  H107     1.0000 0.80570  0.47280  0.83920  Biso   1.000  H
  C144     1.0000 0.76879  0.44691  0.87360  Biso   1.000  C
  H108     1.0000 0.76220  0.48950  0.85670  Biso   1.000  H
  C145     1.0000 0.83925  0.32371  0.74100  Biso   1.000  C
  H109     1.0000 0.83300  0.27840  0.75370  Biso   1.000  H
  H110     1.0000 0.83030  0.34270  0.66200  Biso   1.000  H
  C146     1.0000 0.91043  0.29274  0.77560  Biso   1.000  C
  H111     1.0000 0.92140  0.26820  0.83270  Biso   1.000  H
  C147     1.0000 0.88421  0.28878  0.79740  Biso   1.000  C
  H112     1.0000 0.87770  0.26280  0.86920  Biso   1.000  H
  C148     1.0000 0.86766  0.32258  0.71490  Biso   1.000  C
  C149     1.0000 0.87842  0.35844  0.61400  Biso   1.000  C
  H113     1.0000 0.86790  0.38190  0.55290  Biso   1.000  H
  C150     1.0000 0.90480  0.36082  0.60010  Biso   1.000  C
  H114     1.0000 0.91170  0.38680  0.52960  Biso   1.000  H
  Co7      1.0000 0.21179  0.91044  0.91536  Biso   1.000  Co
  O25      1.0000 0.20939  0.83410  0.05966  Biso   1.000  O
  O26      1.0000 0.21488  0.92651  0.16590  Biso   1.000  O
  O27      1.0000 0.20887  0.83030  0.77899  Biso   1.000  O
  O28      1.0000 0.21125  0.92292  0.67580  Biso   1.000  O
  N19      1.0000 0.21447  0.51553  0.41330  Biso   1.000  N
  N20      1.0000 0.25245  0.89943  0.90770  Biso   1.000  N
  N21      1.0000 0.42086  0.82882  0.67970  Biso   1.000  N
  C151     1.0000 0.21417  0.72572  0.41590  Biso   1.000  C
  C152     1.0000 0.21423  0.76141  0.29510  Biso   1.000  C
  H115     1.0000 0.21500  0.73910  0.21120  Biso   1.000  H
  C153     1.0000 0.21317  0.82930  0.29780  Biso   1.000  C
  C154     1.0000 0.21226  0.86229  0.41870  Biso   1.000  C
  H116     1.0000 0.21180  0.90880  0.41990  Biso   1.000  H
  C155     1.0000 0.21204  0.82718  0.54000  Biso   1.000  C
  C156     1.0000 0.21314  0.75973  0.53760  Biso   1.000  C
  H117     1.0000 0.21320  0.73610  0.62020  Biso   1.000  H
  C157     1.0000 0.20481  0.55033  0.31060  Biso   1.000  C
  H118     1.0000 0.19790  0.52740  0.23570  Biso   1.000  H
  C158     1.0000 0.20444  0.61764  0.30860  Biso   1.000  C
  H119     1.0000 0.19710  0.63990  0.23370  Biso   1.000  H
  C159     1.0000 0.21458  0.65326  0.41450  Biso   1.000  C
  C160     1.0000 0.22466  0.61723  0.52080  Biso   1.000  C
  H120     1.0000 0.23170  0.63900  0.59690  Biso   1.000  H
  C161     1.0000 0.22438  0.54937  0.51560  Biso   1.000  C
  H121     1.0000 0.23170  0.52580  0.58870  Biso   1.000  H
  C162     1.0000 0.21248  0.86599  0.16650  Biso   1.000  C
  C163     1.0000 0.21058  0.86325  0.67190  Biso   1.000  C
  C164     1.0000 0.33331  0.86354  0.86430  Biso   1.000  C
  H122     1.0000 0.33990  0.84040  0.94490  Biso   1.000  H
  H123     1.0000 0.34220  0.90610  0.85790  Biso   1.000  H
  C165     1.0000 0.26239  0.83961  0.92660  Biso   1.000  C
  H124     1.0000 0.25110  0.80490  0.94970  Biso   1.000  H
  C166     1.0000 0.28805  0.82577  0.91430  Biso   1.000  C
  H125     1.0000 0.29410  0.78240  0.92770  Biso   1.000  H
  C167     1.0000 0.30503  0.87572  0.88220  Biso   1.000  C
  C168     1.0000 0.29484  0.93719  0.86160  Biso   1.000  C
  H126     1.0000 0.30570  0.97280  0.83920  Biso   1.000  H
  C169     1.0000 0.26879  0.94691  0.87360  Biso   1.000  C
  H127     1.0000 0.26220  0.98950  0.85670  Biso   1.000  H
  C170     1.0000 0.33925  0.82371  0.74100  Biso   1.000  C
  H128     1.0000 0.33300  0.77840  0.75370  Biso   1.000  H
  H129     1.0000 0.33030  0.84270  0.66200  Biso   1.000  H
  C171     1.0000 0.41043  0.79274  0.77560  Biso   1.000  C
  H130     1.0000 0.42140  0.76820  0.83270  Biso   1.000  H
  C172     1.0000 0.38421  0.78878  0.79740  Biso   1.000  C
  H131     1.0000 0.37770  0.76280  0.86920  Biso   1.000  H
  C173     1.0000 0.36766  0.82258  0.71490  Biso   1.000  C
  C174     1.0000 0.37842  0.85844  0.61400  Biso   1.000  C
  H132     1.0000 0.36790  0.88190  0.55290  Biso   1.000  H
  C175     1.0000 0.40480  0.86082  0.60010  Biso   1.000  C
  H133     1.0000 0.41170  0.88680  0.52960  Biso   1.000  H
  Co8      1.0000 0.21179  0.41044  0.41536  Biso   1.000  Co
  O29      1.0000 0.20939  0.33410  0.55966  Biso   1.000  O
  O30      1.0000 0.21488  0.42651  0.66590  Biso   1.000  O
  O31      1.0000 0.20887  0.33030  0.27899  Biso   1.000  O
  O32      1.0000 0.21125  0.42292  0.17580  Biso   1.000  O
  N22      1.0000 0.21447  0.01553  0.91330  Biso   1.000  N
  N23      1.0000 0.25245  0.39943  0.40770  Biso   1.000  N
  N24      1.0000 0.42086  0.32882  0.17970  Biso   1.000  N
  C176     1.0000 0.21417  0.22572  0.91590  Biso   1.000  C
  C177     1.0000 0.21423  0.26141  0.79510  Biso   1.000  C
  H134     1.0000 0.21500  0.23910  0.71120  Biso   1.000  H
  C178     1.0000 0.21317  0.32930  0.79780  Biso   1.000  C
  C179     1.0000 0.21226  0.36229  0.91870  Biso   1.000  C
  H135     1.0000 0.21180  0.40880  0.91990  Biso   1.000  H
  C180     1.0000 0.21204  0.32718  0.04000  Biso   1.000  C
  C181     1.0000 0.21314  0.25973  0.03760  Biso   1.000  C
  H136     1.0000 0.21320  0.23610  0.12020  Biso   1.000  H
  C182     1.0000 0.20481  0.05033  0.81060  Biso   1.000  C
  H137     1.0000 0.19790  0.02740  0.73570  Biso   1.000  H
  C183     1.0000 0.20444  0.11764  0.80860  Biso   1.000  C
  H138     1.0000 0.19710  0.13990  0.73370  Biso   1.000  H
  C184     1.0000 0.21458  0.15326  0.91450  Biso   1.000  C
  C185     1.0000 0.22466  0.11723  0.02080  Biso   1.000  C
  H139     1.0000 0.23170  0.13900  0.09690  Biso   1.000  H
  C186     1.0000 0.22438  0.04937  0.01560  Biso   1.000  C
  H140     1.0000 0.23170  0.02580  0.08870  Biso   1.000  H
  C187     1.0000 0.21248  0.36599  0.66650  Biso   1.000  C
  C188     1.0000 0.21058  0.36325  0.17190  Biso   1.000  C
  C189     1.0000 0.33331  0.36354  0.36430  Biso   1.000  C
  H141     1.0000 0.33990  0.34040  0.44490  Biso   1.000  H
  H142     1.0000 0.34220  0.40610  0.35790  Biso   1.000  H
  C190     1.0000 0.26239  0.33961  0.42660  Biso   1.000  C
  H143     1.0000 0.25110  0.30490  0.44970  Biso   1.000  H
  C191     1.0000 0.28805  0.32577  0.41430  Biso   1.000  C
  H144     1.0000 0.29410  0.28240  0.42770  Biso   1.000  H
  C192     1.0000 0.30503  0.37572  0.38220  Biso   1.000  C
  C193     1.0000 0.29484  0.43719  0.36160  Biso   1.000  C
  H145     1.0000 0.30570  0.47280  0.33920  Biso   1.000  H
  C194     1.0000 0.26879  0.44691  0.37360  Biso   1.000  C
  H146     1.0000 0.26220  0.48950  0.35670  Biso   1.000  H
  C195     1.0000 0.33925  0.32371  0.24100  Biso   1.000  C
  H147     1.0000 0.33300  0.27840  0.25370  Biso   1.000  H
  H148     1.0000 0.33030  0.34270  0.16200  Biso   1.000  H
  C196     1.0000 0.41043  0.29274  0.27560  Biso   1.000  C
  H149     1.0000 0.42140  0.26820  0.33270  Biso   1.000  H
  C197     1.0000 0.38421  0.28878  0.29740  Biso   1.000  C
  H150     1.0000 0.37770  0.26280  0.36920  Biso   1.000  H
  C198     1.0000 0.36766  0.32258  0.21490  Biso   1.000  C
  C199     1.0000 0.37842  0.35844  0.11400  Biso   1.000  C
  H151     1.0000 0.36790  0.38190  0.05290  Biso   1.000  H
  C200     1.0000 0.40480  0.36082  0.10010  Biso   1.000  C
  H152     1.0000 0.41170  0.38680  0.02960  Biso   1.000  H
  Co9      1.0000 0.53821  0.66044  0.16536  Biso   1.000  Co
  O33      1.0000 0.54061  0.58410  0.30966  Biso   1.000  O
  O34      1.0000 0.53512  0.67651  0.41590  Biso   1.000  O
  O35      1.0000 0.54113  0.58030  0.02899  Biso   1.000  O
  O36      1.0000 0.53875  0.67292  0.92580  Biso   1.000  O
  N25      1.0000 0.53553  0.26553  0.66330  Biso   1.000  N
  N26      1.0000 0.49755  0.64943  0.15770  Biso   1.000  N
  N27      1.0000 0.32914  0.57882  0.92970  Biso   1.000  N
  C201     1.0000 0.53583  0.47572  0.66590  Biso   1.000  C
  C202     1.0000 0.53577  0.51141  0.54510  Biso   1.000  C
  H153     1.0000 0.53500  0.48910  0.46120  Biso   1.000  H
  C203     1.0000 0.53683  0.57930  0.54780  Biso   1.000  C
  C204     1.0000 0.53774  0.61229  0.66870  Biso   1.000  C
  H154     1.0000 0.53820  0.65880  0.66990  Biso   1.000  H
  C205     1.0000 0.53796  0.57718  0.79000  Biso   1.000  C
  C206     1.0000 0.53686  0.50973  0.78760  Biso   1.000  C
  H155     1.0000 0.53680  0.48610  0.87020  Biso   1.000  H
  C207     1.0000 0.54519  0.30033  0.56060  Biso   1.000  C
  H156     1.0000 0.55210  0.27740  0.48570  Biso   1.000  H
  C208     1.0000 0.54556  0.36764  0.55860  Biso   1.000  C
  H157     1.0000 0.55290  0.38990  0.48370  Biso   1.000  H
  C209     1.0000 0.53542  0.40326  0.66450  Biso   1.000  C
  C210     1.0000 0.52534  0.36723  0.77080  Biso   1.000  C
  H158     1.0000 0.51830  0.38900  0.84690  Biso   1.000  H
  C211     1.0000 0.52562  0.29937  0.76560  Biso   1.000  C
  H159     1.0000 0.51830  0.27580  0.83870  Biso   1.000  H
  C212     1.0000 0.53752  0.61599  0.41650  Biso   1.000  C
  C213     1.0000 0.53942  0.61325  0.92190  Biso   1.000  C
  C214     1.0000 0.41669  0.61354  0.11430  Biso   1.000  C
  H160     1.0000 0.41010  0.59040  0.19490  Biso   1.000  H
  H161     1.0000 0.40780  0.65610  0.10790  Biso   1.000  H
  C215     1.0000 0.48761  0.58961  0.17660  Biso   1.000  C
  H162     1.0000 0.49890  0.55490  0.19970  Biso   1.000  H
  C216     1.0000 0.46195  0.57577  0.16430  Biso   1.000  C
  H163     1.0000 0.45590  0.53240  0.17770  Biso   1.000  H
  C217     1.0000 0.44497  0.62572  0.13220  Biso   1.000  C
  C218     1.0000 0.45516  0.68719  0.11160  Biso   1.000  C
  H164     1.0000 0.44430  0.72280  0.08920  Biso   1.000  H
  C219     1.0000 0.48121  0.69691  0.12360  Biso   1.000  C
  H165     1.0000 0.48780  0.73950  0.10670  Biso   1.000  H
  C220     1.0000 0.41075  0.57371  0.99100  Biso   1.000  C
  H166     1.0000 0.41700  0.52840  0.00370  Biso   1.000  H
  H167     1.0000 0.41970  0.59270  0.91200  Biso   1.000  H
  C221     1.0000 0.33957  0.54274  0.02560  Biso   1.000  C
  H168     1.0000 0.32860  0.51820  0.08270  Biso   1.000  H
  C222     1.0000 0.36579  0.53878  0.04740  Biso   1.000  C
  H169     1.0000 0.37230  0.51280  0.11920  Biso   1.000  H
  C223     1.0000 0.38234  0.57258  0.96490  Biso   1.000  C
  C224     1.0000 0.37158  0.60844  0.86400  Biso   1.000  C
  H170     1.0000 0.38210  0.63190  0.80290  Biso   1.000  H
  C225     1.0000 0.34520  0.61082  0.85010  Biso   1.000  C
  H171     1.0000 0.33830  0.63680  0.77960  Biso   1.000  H
  Co10     1.0000 0.53821  0.16044  0.66536  Biso   1.000  Co
  O37      1.0000 0.54061  0.08410  0.80966  Biso   1.000  O
  O38      1.0000 0.53512  0.17651  0.91590  Biso   1.000  O
  O39      1.0000 0.54113  0.08030  0.52899  Biso   1.000  O
  O40      1.0000 0.53875  0.17292  0.42580  Biso   1.000  O
  N28      1.0000 0.53553  0.76553  0.16330  Biso   1.000  N
  N29      1.0000 0.49755  0.14943  0.65770  Biso   1.000  N
  N30      1.0000 0.32914  0.07882  0.42970  Biso   1.000  N
  C226     1.0000 0.53583  0.97572  0.16590  Biso   1.000  C
  C227     1.0000 0.53577  0.01141  0.04510  Biso   1.000  C
  H172     1.0000 0.53500  0.98910  0.96120  Biso   1.000  H
  C228     1.0000 0.53683  0.07930  0.04780  Biso   1.000  C
  C229     1.0000 0.53774  0.11229  0.16870  Biso   1.000  C
  H173     1.0000 0.53820  0.15880  0.16990  Biso   1.000  H
  C230     1.0000 0.53796  0.07718  0.29000  Biso   1.000  C
  C231     1.0000 0.53686  0.00973  0.28760  Biso   1.000  C
  H174     1.0000 0.53680  0.98610  0.37020  Biso   1.000  H
  C232     1.0000 0.54519  0.80033  0.06060  Biso   1.000  C
  H175     1.0000 0.55210  0.77740  0.98570  Biso   1.000  H
  C233     1.0000 0.54556  0.86764  0.05860  Biso   1.000  C
  H176     1.0000 0.55290  0.88990  0.98370  Biso   1.000  H
  C234     1.0000 0.53542  0.90326  0.16450  Biso   1.000  C
  C235     1.0000 0.52534  0.86723  0.27080  Biso   1.000  C
  H177     1.0000 0.51830  0.88900  0.34690  Biso   1.000  H
  C236     1.0000 0.52562  0.79937  0.26560  Biso   1.000  C
  H178     1.0000 0.51830  0.77580  0.33870  Biso   1.000  H
  C237     1.0000 0.53752  0.11599  0.91650  Biso   1.000  C
  C238     1.0000 0.53942  0.11325  0.42190  Biso   1.000  C
  C239     1.0000 0.41669  0.11354  0.61430  Biso   1.000  C
  H179     1.0000 0.41010  0.09040  0.69490  Biso   1.000  H
  H180     1.0000 0.40780  0.15610  0.60790  Biso   1.000  H
  C240     1.0000 0.48761  0.08961  0.67660  Biso   1.000  C
  H181     1.0000 0.49890  0.05490  0.69970  Biso   1.000  H
  C241     1.0000 0.46195  0.07577  0.66430  Biso   1.000  C
  H182     1.0000 0.45590  0.03240  0.67770  Biso   1.000  H
  C242     1.0000 0.44497  0.12572  0.63220  Biso   1.000  C
  C243     1.0000 0.45516  0.18719  0.61160  Biso   1.000  C
  H183     1.0000 0.44430  0.22280  0.58920  Biso   1.000  H
  C244     1.0000 0.48121  0.19691  0.62360  Biso   1.000  C
  H184     1.0000 0.48780  0.23950  0.60670  Biso   1.000  H
  C245     1.0000 0.41075  0.07371  0.49100  Biso   1.000  C
  H185     1.0000 0.41700  0.02840  0.50370  Biso   1.000  H
  H186     1.0000 0.41970  0.09270  0.41200  Biso   1.000  H
  C246     1.0000 0.33957  0.04274  0.52560  Biso   1.000  C
  H187     1.0000 0.32860  0.01820  0.58270  Biso   1.000  H
  C247     1.0000 0.36579  0.03878  0.54740  Biso   1.000  C
  H188     1.0000 0.37230  0.01280  0.61920  Biso   1.000  H
  C248     1.0000 0.38234  0.07258  0.46490  Biso   1.000  C
  C249     1.0000 0.37158  0.10844  0.36400  Biso   1.000  C
  H189     1.0000 0.38210  0.13190  0.30290  Biso   1.000  H
  C250     1.0000 0.34520  0.11082  0.35010  Biso   1.000  C
  H190     1.0000 0.33830  0.13680  0.27960  Biso   1.000  H
  Co11     1.0000 0.03821  0.66044  0.66536  Biso   1.000  Co
  O41      1.0000 0.04061  0.58410  0.80966  Biso   1.000  O
  O42      1.0000 0.03512  0.67651  0.91590  Biso   1.000  O
  O43      1.0000 0.04113  0.58030  0.52899  Biso   1.000  O
  O44      1.0000 0.03875  0.67292  0.42580  Biso   1.000  O
  N31      1.0000 0.03553  0.26553  0.16330  Biso   1.000  N
  N32      1.0000 0.99755  0.64943  0.65770  Biso   1.000  N
  N33      1.0000 0.82914  0.57882  0.42970  Biso   1.000  N
  C251     1.0000 0.03583  0.47572  0.16590  Biso   1.000  C
  C252     1.0000 0.03577  0.51141  0.04510  Biso   1.000  C
  H191     1.0000 0.03500  0.48910  0.96120  Biso   1.000  H
  C253     1.0000 0.03683  0.57930  0.04780  Biso   1.000  C
  C254     1.0000 0.03774  0.61229  0.16870  Biso   1.000  C
  H192     1.0000 0.03820  0.65880  0.16990  Biso   1.000  H
  C255     1.0000 0.03796  0.57718  0.29000  Biso   1.000  C
  C256     1.0000 0.03686  0.50973  0.28760  Biso   1.000  C
  H193     1.0000 0.03680  0.48610  0.37020  Biso   1.000  H
  C257     1.0000 0.04519  0.30033  0.06060  Biso   1.000  C
  H194     1.0000 0.05210  0.27740  0.98570  Biso   1.000  H
  C258     1.0000 0.04556  0.36764  0.05860  Biso   1.000  C
  H195     1.0000 0.05290  0.38990  0.98370  Biso   1.000  H
  C259     1.0000 0.03542  0.40326  0.16450  Biso   1.000  C
  C260     1.0000 0.02534  0.36723  0.27080  Biso   1.000  C
  H196     1.0000 0.01830  0.38900  0.34690  Biso   1.000  H
  C261     1.0000 0.02562  0.29937  0.26560  Biso   1.000  C
  H197     1.0000 0.01830  0.27580  0.33870  Biso   1.000  H
  C262     1.0000 0.03752  0.61599  0.91650  Biso   1.000  C
  C263     1.0000 0.03942  0.61325  0.42190  Biso   1.000  C
  C264     1.0000 0.91669  0.61354  0.61430  Biso   1.000  C
  H198     1.0000 0.91010  0.59040  0.69490  Biso   1.000  H
  H199     1.0000 0.90780  0.65610  0.60790  Biso   1.000  H
  C265     1.0000 0.98761  0.58961  0.67660  Biso   1.000  C
  H200     1.0000 0.99890  0.55490  0.69970  Biso   1.000  H
  C266     1.0000 0.96195  0.57577  0.66430  Biso   1.000  C
  H201     1.0000 0.95590  0.53240  0.67770  Biso   1.000  H
  C267     1.0000 0.94497  0.62572  0.63220  Biso   1.000  C
  C268     1.0000 0.95516  0.68719  0.61160  Biso   1.000  C
  H202     1.0000 0.94430  0.72280  0.58920  Biso   1.000  H
  C269     1.0000 0.98121  0.69691  0.62360  Biso   1.000  C
  H203     1.0000 0.98780  0.73950  0.60670  Biso   1.000  H
  C270     1.0000 0.91075  0.57371  0.49100  Biso   1.000  C
  H204     1.0000 0.91700  0.52840  0.50370  Biso   1.000  H
  H205     1.0000 0.91970  0.59270  0.41200  Biso   1.000  H
  C271     1.0000 0.83957  0.54274  0.52560  Biso   1.000  C
  H206     1.0000 0.82860  0.51820  0.58270  Biso   1.000  H
  C272     1.0000 0.86579  0.53878  0.54740  Biso   1.000  C
  H207     1.0000 0.87230  0.51280  0.61920  Biso   1.000  H
  C273     1.0000 0.88234  0.57258  0.46490  Biso   1.000  C
  C274     1.0000 0.87158  0.60844  0.36400  Biso   1.000  C
  H208     1.0000 0.88210  0.63190  0.30290  Biso   1.000  H
  C275     1.0000 0.84520  0.61082  0.35010  Biso   1.000  C
  H209     1.0000 0.83830  0.63680  0.27960  Biso   1.000  H
  Co12     1.0000 0.03821  0.16044  0.16536  Biso   1.000  Co
  O45      1.0000 0.04061  0.08410  0.30966  Biso   1.000  O
  O46      1.0000 0.03512  0.17651  0.41590  Biso   1.000  O
  O47      1.0000 0.04113  0.08030  0.02899  Biso   1.000  O
  O48      1.0000 0.03875  0.17292  0.92580  Biso   1.000  O
  N34      1.0000 0.03553  0.76553  0.66330  Biso   1.000  N
  N35      1.0000 0.99755  0.14943  0.15770  Biso   1.000  N
  N36      1.0000 0.82914  0.07882  0.92970  Biso   1.000  N
  C276     1.0000 0.03583  0.97572  0.66590  Biso   1.000  C
  C277     1.0000 0.03577  0.01141  0.54510  Biso   1.000  C
  H210     1.0000 0.03500  0.98910  0.46120  Biso   1.000  H
  C278     1.0000 0.03683  0.07930  0.54780  Biso   1.000  C
  C279     1.0000 0.03774  0.11229  0.66870  Biso   1.000  C
  H211     1.0000 0.03820  0.15880  0.66990  Biso   1.000  H
  C280     1.0000 0.03796  0.07718  0.79000  Biso   1.000  C
  C281     1.0000 0.03686  0.00973  0.78760  Biso   1.000  C
  H212     1.0000 0.03680  0.98610  0.87020  Biso   1.000  H
  C282     1.0000 0.04519  0.80033  0.56060  Biso   1.000  C
  H213     1.0000 0.05210  0.77740  0.48570  Biso   1.000  H
  C283     1.0000 0.04556  0.86764  0.55860  Biso   1.000  C
  H214     1.0000 0.05290  0.88990  0.48370  Biso   1.000  H
  C284     1.0000 0.03542  0.90326  0.66450  Biso   1.000  C
  C285     1.0000 0.02534  0.86723  0.77080  Biso   1.000  C
  H215     1.0000 0.01830  0.88900  0.84690  Biso   1.000  H
  C286     1.0000 0.02562  0.79937  0.76560  Biso   1.000  C
  H216     1.0000 0.01830  0.77580  0.83870  Biso   1.000  H
  C287     1.0000 0.03752  0.11599  0.41650  Biso   1.000  C
  C288     1.0000 0.03942  0.11325  0.92190  Biso   1.000  C
  C289     1.0000 0.91669  0.11354  0.11430  Biso   1.000  C
  H217     1.0000 0.91010  0.09040  0.19490  Biso   1.000  H
  H218     1.0000 0.90780  0.15610  0.10790  Biso   1.000  H
  C290     1.0000 0.98761  0.08961  0.17660  Biso   1.000  C
  H219     1.0000 0.99890  0.05490  0.19970  Biso   1.000  H
  C291     1.0000 0.96195  0.07577  0.16430  Biso   1.000  C
  H220     1.0000 0.95590  0.03240  0.17770  Biso   1.000  H
  C292     1.0000 0.94497  0.12572  0.13220  Biso   1.000  C
  C293     1.0000 0.95516  0.18719  0.11160  Biso   1.000  C
  H221     1.0000 0.94430  0.22280  0.08920  Biso   1.000  H
  C294     1.0000 0.98121  0.19691  0.12360  Biso   1.000  C
  H222     1.0000 0.98780  0.23950  0.10670  Biso   1.000  H
  C295     1.0000 0.91075  0.07371  0.99100  Biso   1.000  C
  H223     1.0000 0.91700  0.02840  0.00370  Biso   1.000  H
  H224     1.0000 0.91970  0.09270  0.91200  Biso   1.000  H
  C296     1.0000 0.83957  0.04274  0.02560  Biso   1.000  C
  H225     1.0000 0.82860  0.01820  0.08270  Biso   1.000  H
  C297     1.0000 0.86579  0.03878  0.04740  Biso   1.000  C
  H226     1.0000 0.87230  0.01280  0.11920  Biso   1.000  H
  C298     1.0000 0.88234  0.07258  0.96490  Biso   1.000  C
  C299     1.0000 0.87158  0.10844  0.86400  Biso   1.000  C
  H227     1.0000 0.88210  0.13190  0.80290  Biso   1.000  H
  C300     1.0000 0.84520  0.11082  0.85010  Biso   1.000  C
  H228     1.0000 0.83830  0.13680  0.77960  Biso   1.000  H
  Co13     1.0000 0.78821  0.58956  0.41536  Biso   1.000  Co
  O49      1.0000 0.79061  0.66590  0.55966  Biso   1.000  O
  O50      1.0000 0.78512  0.57349  0.66590  Biso   1.000  O
  O51      1.0000 0.79113  0.66970  0.27899  Biso   1.000  O
  O52      1.0000 0.78875  0.57708  0.17580  Biso   1.000  O
  N37      1.0000 0.78553  0.98447  0.91330  Biso   1.000  N
  N38      1.0000 0.74755  0.60057  0.40770  Biso   1.000  N
  N39      1.0000 0.57914  0.67118  0.17970  Biso   1.000  N
  C301     1.0000 0.78583  0.77428  0.91590  Biso   1.000  C
  C302     1.0000 0.78577  0.73859  0.79510  Biso   1.000  C
  H229     1.0000 0.78500  0.76090  0.71120  Biso   1.000  H
  C303     1.0000 0.78683  0.67070  0.79780  Biso   1.000  C
  C304     1.0000 0.78774  0.63771  0.91870  Biso   1.000  C
  H230     1.0000 0.78820  0.59120  0.91990  Biso   1.000  H
  C305     1.0000 0.78796  0.67282  0.04000  Biso   1.000  C
  C306     1.0000 0.78686  0.74027  0.03760  Biso   1.000  C
  H231     1.0000 0.78680  0.76390  0.12020  Biso   1.000  H
  C307     1.0000 0.79519  0.94967  0.81060  Biso   1.000  C
  H232     1.0000 0.80210  0.97260  0.73570  Biso   1.000  H
  C308     1.0000 0.79556  0.88236  0.80860  Biso   1.000  C
  H233     1.0000 0.80290  0.86010  0.73370  Biso   1.000  H
  C309     1.0000 0.78542  0.84674  0.91450  Biso   1.000  C
  C310     1.0000 0.77534  0.88277  0.02080  Biso   1.000  C
  H234     1.0000 0.76830  0.86100  0.09690  Biso   1.000  H
  C311     1.0000 0.77562  0.95063  0.01560  Biso   1.000  C
  H235     1.0000 0.76830  0.97420  0.08870  Biso   1.000  H
  C312     1.0000 0.78752  0.63401  0.66650  Biso   1.000  C
  C313     1.0000 0.78942  0.63675  0.17190  Biso   1.000  C
  C314     1.0000 0.66669  0.63646  0.36430  Biso   1.000  C
  H236     1.0000 0.66010  0.65960  0.44490  Biso   1.000  H
  H237     1.0000 0.65780  0.59390  0.35790  Biso   1.000  H
  C315     1.0000 0.73761  0.66039  0.42660  Biso   1.000  C
  H238     1.0000 0.74890  0.69510  0.44970  Biso   1.000  H
  C316     1.0000 0.71195  0.67423  0.41430  Biso   1.000  C
  H239     1.0000 0.70590  0.71760  0.42770  Biso   1.000  H
  C317     1.0000 0.69497  0.62428  0.38220  Biso   1.000  C
  C318     1.0000 0.70516  0.56281  0.36160  Biso   1.000  C
  H240     1.0000 0.69430  0.52720  0.33920  Biso   1.000  H
  C319     1.0000 0.73121  0.55309  0.37360  Biso   1.000  C
  H241     1.0000 0.73780  0.51050  0.35670  Biso   1.000  H
  C320     1.0000 0.66075  0.67629  0.24100  Biso   1.000  C
  H242     1.0000 0.66700  0.72160  0.25370  Biso   1.000  H
  H243     1.0000 0.66970  0.65730  0.16200  Biso   1.000  H
  C321     1.0000 0.58957  0.70726  0.27560  Biso   1.000  C
  H244     1.0000 0.57860  0.73180  0.33270  Biso   1.000  H
  C322     1.0000 0.61579  0.71122  0.29740  Biso   1.000  C
  H245     1.0000 0.62230  0.73720  0.36920  Biso   1.000  H
  C323     1.0000 0.63234  0.67742  0.21490  Biso   1.000  C
  C324     1.0000 0.62158  0.64156  0.11400  Biso   1.000  C
  H246     1.0000 0.63210  0.61810  0.05290  Biso   1.000  H
  C325     1.0000 0.59520  0.63918  0.10010  Biso   1.000  C
  H247     1.0000 0.58830  0.61320  0.02960  Biso   1.000  H
  Co14     1.0000 0.78821  0.08956  0.91536  Biso   1.000  Co
  O53      1.0000 0.79061  0.16590  0.05966  Biso   1.000  O
  O54      1.0000 0.78512  0.07349  0.16590  Biso   1.000  O
  O55      1.0000 0.79113  0.16970  0.77899  Biso   1.000  O
  O56      1.0000 0.78875  0.07708  0.67580  Biso   1.000  O
  N40      1.0000 0.78553  0.48447  0.41330  Biso   1.000  N
  N41      1.0000 0.74755  0.10057  0.90770  Biso   1.000  N
  N42      1.0000 0.57914  0.17118  0.67970  Biso   1.000  N
  C326     1.0000 0.78583  0.27428  0.41590  Biso   1.000  C
  C327     1.0000 0.78577  0.23859  0.29510  Biso   1.000  C
  H248     1.0000 0.78500  0.26090  0.21120  Biso   1.000  H
  C328     1.0000 0.78683  0.17070  0.29780  Biso   1.000  C
  C329     1.0000 0.78774  0.13771  0.41870  Biso   1.000  C
  H249     1.0000 0.78820  0.09120  0.41990  Biso   1.000  H
  C330     1.0000 0.78796  0.17282  0.54000  Biso   1.000  C
  C331     1.0000 0.78686  0.24027  0.53760  Biso   1.000  C
  H250     1.0000 0.78680  0.26390  0.62020  Biso   1.000  H
  C332     1.0000 0.79519  0.44967  0.31060  Biso   1.000  C
  H251     1.0000 0.80210  0.47260  0.23570  Biso   1.000  H
  C333     1.0000 0.79556  0.38236  0.30860  Biso   1.000  C
  H252     1.0000 0.80290  0.36010  0.23370  Biso   1.000  H
  C334     1.0000 0.78542  0.34674  0.41450  Biso   1.000  C
  C335     1.0000 0.77534  0.38277  0.52080  Biso   1.000  C
  H253     1.0000 0.76830  0.36100  0.59690  Biso   1.000  H
  C336     1.0000 0.77562  0.45063  0.51560  Biso   1.000  C
  H254     1.0000 0.76830  0.47420  0.58870  Biso   1.000  H
  C337     1.0000 0.78752  0.13401  0.16650  Biso   1.000  C
  C338     1.0000 0.78942  0.13675  0.67190  Biso   1.000  C
  C339     1.0000 0.66669  0.13646  0.86430  Biso   1.000  C
  H255     1.0000 0.66010  0.15960  0.94490  Biso   1.000  H
  H256     1.0000 0.65780  0.09390  0.85790  Biso   1.000  H
  C340     1.0000 0.73761  0.16039  0.92660  Biso   1.000  C
  H257     1.0000 0.74890  0.19510  0.94970  Biso   1.000  H
  C341     1.0000 0.71195  0.17423  0.91430  Biso   1.000  C
  H258     1.0000 0.70590  0.21760  0.92770  Biso   1.000  H
  C342     1.0000 0.69497  0.12428  0.88220  Biso   1.000  C
  C343     1.0000 0.70516  0.06281  0.86160  Biso   1.000  C
  H259     1.0000 0.69430  0.02720  0.83920  Biso   1.000  H
  C344     1.0000 0.73121  0.05309  0.87360  Biso   1.000  C
  H260     1.0000 0.73780  0.01050  0.85670  Biso   1.000  H
  C345     1.0000 0.66075  0.17629  0.74100  Biso   1.000  C
  H261     1.0000 0.66700  0.22160  0.75370  Biso   1.000  H
  H262     1.0000 0.66970  0.15730  0.66200  Biso   1.000  H
  C346     1.0000 0.58957  0.20726  0.77560  Biso   1.000  C
  H263     1.0000 0.57860  0.23180  0.83270  Biso   1.000  H
  C347     1.0000 0.61579  0.21122  0.79740  Biso   1.000  C
  H264     1.0000 0.62230  0.23720  0.86920  Biso   1.000  H
  C348     1.0000 0.63234  0.17742  0.71490  Biso   1.000  C
  C349     1.0000 0.62158  0.14156  0.61400  Biso   1.000  C
  H265     1.0000 0.63210  0.11810  0.55290  Biso   1.000  H
  C350     1.0000 0.59520  0.13918  0.60010  Biso   1.000  C
  H266     1.0000 0.58830  0.11320  0.52960  Biso   1.000  H
  Co15     1.0000 0.28821  0.58956  0.91536  Biso   1.000  Co
  O57      1.0000 0.29061  0.66590  0.05966  Biso   1.000  O
  O58      1.0000 0.28512  0.57349  0.16590  Biso   1.000  O
  O59      1.0000 0.29113  0.66970  0.77899  Biso   1.000  O
  O60      1.0000 0.28875  0.57708  0.67580  Biso   1.000  O
  N43      1.0000 0.28553  0.98447  0.41330  Biso   1.000  N
  N44      1.0000 0.24755  0.60057  0.90770  Biso   1.000  N
  N45      1.0000 0.07914  0.67118  0.67970  Biso   1.000  N
  C351     1.0000 0.28583  0.77428  0.41590  Biso   1.000  C
  C352     1.0000 0.28577  0.73859  0.29510  Biso   1.000  C
  H267     1.0000 0.28500  0.76090  0.21120  Biso   1.000  H
  C353     1.0000 0.28683  0.67070  0.29780  Biso   1.000  C
  C354     1.0000 0.28774  0.63771  0.41870  Biso   1.000  C
  H268     1.0000 0.28820  0.59120  0.41990  Biso   1.000  H
  C355     1.0000 0.28796  0.67282  0.54000  Biso   1.000  C
  C356     1.0000 0.28686  0.74027  0.53760  Biso   1.000  C
  H269     1.0000 0.28680  0.76390  0.62020  Biso   1.000  H
  C357     1.0000 0.29519  0.94967  0.31060  Biso   1.000  C
  H270     1.0000 0.30210  0.97260  0.23570  Biso   1.000  H
  C358     1.0000 0.29556  0.88236  0.30860  Biso   1.000  C
  H271     1.0000 0.30290  0.86010  0.23370  Biso   1.000  H
  C359     1.0000 0.28542  0.84674  0.41450  Biso   1.000  C
  C360     1.0000 0.27534  0.88277  0.52080  Biso   1.000  C
  H272     1.0000 0.26830  0.86100  0.59690  Biso   1.000  H
  C361     1.0000 0.27562  0.95063  0.51560  Biso   1.000  C
  H273     1.0000 0.26830  0.97420  0.58870  Biso   1.000  H
  C362     1.0000 0.28752  0.63401  0.16650  Biso   1.000  C
  C363     1.0000 0.28942  0.63675  0.67190  Biso   1.000  C
  C364     1.0000 0.16669  0.63646  0.86430  Biso   1.000  C
  H274     1.0000 0.16010  0.65960  0.94490  Biso   1.000  H
  H275     1.0000 0.15780  0.59390  0.85790  Biso   1.000  H
  C365     1.0000 0.23761  0.66039  0.92660  Biso   1.000  C
  H276     1.0000 0.24890  0.69510  0.94970  Biso   1.000  H
  C366     1.0000 0.21195  0.67423  0.91430  Biso   1.000  C
  H277     1.0000 0.20590  0.71760  0.92770  Biso   1.000  H
  C367     1.0000 0.19497  0.62428  0.88220  Biso   1.000  C
  C368     1.0000 0.20516  0.56281  0.86160  Biso   1.000  C
  H278     1.0000 0.19430  0.52720  0.83920  Biso   1.000  H
  C369     1.0000 0.23121  0.55309  0.87360  Biso   1.000  C
  H279     1.0000 0.23780  0.51050  0.85670  Biso   1.000  H
  C370     1.0000 0.16075  0.67629  0.74100  Biso   1.000  C
  H280     1.0000 0.16700  0.72160  0.75370  Biso   1.000  H
  H281     1.0000 0.16970  0.65730  0.66200  Biso   1.000  H
  C371     1.0000 0.08957  0.70726  0.77560  Biso   1.000  C
  H282     1.0000 0.07860  0.73180  0.83270  Biso   1.000  H
  C372     1.0000 0.11579  0.71122  0.79740  Biso   1.000  C
  H283     1.0000 0.12230  0.73720  0.86920  Biso   1.000  H
  C373     1.0000 0.13234  0.67742  0.71490  Biso   1.000  C
  C374     1.0000 0.12158  0.64156  0.61400  Biso   1.000  C
  H284     1.0000 0.13210  0.61810  0.55290  Biso   1.000  H
  C375     1.0000 0.09520  0.63918  0.60010  Biso   1.000  C
  H285     1.0000 0.08830  0.61320  0.52960  Biso   1.000  H
  Co16     1.0000 0.28821  0.08956  0.41536  Biso   1.000  Co
  O61      1.0000 0.29061  0.16590  0.55966  Biso   1.000  O
  O62      1.0000 0.28512  0.07349  0.66590  Biso   1.000  O
  O63      1.0000 0.29113  0.16970  0.27899  Biso   1.000  O
  O64      1.0000 0.28875  0.07708  0.17580  Biso   1.000  O
  N46      1.0000 0.28553  0.48447  0.91330  Biso   1.000  N
  N47      1.0000 0.24755  0.10057  0.40770  Biso   1.000  N
  N48      1.0000 0.07914  0.17118  0.17970  Biso   1.000  N
  C376     1.0000 0.28583  0.27428  0.91590  Biso   1.000  C
  C377     1.0000 0.28577  0.23859  0.79510  Biso   1.000  C
  H286     1.0000 0.28500  0.26090  0.71120  Biso   1.000  H
  C378     1.0000 0.28683  0.17070  0.79780  Biso   1.000  C
  C379     1.0000 0.28774  0.13771  0.91870  Biso   1.000  C
  H287     1.0000 0.28820  0.09120  0.91990  Biso   1.000  H
  C380     1.0000 0.28796  0.17282  0.04000  Biso   1.000  C
  C381     1.0000 0.28686  0.24027  0.03760  Biso   1.000  C
  H288     1.0000 0.28680  0.26390  0.12020  Biso   1.000  H
  C382     1.0000 0.29519  0.44967  0.81060  Biso   1.000  C
  H289     1.0000 0.30210  0.47260  0.73570  Biso   1.000  H
  C383     1.0000 0.29556  0.38236  0.80860  Biso   1.000  C
  H290     1.0000 0.30290  0.36010  0.73370  Biso   1.000  H
  C384     1.0000 0.28542  0.34674  0.91450  Biso   1.000  C
  C385     1.0000 0.27534  0.38277  0.02080  Biso   1.000  C
  H291     1.0000 0.26830  0.36100  0.09690  Biso   1.000  H
  C386     1.0000 0.27562  0.45063  0.01560  Biso   1.000  C
  H292     1.0000 0.26830  0.47420  0.08870  Biso   1.000  H
  C387     1.0000 0.28752  0.13401  0.66650  Biso   1.000  C
  C388     1.0000 0.28942  0.13675  0.17190  Biso   1.000  C
  C389     1.0000 0.16669  0.13646  0.36430  Biso   1.000  C
  H293     1.0000 0.16010  0.15960  0.44490  Biso   1.000  H
  H294     1.0000 0.15780  0.09390  0.35790  Biso   1.000  H
  C390     1.0000 0.23761  0.16039  0.42660  Biso   1.000  C
  H295     1.0000 0.24890  0.19510  0.44970  Biso   1.000  H
  C391     1.0000 0.21195  0.17423  0.41430  Biso   1.000  C
  H296     1.0000 0.20590  0.21760  0.42770  Biso   1.000  H
  C392     1.0000 0.19497  0.12428  0.38220  Biso   1.000  C
  C393     1.0000 0.20516  0.06281  0.36160  Biso   1.000  C
  H297     1.0000 0.19430  0.02720  0.33920  Biso   1.000  H
  C394     1.0000 0.23121  0.05309  0.37360  Biso   1.000  C
  H298     1.0000 0.23780  0.01050  0.35670  Biso   1.000  H
  C395     1.0000 0.16075  0.17629  0.24100  Biso   1.000  C
  H299     1.0000 0.16700  0.22160  0.25370  Biso   1.000  H
  H300     1.0000 0.16970  0.15730  0.16200  Biso   1.000  H
  C396     1.0000 0.08957  0.20726  0.27560  Biso   1.000  C
  H301     1.0000 0.07860  0.23180  0.33270  Biso   1.000  H
  C397     1.0000 0.11579  0.21122  0.29740  Biso   1.000  C
  H302     1.0000 0.12230  0.23720  0.36920  Biso   1.000  H
  C398     1.0000 0.13234  0.17742  0.21490  Biso   1.000  C
  C399     1.0000 0.12158  0.14156  0.11400  Biso   1.000  C
  H303     1.0000 0.13210  0.11810  0.05290  Biso   1.000  H
  C400     1.0000 0.09520  0.13918  0.10010  Biso   1.000  C
  H304     1.0000 0.08830  0.11320  0.02960  Biso   1.000  H
