data_REWLEM_clean_h
_audit_creation_date              2014-07-02
_audit_creation_method            'Materials Studio'
_symmetry_space_group_name_H-M    'P1'
_symmetry_Int_Tables_number       1
_symmetry_cell_setting            triclinic
loop_
_symmetry_equiv_pos_as_xyz
  x,y,z
_cell_length_a                    18.5837
_cell_length_b                    18.5837
_cell_length_c                    53.1350
_cell_angle_alpha                 90.0000
_cell_angle_beta                  90.0000
_cell_angle_gamma                 90.0000
loop_
_atom_site_label
_atom_site_type_symbol
_atom_site_fract_x
_atom_site_fract_y
_atom_site_fract_z
_atom_site_U_iso_or_equiv
_atom_site_adp_type
_atom_site_occupancy
H1     H     0.27713   0.59836   0.41303   0.00000  Uiso   1.00
N2     N     0.22050   0.55450   0.47303   0.00000  Uiso   1.00
C3     C     0.22230   0.54210   0.44677   0.00000  Uiso   1.00
C4     C     0.21270   0.42840   0.39456   0.00000  Uiso   1.00
C5     C     0.21150   0.43010   0.36745   0.00000  Uiso   1.00
C6     C     0.21780   0.48380   0.32638   0.00000  Uiso   1.00
C7     C     0.22560   0.54940   0.31316   0.00000  Uiso   1.00
H8     H     0.22392   0.60268   0.32378   0.00000  Uiso   1.00
C9     C     0.23540   0.55050   0.28717   0.00000  Uiso   1.00
C10    C     0.23550   0.48710   0.27413   0.00000  Uiso   1.00
H11    H     0.24634   0.48704   0.25301   0.00000  Uiso   1.00
C12    C     0.22260   0.42270   0.28619   0.00000  Uiso   1.00
C13    C     0.21600   0.42110   0.31244   0.00000  Uiso   1.00
H14    H     0.20903   0.36752   0.32260   0.00000  Uiso   1.00
C15    C     0.22320   0.35280   0.27255   0.00000  Uiso   1.00
C16    C     0.24500   0.61930   0.27475   0.00000  Uiso   1.00
O17    O     0.25170   0.35555   0.25007   0.00000  Uiso   1.00
O18    O     0.19560   0.29860   0.28269   0.00000  Uiso   1.00
O19    O     0.22260   0.67480   0.28524   0.00000  Uiso   1.00
O20    O     0.27590   0.61890   0.25311   0.00000  Uiso   1.00
H21    H     0.10057   0.37100   0.41454   0.00000  Uiso   1.00
H22    H     0.13259   0.58885   0.40213   0.00000  Uiso   1.00
H23    H     0.14907   0.59202   0.35497   0.00000  Uiso   1.00
N24    N     0.13620   0.43200   0.47250   0.00000  Uiso   1.00
C25    C     0.18490   0.49250   0.43580   0.00000  Uiso   1.00
C26    C     0.14710   0.43840   0.44640   0.00000  Uiso   1.00
C27    C     0.10400   0.37860   0.43580   0.00000  Uiso   1.00
C28    C     0.07750   0.34510   0.45280   0.00000  Uiso   1.00
C29    C     0.08630   0.36140   0.47560   0.00000  Uiso   1.00
C30    C     0.19460   0.48730   0.40681   0.00000  Uiso   1.00
C31    C     0.16280   0.54340   0.39233   0.00000  Uiso   1.00
C32    C     0.26780   0.61580   0.47730   0.00000  Uiso   1.00
C33    C     0.29240   0.63980   0.45230   0.00000  Uiso   1.00
C34    C     0.26920   0.59890   0.43430   0.00000  Uiso   1.00
C35    C     0.16820   0.54340   0.36621   0.00000  Uiso   1.00
C36    C     0.19530   0.48780   0.35380   0.00000  Uiso   1.00
H37    H     0.22900   0.37703   0.40481   0.00000  Uiso   1.00
H38    H     0.22507   0.37955   0.35626   0.00000  Uiso   1.00
H39    H     0.72287   0.40164   0.41303   0.00000  Uiso   1.00
N40    N     0.77950   0.44550   0.47303   0.00000  Uiso   1.00
C41    C     0.77770   0.45790   0.44677   0.00000  Uiso   1.00
C42    C     0.78730   0.57160   0.39456   0.00000  Uiso   1.00
C43    C     0.78850   0.56990   0.36745   0.00000  Uiso   1.00
C44    C     0.78220   0.51620   0.32638   0.00000  Uiso   1.00
C45    C     0.77440   0.45060   0.31316   0.00000  Uiso   1.00
H46    H     0.77608   0.39732   0.32378   0.00000  Uiso   1.00
C47    C     0.76460   0.44950   0.28717   0.00000  Uiso   1.00
C48    C     0.76450   0.51290   0.27413   0.00000  Uiso   1.00
H49    H     0.75366   0.51296   0.25301   0.00000  Uiso   1.00
C50    C     0.77740   0.57730   0.28619   0.00000  Uiso   1.00
C51    C     0.78400   0.57890   0.31244   0.00000  Uiso   1.00
H52    H     0.79097   0.63248   0.32260   0.00000  Uiso   1.00
C53    C     0.77680   0.64720   0.27255   0.00000  Uiso   1.00
C54    C     0.75500   0.38070   0.27475   0.00000  Uiso   1.00
O55    O     0.74830   0.64445   0.25007   0.00000  Uiso   1.00
O56    O     0.80440   0.70140   0.28269   0.00000  Uiso   1.00
O57    O     0.77740   0.32520   0.28524   0.00000  Uiso   1.00
O58    O     0.72410   0.38110   0.25311   0.00000  Uiso   1.00
H59    H     0.89943   0.62900   0.41454   0.00000  Uiso   1.00
H60    H     0.86741   0.41115   0.40213   0.00000  Uiso   1.00
H61    H     0.85093   0.40798   0.35497   0.00000  Uiso   1.00
N62    N     0.86380   0.56800   0.47250   0.00000  Uiso   1.00
C63    C     0.81510   0.50750   0.43580   0.00000  Uiso   1.00
C64    C     0.85290   0.56160   0.44640   0.00000  Uiso   1.00
C65    C     0.89600   0.62140   0.43580   0.00000  Uiso   1.00
C66    C     0.92250   0.65490   0.45280   0.00000  Uiso   1.00
C67    C     0.91370   0.63860   0.47560   0.00000  Uiso   1.00
C68    C     0.80540   0.51270   0.40681   0.00000  Uiso   1.00
C69    C     0.83720   0.45660   0.39233   0.00000  Uiso   1.00
C70    C     0.73220   0.38420   0.47730   0.00000  Uiso   1.00
C71    C     0.70760   0.36020   0.45230   0.00000  Uiso   1.00
C72    C     0.73080   0.40110   0.43430   0.00000  Uiso   1.00
C73    C     0.83180   0.45660   0.36621   0.00000  Uiso   1.00
C74    C     0.80470   0.51220   0.35380   0.00000  Uiso   1.00
H75    H     0.77100   0.62297   0.40481   0.00000  Uiso   1.00
H76    H     0.77493   0.62045   0.35626   0.00000  Uiso   1.00
H77    H     0.90164   0.77713   0.91303   0.00000  Uiso   1.00
N78    N     0.94550   0.72050   0.97303   0.00000  Uiso   1.00
C79    C     0.95790   0.72230   0.94677   0.00000  Uiso   1.00
C80    C     0.07160   0.71270   0.89456   0.00000  Uiso   1.00
C81    C     0.06990   0.71150   0.86745   0.00000  Uiso   1.00
C82    C     0.01620   0.71780   0.82638   0.00000  Uiso   1.00
C83    C     0.95060   0.72560   0.81316   0.00000  Uiso   1.00
H84    H     0.89732   0.72392   0.82378   0.00000  Uiso   1.00
C85    C     0.94950   0.73540   0.78717   0.00000  Uiso   1.00
C86    C     0.01290   0.73550   0.77413   0.00000  Uiso   1.00
H87    H     0.01296   0.74634   0.75301   0.00000  Uiso   1.00
C88    C     0.07730   0.72260   0.78619   0.00000  Uiso   1.00
C89    C     0.07890   0.71600   0.81244   0.00000  Uiso   1.00
H90    H     0.13248   0.70903   0.82260   0.00000  Uiso   1.00
C91    C     0.14720   0.72320   0.77255   0.00000  Uiso   1.00
C92    C     0.88070   0.74500   0.77475   0.00000  Uiso   1.00
O93    O     0.14445   0.75170   0.75007   0.00000  Uiso   1.00
O94    O     0.20140   0.69560   0.78269   0.00000  Uiso   1.00
O95    O     0.82520   0.72260   0.78524   0.00000  Uiso   1.00
O96    O     0.88110   0.77590   0.75311   0.00000  Uiso   1.00
H97    H     0.12900   0.60057   0.91454   0.00000  Uiso   1.00
H98    H     0.91115   0.63259   0.90213   0.00000  Uiso   1.00
H99    H     0.90798   0.64907   0.85497   0.00000  Uiso   1.00
N100   N     0.06800   0.63620   0.97250   0.00000  Uiso   1.00
C101   C     0.00750   0.68490   0.93580   0.00000  Uiso   1.00
C102   C     0.06160   0.64710   0.94640   0.00000  Uiso   1.00
C103   C     0.12140   0.60400   0.93580   0.00000  Uiso   1.00
C104   C     0.15490   0.57750   0.95280   0.00000  Uiso   1.00
C105   C     0.13860   0.58630   0.97560   0.00000  Uiso   1.00
C106   C     0.01270   0.69460   0.90681   0.00000  Uiso   1.00
C107   C     0.95660   0.66280   0.89233   0.00000  Uiso   1.00
C108   C     0.88420   0.76780   0.97730   0.00000  Uiso   1.00
C109   C     0.86020   0.79240   0.95230   0.00000  Uiso   1.00
C110   C     0.90110   0.76920   0.93430   0.00000  Uiso   1.00
C111   C     0.95660   0.66820   0.86621   0.00000  Uiso   1.00
C112   C     0.01220   0.69530   0.85380   0.00000  Uiso   1.00
H113   H     0.12297   0.72900   0.90481   0.00000  Uiso   1.00
H114   H     0.12045   0.72507   0.85626   0.00000  Uiso   1.00
H115   H     0.09836   0.22287   0.91303   0.00000  Uiso   1.00
N116   N     0.05450   0.27950   0.97303   0.00000  Uiso   1.00
C117   C     0.04210   0.27770   0.94677   0.00000  Uiso   1.00
C118   C     0.92840   0.28730   0.89456   0.00000  Uiso   1.00
C119   C     0.93010   0.28850   0.86745   0.00000  Uiso   1.00
C120   C     0.98380   0.28220   0.82638   0.00000  Uiso   1.00
C121   C     0.04940   0.27440   0.81316   0.00000  Uiso   1.00
H122   H     0.10268   0.27608   0.82378   0.00000  Uiso   1.00
C123   C     0.05050   0.26460   0.78717   0.00000  Uiso   1.00
C124   C     0.98710   0.26450   0.77413   0.00000  Uiso   1.00
H125   H     0.98704   0.25366   0.75301   0.00000  Uiso   1.00
C126   C     0.92270   0.27740   0.78619   0.00000  Uiso   1.00
C127   C     0.92110   0.28400   0.81244   0.00000  Uiso   1.00
H128   H     0.86752   0.29097   0.82260   0.00000  Uiso   1.00
C129   C     0.85280   0.27680   0.77255   0.00000  Uiso   1.00
C130   C     0.11930   0.25500   0.77475   0.00000  Uiso   1.00
O131   O     0.85555   0.24830   0.75007   0.00000  Uiso   1.00
O132   O     0.79860   0.30440   0.78269   0.00000  Uiso   1.00
O133   O     0.17480   0.27740   0.78524   0.00000  Uiso   1.00
O134   O     0.11890   0.22410   0.75311   0.00000  Uiso   1.00
H135   H     0.87100   0.39943   0.91454   0.00000  Uiso   1.00
H136   H     0.08885   0.36741   0.90213   0.00000  Uiso   1.00
H137   H     0.09202   0.35093   0.85497   0.00000  Uiso   1.00
N138   N     0.93200   0.36380   0.97250   0.00000  Uiso   1.00
C139   C     0.99250   0.31510   0.93580   0.00000  Uiso   1.00
C140   C     0.93840   0.35290   0.94640   0.00000  Uiso   1.00
C141   C     0.87860   0.39600   0.93580   0.00000  Uiso   1.00
C142   C     0.84510   0.42250   0.95280   0.00000  Uiso   1.00
C143   C     0.86140   0.41370   0.97560   0.00000  Uiso   1.00
C144   C     0.98730   0.30540   0.90681   0.00000  Uiso   1.00
C145   C     0.04340   0.33720   0.89233   0.00000  Uiso   1.00
C146   C     0.11580   0.23220   0.97730   0.00000  Uiso   1.00
C147   C     0.13980   0.20760   0.95230   0.00000  Uiso   1.00
C148   C     0.09890   0.23080   0.93430   0.00000  Uiso   1.00
C149   C     0.04340   0.33180   0.86621   0.00000  Uiso   1.00
C150   C     0.98780   0.30470   0.85380   0.00000  Uiso   1.00
H151   H     0.87703   0.27100   0.90481   0.00000  Uiso   1.00
H152   H     0.87955   0.27493   0.85626   0.00000  Uiso   1.00
H153   H     0.22287   0.09836   0.08697   0.00000  Uiso   1.00
N154   N     0.27950   0.05450   0.02697   0.00000  Uiso   1.00
C155   C     0.27770   0.04210   0.05323   0.00000  Uiso   1.00
C156   C     0.28730   0.92840   0.10544   0.00000  Uiso   1.00
C157   C     0.28850   0.93010   0.13255   0.00000  Uiso   1.00
C158   C     0.28220   0.98380   0.17362   0.00000  Uiso   1.00
C159   C     0.27440   0.04940   0.18684   0.00000  Uiso   1.00
H160   H     0.27608   0.10268   0.17622   0.00000  Uiso   1.00
C161   C     0.26460   0.05050   0.21283   0.00000  Uiso   1.00
C162   C     0.26450   0.98710   0.22587   0.00000  Uiso   1.00
H163   H     0.25366   0.98704   0.24699   0.00000  Uiso   1.00
C164   C     0.27740   0.92270   0.21381   0.00000  Uiso   1.00
C165   C     0.28400   0.92110   0.18756   0.00000  Uiso   1.00
H166   H     0.29097   0.86752   0.17740   0.00000  Uiso   1.00
C167   C     0.27680   0.85280   0.22745   0.00000  Uiso   1.00
C168   C     0.25500   0.11930   0.22525   0.00000  Uiso   1.00
O169   O     0.24830   0.85555   0.24993   0.00000  Uiso   1.00
O170   O     0.30440   0.79860   0.21731   0.00000  Uiso   1.00
O171   O     0.27740   0.17480   0.21476   0.00000  Uiso   1.00
O172   O     0.22410   0.11890   0.24689   0.00000  Uiso   1.00
H173   H     0.39943   0.87100   0.08546   0.00000  Uiso   1.00
H174   H     0.36741   0.08885   0.09787   0.00000  Uiso   1.00
H175   H     0.35093   0.09202   0.14503   0.00000  Uiso   1.00
N176   N     0.36380   0.93200   0.02750   0.00000  Uiso   1.00
C177   C     0.31510   0.99250   0.06420   0.00000  Uiso   1.00
C178   C     0.35290   0.93840   0.05360   0.00000  Uiso   1.00
C179   C     0.39600   0.87860   0.06420   0.00000  Uiso   1.00
C180   C     0.42250   0.84510   0.04720   0.00000  Uiso   1.00
C181   C     0.41370   0.86140   0.02440   0.00000  Uiso   1.00
C182   C     0.30540   0.98730   0.09319   0.00000  Uiso   1.00
C183   C     0.33720   0.04340   0.10767   0.00000  Uiso   1.00
C184   C     0.23220   0.11580   0.02270   0.00000  Uiso   1.00
C185   C     0.20760   0.13980   0.04770   0.00000  Uiso   1.00
C186   C     0.23080   0.09890   0.06570   0.00000  Uiso   1.00
C187   C     0.33180   0.04340   0.13379   0.00000  Uiso   1.00
C188   C     0.30470   0.98780   0.14620   0.00000  Uiso   1.00
H189   H     0.27100   0.87703   0.09519   0.00000  Uiso   1.00
H190   H     0.27493   0.87955   0.14374   0.00000  Uiso   1.00
H191   H     0.77713   0.90164   0.08697   0.00000  Uiso   1.00
N192   N     0.72050   0.94550   0.02697   0.00000  Uiso   1.00
C193   C     0.72230   0.95790   0.05323   0.00000  Uiso   1.00
C194   C     0.71270   0.07160   0.10544   0.00000  Uiso   1.00
C195   C     0.71150   0.06990   0.13255   0.00000  Uiso   1.00
C196   C     0.71780   0.01620   0.17362   0.00000  Uiso   1.00
C197   C     0.72560   0.95060   0.18684   0.00000  Uiso   1.00
H198   H     0.72392   0.89732   0.17622   0.00000  Uiso   1.00
C199   C     0.73540   0.94950   0.21283   0.00000  Uiso   1.00
C200   C     0.73550   0.01290   0.22587   0.00000  Uiso   1.00
H201   H     0.74634   0.01296   0.24699   0.00000  Uiso   1.00
C202   C     0.72260   0.07730   0.21381   0.00000  Uiso   1.00
C203   C     0.71600   0.07890   0.18756   0.00000  Uiso   1.00
H204   H     0.70903   0.13248   0.17740   0.00000  Uiso   1.00
C205   C     0.72320   0.14720   0.22745   0.00000  Uiso   1.00
C206   C     0.74500   0.88070   0.22525   0.00000  Uiso   1.00
O207   O     0.75170   0.14445   0.24993   0.00000  Uiso   1.00
O208   O     0.69560   0.20140   0.21731   0.00000  Uiso   1.00
O209   O     0.72260   0.82520   0.21476   0.00000  Uiso   1.00
O210   O     0.77590   0.88110   0.24689   0.00000  Uiso   1.00
H211   H     0.60057   0.12900   0.08546   0.00000  Uiso   1.00
H212   H     0.63259   0.91115   0.09787   0.00000  Uiso   1.00
H213   H     0.64907   0.90798   0.14503   0.00000  Uiso   1.00
N214   N     0.63620   0.06800   0.02750   0.00000  Uiso   1.00
C215   C     0.68490   0.00750   0.06420   0.00000  Uiso   1.00
C216   C     0.64710   0.06160   0.05360   0.00000  Uiso   1.00
C217   C     0.60400   0.12140   0.06420   0.00000  Uiso   1.00
C218   C     0.57750   0.15490   0.04720   0.00000  Uiso   1.00
C219   C     0.58630   0.13860   0.02440   0.00000  Uiso   1.00
C220   C     0.69460   0.01270   0.09319   0.00000  Uiso   1.00
C221   C     0.66280   0.95660   0.10767   0.00000  Uiso   1.00
C222   C     0.76780   0.88420   0.02270   0.00000  Uiso   1.00
C223   C     0.79240   0.86020   0.04770   0.00000  Uiso   1.00
C224   C     0.76920   0.90110   0.06570   0.00000  Uiso   1.00
C225   C     0.66820   0.95660   0.13379   0.00000  Uiso   1.00
C226   C     0.69530   0.01220   0.14620   0.00000  Uiso   1.00
H227   H     0.72900   0.12297   0.09519   0.00000  Uiso   1.00
H228   H     0.72507   0.12045   0.14374   0.00000  Uiso   1.00
H229   H     0.59836   0.27713   0.58697   0.00000  Uiso   1.00
N230   N     0.55450   0.22050   0.52697   0.00000  Uiso   1.00
C231   C     0.54210   0.22230   0.55323   0.00000  Uiso   1.00
C232   C     0.42840   0.21270   0.60544   0.00000  Uiso   1.00
C233   C     0.43010   0.21150   0.63255   0.00000  Uiso   1.00
C234   C     0.48380   0.21780   0.67362   0.00000  Uiso   1.00
C235   C     0.54940   0.22560   0.68684   0.00000  Uiso   1.00
H236   H     0.60268   0.22392   0.67622   0.00000  Uiso   1.00
C237   C     0.55050   0.23540   0.71283   0.00000  Uiso   1.00
C238   C     0.48710   0.23550   0.72587   0.00000  Uiso   1.00
H239   H     0.48704   0.24634   0.74699   0.00000  Uiso   1.00
C240   C     0.42270   0.22260   0.71381   0.00000  Uiso   1.00
C241   C     0.42110   0.21600   0.68756   0.00000  Uiso   1.00
H242   H     0.36752   0.20903   0.67740   0.00000  Uiso   1.00
C243   C     0.35280   0.22320   0.72745   0.00000  Uiso   1.00
C244   C     0.61930   0.24500   0.72525   0.00000  Uiso   1.00
O245   O     0.35555   0.25170   0.74993   0.00000  Uiso   1.00
O246   O     0.29860   0.19560   0.71731   0.00000  Uiso   1.00
O247   O     0.67480   0.22260   0.71476   0.00000  Uiso   1.00
O248   O     0.61890   0.27590   0.74689   0.00000  Uiso   1.00
H249   H     0.37100   0.10057   0.58546   0.00000  Uiso   1.00
H250   H     0.58885   0.13259   0.59787   0.00000  Uiso   1.00
H251   H     0.59202   0.14907   0.64503   0.00000  Uiso   1.00
N252   N     0.43200   0.13620   0.52750   0.00000  Uiso   1.00
C253   C     0.49250   0.18490   0.56420   0.00000  Uiso   1.00
C254   C     0.43840   0.14710   0.55360   0.00000  Uiso   1.00
C255   C     0.37860   0.10400   0.56420   0.00000  Uiso   1.00
C256   C     0.34510   0.07750   0.54720   0.00000  Uiso   1.00
C257   C     0.36140   0.08630   0.52440   0.00000  Uiso   1.00
C258   C     0.48730   0.19460   0.59319   0.00000  Uiso   1.00
C259   C     0.54340   0.16280   0.60767   0.00000  Uiso   1.00
C260   C     0.61580   0.26780   0.52270   0.00000  Uiso   1.00
C261   C     0.63980   0.29240   0.54770   0.00000  Uiso   1.00
C262   C     0.59890   0.26920   0.56570   0.00000  Uiso   1.00
C263   C     0.54340   0.16820   0.63379   0.00000  Uiso   1.00
C264   C     0.48780   0.19530   0.64620   0.00000  Uiso   1.00
H265   H     0.37703   0.22900   0.59519   0.00000  Uiso   1.00
H266   H     0.37955   0.22507   0.64374   0.00000  Uiso   1.00
H267   H     0.40164   0.72287   0.58697   0.00000  Uiso   1.00
N268   N     0.44550   0.77950   0.52697   0.00000  Uiso   1.00
C269   C     0.45790   0.77770   0.55323   0.00000  Uiso   1.00
C270   C     0.57160   0.78730   0.60544   0.00000  Uiso   1.00
C271   C     0.56990   0.78850   0.63255   0.00000  Uiso   1.00
C272   C     0.51620   0.78220   0.67362   0.00000  Uiso   1.00
C273   C     0.45060   0.77440   0.68684   0.00000  Uiso   1.00
H274   H     0.39732   0.77608   0.67622   0.00000  Uiso   1.00
C275   C     0.44950   0.76460   0.71283   0.00000  Uiso   1.00
C276   C     0.51290   0.76450   0.72587   0.00000  Uiso   1.00
H277   H     0.51296   0.75366   0.74699   0.00000  Uiso   1.00
C278   C     0.57730   0.77740   0.71381   0.00000  Uiso   1.00
C279   C     0.57890   0.78400   0.68756   0.00000  Uiso   1.00
H280   H     0.63248   0.79097   0.67740   0.00000  Uiso   1.00
C281   C     0.64720   0.77680   0.72745   0.00000  Uiso   1.00
C282   C     0.38070   0.75500   0.72525   0.00000  Uiso   1.00
O283   O     0.64445   0.74830   0.74993   0.00000  Uiso   1.00
O284   O     0.70140   0.80440   0.71731   0.00000  Uiso   1.00
O285   O     0.32520   0.77740   0.71476   0.00000  Uiso   1.00
O286   O     0.38110   0.72410   0.74689   0.00000  Uiso   1.00
H287   H     0.62900   0.89943   0.58546   0.00000  Uiso   1.00
H288   H     0.41115   0.86741   0.59787   0.00000  Uiso   1.00
H289   H     0.40798   0.85093   0.64503   0.00000  Uiso   1.00
N290   N     0.56800   0.86380   0.52750   0.00000  Uiso   1.00
C291   C     0.50750   0.81510   0.56420   0.00000  Uiso   1.00
C292   C     0.56160   0.85290   0.55360   0.00000  Uiso   1.00
C293   C     0.62140   0.89600   0.56420   0.00000  Uiso   1.00
C294   C     0.65490   0.92250   0.54720   0.00000  Uiso   1.00
C295   C     0.63860   0.91370   0.52440   0.00000  Uiso   1.00
C296   C     0.51270   0.80540   0.59319   0.00000  Uiso   1.00
C297   C     0.45660   0.83720   0.60767   0.00000  Uiso   1.00
C298   C     0.38420   0.73220   0.52270   0.00000  Uiso   1.00
C299   C     0.36020   0.70760   0.54770   0.00000  Uiso   1.00
C300   C     0.40110   0.73080   0.56570   0.00000  Uiso   1.00
C301   C     0.45660   0.83180   0.63379   0.00000  Uiso   1.00
C302   C     0.51220   0.80470   0.64620   0.00000  Uiso   1.00
H303   H     0.62297   0.77100   0.59519   0.00000  Uiso   1.00
H304   H     0.62045   0.77493   0.64374   0.00000  Uiso   1.00
H305   H     0.72287   0.40164   0.58697   0.00000  Uiso   1.00
N306   N     0.77950   0.44550   0.52697   0.00000  Uiso   1.00
C307   C     0.77770   0.45790   0.55323   0.00000  Uiso   1.00
C308   C     0.78730   0.57160   0.60544   0.00000  Uiso   1.00
C309   C     0.78850   0.56990   0.63255   0.00000  Uiso   1.00
C310   C     0.78220   0.51620   0.67362   0.00000  Uiso   1.00
C311   C     0.77440   0.45060   0.68684   0.00000  Uiso   1.00
H312   H     0.77608   0.39732   0.67622   0.00000  Uiso   1.00
C313   C     0.76460   0.44950   0.71283   0.00000  Uiso   1.00
C314   C     0.76450   0.51290   0.72587   0.00000  Uiso   1.00
H315   H     0.75366   0.51296   0.74699   0.00000  Uiso   1.00
C316   C     0.77740   0.57730   0.71381   0.00000  Uiso   1.00
C317   C     0.78400   0.57890   0.68756   0.00000  Uiso   1.00
H318   H     0.79097   0.63248   0.67740   0.00000  Uiso   1.00
C319   C     0.77680   0.64720   0.72745   0.00000  Uiso   1.00
C320   C     0.75500   0.38070   0.72525   0.00000  Uiso   1.00
O321   O     0.74830   0.64445   0.74993   0.00000  Uiso   1.00
O322   O     0.80440   0.70140   0.71731   0.00000  Uiso   1.00
O323   O     0.77740   0.32520   0.71476   0.00000  Uiso   1.00
O324   O     0.72410   0.38110   0.74689   0.00000  Uiso   1.00
H325   H     0.89943   0.62900   0.58546   0.00000  Uiso   1.00
H326   H     0.86741   0.41115   0.59787   0.00000  Uiso   1.00
H327   H     0.85093   0.40798   0.64503   0.00000  Uiso   1.00
N328   N     0.86380   0.56800   0.52750   0.00000  Uiso   1.00
C329   C     0.81510   0.50750   0.56420   0.00000  Uiso   1.00
C330   C     0.85290   0.56160   0.55360   0.00000  Uiso   1.00
C331   C     0.89600   0.62140   0.56420   0.00000  Uiso   1.00
C332   C     0.92250   0.65490   0.54720   0.00000  Uiso   1.00
C333   C     0.91370   0.63860   0.52440   0.00000  Uiso   1.00
C334   C     0.80540   0.51270   0.59319   0.00000  Uiso   1.00
C335   C     0.83720   0.45660   0.60767   0.00000  Uiso   1.00
C336   C     0.73220   0.38420   0.52270   0.00000  Uiso   1.00
C337   C     0.70760   0.36020   0.54770   0.00000  Uiso   1.00
C338   C     0.73080   0.40110   0.56570   0.00000  Uiso   1.00
C339   C     0.83180   0.45660   0.63379   0.00000  Uiso   1.00
C340   C     0.80470   0.51220   0.64620   0.00000  Uiso   1.00
H341   H     0.77100   0.62297   0.59519   0.00000  Uiso   1.00
H342   H     0.77493   0.62045   0.64374   0.00000  Uiso   1.00
H343   H     0.27713   0.59836   0.58697   0.00000  Uiso   1.00
N344   N     0.22050   0.55450   0.52697   0.00000  Uiso   1.00
C345   C     0.22230   0.54210   0.55323   0.00000  Uiso   1.00
C346   C     0.21270   0.42840   0.60544   0.00000  Uiso   1.00
C347   C     0.21150   0.43010   0.63255   0.00000  Uiso   1.00
C348   C     0.21780   0.48380   0.67362   0.00000  Uiso   1.00
C349   C     0.22560   0.54940   0.68684   0.00000  Uiso   1.00
H350   H     0.22392   0.60268   0.67622   0.00000  Uiso   1.00
C351   C     0.23540   0.55050   0.71283   0.00000  Uiso   1.00
C352   C     0.23550   0.48710   0.72587   0.00000  Uiso   1.00
H353   H     0.24634   0.48704   0.74699   0.00000  Uiso   1.00
C354   C     0.22260   0.42270   0.71381   0.00000  Uiso   1.00
C355   C     0.21600   0.42110   0.68756   0.00000  Uiso   1.00
H356   H     0.20903   0.36752   0.67740   0.00000  Uiso   1.00
C357   C     0.22320   0.35280   0.72745   0.00000  Uiso   1.00
C358   C     0.24500   0.61930   0.72525   0.00000  Uiso   1.00
O359   O     0.25170   0.35555   0.74993   0.00000  Uiso   1.00
O360   O     0.19560   0.29860   0.71731   0.00000  Uiso   1.00
O361   O     0.22260   0.67480   0.71476   0.00000  Uiso   1.00
O362   O     0.27590   0.61890   0.74689   0.00000  Uiso   1.00
H363   H     0.10057   0.37100   0.58546   0.00000  Uiso   1.00
H364   H     0.13259   0.58885   0.59787   0.00000  Uiso   1.00
H365   H     0.14907   0.59202   0.64503   0.00000  Uiso   1.00
N366   N     0.13620   0.43200   0.52750   0.00000  Uiso   1.00
C367   C     0.18490   0.49250   0.56420   0.00000  Uiso   1.00
C368   C     0.14710   0.43840   0.55360   0.00000  Uiso   1.00
C369   C     0.10400   0.37860   0.56420   0.00000  Uiso   1.00
C370   C     0.07750   0.34510   0.54720   0.00000  Uiso   1.00
C371   C     0.08630   0.36140   0.52440   0.00000  Uiso   1.00
C372   C     0.19460   0.48730   0.59319   0.00000  Uiso   1.00
C373   C     0.16280   0.54340   0.60767   0.00000  Uiso   1.00
C374   C     0.26780   0.61580   0.52270   0.00000  Uiso   1.00
C375   C     0.29240   0.63980   0.54770   0.00000  Uiso   1.00
C376   C     0.26920   0.59890   0.56570   0.00000  Uiso   1.00
C377   C     0.16820   0.54340   0.63379   0.00000  Uiso   1.00
C378   C     0.19530   0.48780   0.64620   0.00000  Uiso   1.00
H379   H     0.22900   0.37703   0.59519   0.00000  Uiso   1.00
H380   H     0.22507   0.37955   0.64374   0.00000  Uiso   1.00
H381   H     0.09836   0.22287   0.08697   0.00000  Uiso   1.00
N382   N     0.05450   0.27950   0.02697   0.00000  Uiso   1.00
C383   C     0.04210   0.27770   0.05323   0.00000  Uiso   1.00
C384   C     0.92840   0.28730   0.10544   0.00000  Uiso   1.00
C385   C     0.93010   0.28850   0.13255   0.00000  Uiso   1.00
C386   C     0.98380   0.28220   0.17362   0.00000  Uiso   1.00
C387   C     0.04940   0.27440   0.18684   0.00000  Uiso   1.00
H388   H     0.10268   0.27608   0.17622   0.00000  Uiso   1.00
C389   C     0.05050   0.26460   0.21283   0.00000  Uiso   1.00
C390   C     0.98710   0.26450   0.22587   0.00000  Uiso   1.00
H391   H     0.98704   0.25366   0.24699   0.00000  Uiso   1.00
C392   C     0.92270   0.27740   0.21381   0.00000  Uiso   1.00
C393   C     0.92110   0.28400   0.18756   0.00000  Uiso   1.00
H394   H     0.86752   0.29097   0.17740   0.00000  Uiso   1.00
C395   C     0.85280   0.27680   0.22745   0.00000  Uiso   1.00
C396   C     0.11930   0.25500   0.22525   0.00000  Uiso   1.00
O397   O     0.85555   0.24830   0.24993   0.00000  Uiso   1.00
O398   O     0.79860   0.30440   0.21731   0.00000  Uiso   1.00
O399   O     0.17480   0.27740   0.21476   0.00000  Uiso   1.00
O400   O     0.11890   0.22410   0.24689   0.00000  Uiso   1.00
H401   H     0.87100   0.39943   0.08546   0.00000  Uiso   1.00
H402   H     0.08885   0.36741   0.09787   0.00000  Uiso   1.00
H403   H     0.09202   0.35093   0.14503   0.00000  Uiso   1.00
N404   N     0.93200   0.36380   0.02750   0.00000  Uiso   1.00
C405   C     0.99250   0.31510   0.06420   0.00000  Uiso   1.00
C406   C     0.93840   0.35290   0.05360   0.00000  Uiso   1.00
C407   C     0.87860   0.39600   0.06420   0.00000  Uiso   1.00
C408   C     0.84510   0.42250   0.04720   0.00000  Uiso   1.00
C409   C     0.86140   0.41370   0.02440   0.00000  Uiso   1.00
C410   C     0.98730   0.30540   0.09319   0.00000  Uiso   1.00
C411   C     0.04340   0.33720   0.10767   0.00000  Uiso   1.00
C412   C     0.11580   0.23220   0.02270   0.00000  Uiso   1.00
C413   C     0.13980   0.20760   0.04770   0.00000  Uiso   1.00
C414   C     0.09890   0.23080   0.06570   0.00000  Uiso   1.00
C415   C     0.04340   0.33180   0.13379   0.00000  Uiso   1.00
C416   C     0.98780   0.30470   0.14620   0.00000  Uiso   1.00
H417   H     0.87703   0.27100   0.09519   0.00000  Uiso   1.00
H418   H     0.87955   0.27493   0.14374   0.00000  Uiso   1.00
H419   H     0.90164   0.77713   0.08697   0.00000  Uiso   1.00
N420   N     0.94550   0.72050   0.02697   0.00000  Uiso   1.00
C421   C     0.95790   0.72230   0.05323   0.00000  Uiso   1.00
C422   C     0.07160   0.71270   0.10544   0.00000  Uiso   1.00
C423   C     0.06990   0.71150   0.13255   0.00000  Uiso   1.00
C424   C     0.01620   0.71780   0.17362   0.00000  Uiso   1.00
C425   C     0.95060   0.72560   0.18684   0.00000  Uiso   1.00
H426   H     0.89732   0.72392   0.17622   0.00000  Uiso   1.00
C427   C     0.94950   0.73540   0.21283   0.00000  Uiso   1.00
C428   C     0.01290   0.73550   0.22587   0.00000  Uiso   1.00
H429   H     0.01296   0.74634   0.24699   0.00000  Uiso   1.00
C430   C     0.07730   0.72260   0.21381   0.00000  Uiso   1.00
C431   C     0.07890   0.71600   0.18756   0.00000  Uiso   1.00
H432   H     0.13248   0.70903   0.17740   0.00000  Uiso   1.00
C433   C     0.14720   0.72320   0.22745   0.00000  Uiso   1.00
C434   C     0.88070   0.74500   0.22525   0.00000  Uiso   1.00
O435   O     0.14445   0.75170   0.24993   0.00000  Uiso   1.00
O436   O     0.20140   0.69560   0.21731   0.00000  Uiso   1.00
O437   O     0.82520   0.72260   0.21476   0.00000  Uiso   1.00
O438   O     0.88110   0.77590   0.24689   0.00000  Uiso   1.00
H439   H     0.12900   0.60057   0.08546   0.00000  Uiso   1.00
H440   H     0.91115   0.63259   0.09787   0.00000  Uiso   1.00
H441   H     0.90798   0.64907   0.14503   0.00000  Uiso   1.00
N442   N     0.06800   0.63620   0.02750   0.00000  Uiso   1.00
C443   C     0.00750   0.68490   0.06420   0.00000  Uiso   1.00
C444   C     0.06160   0.64710   0.05360   0.00000  Uiso   1.00
C445   C     0.12140   0.60400   0.06420   0.00000  Uiso   1.00
C446   C     0.15490   0.57750   0.04720   0.00000  Uiso   1.00
C447   C     0.13860   0.58630   0.02440   0.00000  Uiso   1.00
C448   C     0.01270   0.69460   0.09319   0.00000  Uiso   1.00
C449   C     0.95660   0.66280   0.10767   0.00000  Uiso   1.00
C450   C     0.88420   0.76780   0.02270   0.00000  Uiso   1.00
C451   C     0.86020   0.79240   0.04770   0.00000  Uiso   1.00
C452   C     0.90110   0.76920   0.06570   0.00000  Uiso   1.00
C453   C     0.95660   0.66820   0.13379   0.00000  Uiso   1.00
C454   C     0.01220   0.69530   0.14620   0.00000  Uiso   1.00
H455   H     0.12297   0.72900   0.09519   0.00000  Uiso   1.00
H456   H     0.12045   0.72507   0.14374   0.00000  Uiso   1.00
H457   H     0.77713   0.90164   0.91303   0.00000  Uiso   1.00
N458   N     0.72050   0.94550   0.97303   0.00000  Uiso   1.00
C459   C     0.72230   0.95790   0.94677   0.00000  Uiso   1.00
C460   C     0.71270   0.07160   0.89456   0.00000  Uiso   1.00
C461   C     0.71150   0.06990   0.86745   0.00000  Uiso   1.00
C462   C     0.71780   0.01620   0.82638   0.00000  Uiso   1.00
C463   C     0.72560   0.95060   0.81316   0.00000  Uiso   1.00
H464   H     0.72392   0.89732   0.82378   0.00000  Uiso   1.00
C465   C     0.73540   0.94950   0.78717   0.00000  Uiso   1.00
C466   C     0.73550   0.01290   0.77413   0.00000  Uiso   1.00
H467   H     0.74634   0.01296   0.75301   0.00000  Uiso   1.00
C468   C     0.72260   0.07730   0.78619   0.00000  Uiso   1.00
C469   C     0.71600   0.07890   0.81244   0.00000  Uiso   1.00
H470   H     0.70903   0.13248   0.82260   0.00000  Uiso   1.00
C471   C     0.72320   0.14720   0.77255   0.00000  Uiso   1.00
C472   C     0.74500   0.88070   0.77475   0.00000  Uiso   1.00
O473   O     0.75170   0.14445   0.75007   0.00000  Uiso   1.00
O474   O     0.69560   0.20140   0.78269   0.00000  Uiso   1.00
O475   O     0.72260   0.82520   0.78524   0.00000  Uiso   1.00
O476   O     0.77590   0.88110   0.75311   0.00000  Uiso   1.00
H477   H     0.60057   0.12900   0.91454   0.00000  Uiso   1.00
H478   H     0.63259   0.91115   0.90213   0.00000  Uiso   1.00
H479   H     0.64907   0.90798   0.85497   0.00000  Uiso   1.00
N480   N     0.63620   0.06800   0.97250   0.00000  Uiso   1.00
C481   C     0.68490   0.00750   0.93580   0.00000  Uiso   1.00
C482   C     0.64710   0.06160   0.94640   0.00000  Uiso   1.00
C483   C     0.60400   0.12140   0.93580   0.00000  Uiso   1.00
C484   C     0.57750   0.15490   0.95280   0.00000  Uiso   1.00
C485   C     0.58630   0.13860   0.97560   0.00000  Uiso   1.00
C486   C     0.69460   0.01270   0.90681   0.00000  Uiso   1.00
C487   C     0.66280   0.95660   0.89233   0.00000  Uiso   1.00
C488   C     0.76780   0.88420   0.97730   0.00000  Uiso   1.00
C489   C     0.79240   0.86020   0.95230   0.00000  Uiso   1.00
C490   C     0.76920   0.90110   0.93430   0.00000  Uiso   1.00
C491   C     0.66820   0.95660   0.86621   0.00000  Uiso   1.00
C492   C     0.69530   0.01220   0.85380   0.00000  Uiso   1.00
H493   H     0.72900   0.12297   0.90481   0.00000  Uiso   1.00
H494   H     0.72507   0.12045   0.85626   0.00000  Uiso   1.00
H495   H     0.22287   0.09836   0.91303   0.00000  Uiso   1.00
N496   N     0.27950   0.05450   0.97303   0.00000  Uiso   1.00
C497   C     0.27770   0.04210   0.94677   0.00000  Uiso   1.00
C498   C     0.28730   0.92840   0.89456   0.00000  Uiso   1.00
C499   C     0.28850   0.93010   0.86745   0.00000  Uiso   1.00
C500   C     0.28220   0.98380   0.82638   0.00000  Uiso   1.00
C501   C     0.27440   0.04940   0.81316   0.00000  Uiso   1.00
H502   H     0.27608   0.10268   0.82378   0.00000  Uiso   1.00
C503   C     0.26460   0.05050   0.78717   0.00000  Uiso   1.00
C504   C     0.26450   0.98710   0.77413   0.00000  Uiso   1.00
H505   H     0.25366   0.98704   0.75301   0.00000  Uiso   1.00
C506   C     0.27740   0.92270   0.78619   0.00000  Uiso   1.00
C507   C     0.28400   0.92110   0.81244   0.00000  Uiso   1.00
H508   H     0.29097   0.86752   0.82260   0.00000  Uiso   1.00
C509   C     0.27680   0.85280   0.77255   0.00000  Uiso   1.00
C510   C     0.25500   0.11930   0.77475   0.00000  Uiso   1.00
O511   O     0.24830   0.85555   0.75007   0.00000  Uiso   1.00
O512   O     0.30440   0.79860   0.78269   0.00000  Uiso   1.00
O513   O     0.27740   0.17480   0.78524   0.00000  Uiso   1.00
O514   O     0.22410   0.11890   0.75311   0.00000  Uiso   1.00
H515   H     0.39943   0.87100   0.91454   0.00000  Uiso   1.00
H516   H     0.36741   0.08885   0.90213   0.00000  Uiso   1.00
H517   H     0.35093   0.09202   0.85497   0.00000  Uiso   1.00
N518   N     0.36380   0.93200   0.97250   0.00000  Uiso   1.00
C519   C     0.31510   0.99250   0.93580   0.00000  Uiso   1.00
C520   C     0.35290   0.93840   0.94640   0.00000  Uiso   1.00
C521   C     0.39600   0.87860   0.93580   0.00000  Uiso   1.00
C522   C     0.42250   0.84510   0.95280   0.00000  Uiso   1.00
C523   C     0.41370   0.86140   0.97560   0.00000  Uiso   1.00
C524   C     0.30540   0.98730   0.90681   0.00000  Uiso   1.00
C525   C     0.33720   0.04340   0.89233   0.00000  Uiso   1.00
C526   C     0.23220   0.11580   0.97730   0.00000  Uiso   1.00
C527   C     0.20760   0.13980   0.95230   0.00000  Uiso   1.00
C528   C     0.23080   0.09890   0.93430   0.00000  Uiso   1.00
C529   C     0.33180   0.04340   0.86621   0.00000  Uiso   1.00
C530   C     0.30470   0.98780   0.85380   0.00000  Uiso   1.00
H531   H     0.27100   0.87703   0.90481   0.00000  Uiso   1.00
H532   H     0.27493   0.87955   0.85626   0.00000  Uiso   1.00
H533   H     0.40164   0.72287   0.41303   0.00000  Uiso   1.00
N534   N     0.44550   0.77950   0.47303   0.00000  Uiso   1.00
C535   C     0.45790   0.77770   0.44677   0.00000  Uiso   1.00
C536   C     0.57160   0.78730   0.39456   0.00000  Uiso   1.00
C537   C     0.56990   0.78850   0.36745   0.00000  Uiso   1.00
C538   C     0.51620   0.78220   0.32638   0.00000  Uiso   1.00
C539   C     0.45060   0.77440   0.31316   0.00000  Uiso   1.00
H540   H     0.39732   0.77608   0.32378   0.00000  Uiso   1.00
C541   C     0.44950   0.76460   0.28717   0.00000  Uiso   1.00
C542   C     0.51290   0.76450   0.27413   0.00000  Uiso   1.00
H543   H     0.51296   0.75366   0.25301   0.00000  Uiso   1.00
C544   C     0.57730   0.77740   0.28619   0.00000  Uiso   1.00
C545   C     0.57890   0.78400   0.31244   0.00000  Uiso   1.00
H546   H     0.63248   0.79097   0.32260   0.00000  Uiso   1.00
C547   C     0.64720   0.77680   0.27255   0.00000  Uiso   1.00
C548   C     0.38070   0.75500   0.27475   0.00000  Uiso   1.00
O549   O     0.64445   0.74830   0.25007   0.00000  Uiso   1.00
O550   O     0.70140   0.80440   0.28269   0.00000  Uiso   1.00
O551   O     0.32520   0.77740   0.28524   0.00000  Uiso   1.00
O552   O     0.38110   0.72410   0.25311   0.00000  Uiso   1.00
H553   H     0.62900   0.89943   0.41454   0.00000  Uiso   1.00
H554   H     0.41115   0.86741   0.40213   0.00000  Uiso   1.00
H555   H     0.40798   0.85093   0.35497   0.00000  Uiso   1.00
N556   N     0.56800   0.86380   0.47250   0.00000  Uiso   1.00
C557   C     0.50750   0.81510   0.43580   0.00000  Uiso   1.00
C558   C     0.56160   0.85290   0.44640   0.00000  Uiso   1.00
C559   C     0.62140   0.89600   0.43580   0.00000  Uiso   1.00
C560   C     0.65490   0.92250   0.45280   0.00000  Uiso   1.00
C561   C     0.63860   0.91370   0.47560   0.00000  Uiso   1.00
C562   C     0.51270   0.80540   0.40681   0.00000  Uiso   1.00
C563   C     0.45660   0.83720   0.39233   0.00000  Uiso   1.00
C564   C     0.38420   0.73220   0.47730   0.00000  Uiso   1.00
C565   C     0.36020   0.70760   0.45230   0.00000  Uiso   1.00
C566   C     0.40110   0.73080   0.43430   0.00000  Uiso   1.00
C567   C     0.45660   0.83180   0.36621   0.00000  Uiso   1.00
C568   C     0.51220   0.80470   0.35380   0.00000  Uiso   1.00
H569   H     0.62297   0.77100   0.40481   0.00000  Uiso   1.00
H570   H     0.62045   0.77493   0.35626   0.00000  Uiso   1.00
H571   H     0.59836   0.27713   0.41303   0.00000  Uiso   1.00
N572   N     0.55450   0.22050   0.47303   0.00000  Uiso   1.00
C573   C     0.54210   0.22230   0.44677   0.00000  Uiso   1.00
C574   C     0.42840   0.21270   0.39456   0.00000  Uiso   1.00
C575   C     0.43010   0.21150   0.36745   0.00000  Uiso   1.00
C576   C     0.48380   0.21780   0.32638   0.00000  Uiso   1.00
C577   C     0.54940   0.22560   0.31316   0.00000  Uiso   1.00
H578   H     0.60268   0.22392   0.32378   0.00000  Uiso   1.00
C579   C     0.55050   0.23540   0.28717   0.00000  Uiso   1.00
C580   C     0.48710   0.23550   0.27413   0.00000  Uiso   1.00
H581   H     0.48704   0.24634   0.25301   0.00000  Uiso   1.00
C582   C     0.42270   0.22260   0.28619   0.00000  Uiso   1.00
C583   C     0.42110   0.21600   0.31244   0.00000  Uiso   1.00
H584   H     0.36752   0.20903   0.32260   0.00000  Uiso   1.00
C585   C     0.35280   0.22320   0.27255   0.00000  Uiso   1.00
C586   C     0.61930   0.24500   0.27475   0.00000  Uiso   1.00
O587   O     0.35555   0.25170   0.25007   0.00000  Uiso   1.00
O588   O     0.29860   0.19560   0.28269   0.00000  Uiso   1.00
O589   O     0.67480   0.22260   0.28524   0.00000  Uiso   1.00
O590   O     0.61890   0.27590   0.25311   0.00000  Uiso   1.00
H591   H     0.37100   0.10057   0.41454   0.00000  Uiso   1.00
H592   H     0.58885   0.13259   0.40213   0.00000  Uiso   1.00
H593   H     0.59202   0.14907   0.35497   0.00000  Uiso   1.00
N594   N     0.43200   0.13620   0.47250   0.00000  Uiso   1.00
C595   C     0.49250   0.18490   0.43580   0.00000  Uiso   1.00
C596   C     0.43840   0.14710   0.44640   0.00000  Uiso   1.00
C597   C     0.37860   0.10400   0.43580   0.00000  Uiso   1.00
C598   C     0.34510   0.07750   0.45280   0.00000  Uiso   1.00
C599   C     0.36140   0.08630   0.47560   0.00000  Uiso   1.00
C600   C     0.48730   0.19460   0.40681   0.00000  Uiso   1.00
C601   C     0.54340   0.16280   0.39233   0.00000  Uiso   1.00
C602   C     0.61580   0.26780   0.47730   0.00000  Uiso   1.00
C603   C     0.63980   0.29240   0.45230   0.00000  Uiso   1.00
C604   C     0.59890   0.26920   0.43430   0.00000  Uiso   1.00
C605   C     0.54340   0.16820   0.36621   0.00000  Uiso   1.00
C606   C     0.48780   0.19530   0.35380   0.00000  Uiso   1.00
H607   H     0.37703   0.22900   0.40481   0.00000  Uiso   1.00
H608   H     0.37955   0.22507   0.35626   0.00000  Uiso   1.00
Cu609  Cu    0.27029   0.27029   0.22959   0.00000  Uiso   1.00
Cu610  Cu    0.20378   0.20378   0.26725   0.00000  Uiso   1.00
Cu611  Cu    0.72971   0.72971   0.22959   0.00000  Uiso   1.00
Cu612  Cu    0.79622   0.79622   0.26725   0.00000  Uiso   1.00
Cu613  Cu    0.22971   0.77029   0.72959   0.00000  Uiso   1.00
Cu614  Cu    0.29622   0.70378   0.76725   0.00000  Uiso   1.00
Cu615  Cu    0.77029   0.22971   0.72959   0.00000  Uiso   1.00
Cu616  Cu    0.70378   0.29622   0.76725   0.00000  Uiso   1.00
Cu617  Cu    0.22971   0.77029   0.27041   0.00000  Uiso   1.00
Cu618  Cu    0.29622   0.70378   0.23275   0.00000  Uiso   1.00
Cu619  Cu    0.77029   0.22971   0.27041   0.00000  Uiso   1.00
Cu620  Cu    0.70378   0.29622   0.23275   0.00000  Uiso   1.00
Cu621  Cu    0.27029   0.27029   0.77041   0.00000  Uiso   1.00
Cu622  Cu    0.20378   0.20378   0.73275   0.00000  Uiso   1.00
Cu623  Cu    0.72971   0.72971   0.77041   0.00000  Uiso   1.00
Cu624  Cu    0.79622   0.79622   0.73275   0.00000  Uiso   1.00
Zn625  Zn    0.17136   0.50213   0.50000   0.00000  Uiso   1.00
C626   C     0.07110   0.34660   0.50000   0.00000  Uiso   1.00
C627   C     0.28880   0.64380   0.50000   0.00000  Uiso   1.00
Zn628  Zn    0.82864   0.49787   0.50000   0.00000  Uiso   1.00
C629   C     0.92890   0.65340   0.50000   0.00000  Uiso   1.00
C630   C     0.71120   0.35620   0.50000   0.00000  Uiso   1.00
Zn631  Zn    0.99787   0.67136   0.00000   0.00000  Uiso   1.00
C632   C     0.15340   0.57110   0.00000   0.00000  Uiso   1.00
C633   C     0.85620   0.78880   0.00000   0.00000  Uiso   1.00
Zn634  Zn    0.00213   0.32864   0.00000   0.00000  Uiso   1.00
C635   C     0.84660   0.42890   0.00000   0.00000  Uiso   1.00
C636   C     0.14380   0.21120   0.00000   0.00000  Uiso   1.00
Zn637  Zn    0.32864   0.00213   0.00000   0.00000  Uiso   1.00
C638   C     0.42890   0.84660   0.00000   0.00000  Uiso   1.00
C639   C     0.21120   0.14380   0.00000   0.00000  Uiso   1.00
Zn640  Zn    0.67136   0.99787   0.00000   0.00000  Uiso   1.00
C641   C     0.57110   0.15340   0.00000   0.00000  Uiso   1.00
C642   C     0.78880   0.85620   0.00000   0.00000  Uiso   1.00
Zn643  Zn    0.50213   0.17136   0.50000   0.00000  Uiso   1.00
C644   C     0.34660   0.07110   0.50000   0.00000  Uiso   1.00
C645   C     0.64380   0.28880   0.50000   0.00000  Uiso   1.00
Zn646  Zn    0.49787   0.82864   0.50000   0.00000  Uiso   1.00
C647   C     0.65340   0.92890   0.50000   0.00000  Uiso   1.00
C648   C     0.35620   0.71120   0.50000   0.00000  Uiso   1.00
loop_
_geom_bond_atom_site_label_1
_geom_bond_atom_site_label_2
_geom_bond_distance
_geom_bond_site_symmetry_2
_ccdc_geom_bond_type
H1     C34     1.140   .     S
N2     C3      1.415   .     A
N2     C32     1.457   .     S
N2     Zn625   1.958   .     S
C3     C25     1.293   .     A
C3     C34     1.521   .     S
C4     C5      1.441   .     A
C4     C30     1.317   .     A
C4     H37     1.140   .     S
C5     C36     1.329   .     A
C5     H38     1.140   .     S
C6     C7      1.414   .     A
C6     C13     1.381   .     A
C6     C36     1.518   .     S
C7     H8      1.140   .     S
C7     C9      1.393   .     A
C9     C10     1.367   .     A
C9     C16     1.450   .     S
C10    H11     1.140   .     S
C10    C12     1.379   .     A
C12    C13     1.400   .     A
C12    C15     1.488   .     S
C13    H14     1.140   .     S
C15    O17     1.308   .     A
C15    O18     1.252   .     A
C16    O19     1.244   .     A
C16    O20     1.285   .     A
O17    Cu609   1.953   .     S
O18    Cu610   1.950   .     S
O19    Cu617   1.946   .     S
O20    Cu618   1.950   .     S
H21    C27     1.140   .     S
H22    C31     1.140   .     S
H23    C35     1.140   .     S
N24    C26     1.407   .     A
N24    C29     1.615   .     S
N24    Zn625   2.064   .     S
C25    C26     1.350   .     A
C25    C30     1.554   .     S
C26    C27     1.481   .     S
C27    C28     1.203   .     D
C28    C29     1.259   .     D
C29    C626    1.355   .     S
C30    C31     1.424   .     A
C31    C35     1.392   .     A
C32    C33     1.474   .     D
C32    C627    1.370   .     S
C33    C34     1.296   .     D
C35    C36     1.325   .     A
H39    C72     1.140   .     S
N40    C41     1.415   .     A
N40    C70     1.457   .     S
N40    Zn628   1.958   .     S
C41    C63     1.293   .     A
C41    C72     1.521   .     S
C42    C43     1.441   .     A
C42    C68     1.317   .     A
C42    H75     1.140   .     S
C43    C74     1.329   .     A
C43    H76     1.140   .     S
C44    C45     1.414   .     A
C44    C51     1.381   .     A
C44    C74     1.518   .     S
C45    H46     1.140   .     S
C45    C47     1.393   .     A
C47    C48     1.367   .     A
C47    C54     1.450   .     S
C48    H49     1.140   .     S
C48    C50     1.379   .     A
C50    C51     1.400   .     A
C50    C53     1.488   .     S
C51    H52     1.140   .     S
C53    O55     1.308   .     A
C53    O56     1.252   .     A
C54    O57     1.244   .     A
C54    O58     1.285   .     A
O55    Cu611   1.953   .     S
O56    Cu612   1.950   .     S
O57    Cu619   1.946   .     S
O58    Cu620   1.950   .     S
H59    C65     1.140   .     S
H60    C69     1.140   .     S
H61    C73     1.140   .     S
N62    C64     1.407   .     A
N62    C67     1.615   .     S
N62    Zn628   2.064   .     S
C63    C64     1.350   .     A
C63    C68     1.554   .     S
C64    C65     1.481   .     S
C65    C66     1.203   .     D
C66    C67     1.259   .     D
C67    C629    1.355   .     S
C68    C69     1.424   .     A
C69    C73     1.392   .     A
C70    C71     1.474   .     D
C70    C630    1.370   .     S
C71    C72     1.296   .     D
C73    C74     1.325   .     A
H77    C110    1.140   .     S
N78    C79     1.415   .     A
N78    C108    1.457   .     S
N78    Zn631   1.958   1_556 S
C79    C110    1.521   .     S
C79    C101    1.293   1_655 A
C80    C81     1.441   .     A
C80    C106    1.317   .     A
C80    H113    1.140   .     S
C81    C112    1.329   .     A
C81    H114    1.140   .     S
C82    C89     1.381   .     A
C82    C112    1.518   .     S
C82    C83     1.414   1_455 S
C83    H84     1.140   .     S
C83    C85     1.393   .     A
C83    C82     1.414   1_655 S
C85    C92     1.450   .     S
C85    C86     1.367   1_655 A
C86    H87     1.140   .     S
C86    C88     1.379   .     A
C86    C85     1.367   1_455 A
C88    C89     1.400   .     A
C88    C91     1.488   .     S
C89    H90     1.140   .     S
C91    O93     1.308   .     A
C91    O94     1.252   .     A
C92    O95     1.244   .     A
C92    O96     1.285   .     A
O93    Cu613   1.953   .     S
O94    Cu614   1.950   .     S
O95    Cu623   1.946   .     S
O96    Cu624   1.950   .     S
H97    C103    1.140   .     S
H98    C107    1.140   .     S
H99    C111    1.140   .     S
N100   C102    1.407   .     A
N100   C105    1.615   .     S
N100   Zn631   2.064   1_456 A
C101   C102    1.350   .     A
C101   C106    1.554   .     S
C101   C79     1.293   1_455 A
C102   C103    1.481   .     S
C103   C104    1.203   .     D
C104   C105    1.259   .     D
C105   C632    1.355   1_556 S
C106   C107    1.424   1_455 A
C107   C111    1.392   .     A
C107   C106    1.424   1_655 A
C108   C109    1.474   .     D
C108   C633    1.370   1_556 A
C109   C110    1.296   .     D
C111   C112    1.325   1_655 A
C112   C111    1.325   1_455 A
H115   C148    1.140   .     S
N116   C117    1.415   .     A
N116   C146    1.457   .     S
N116   Zn634   1.958   1_556 S
C117   C148    1.521   .     S
C117   C139    1.293   1_455 A
C118   C119    1.441   .     A
C118   C144    1.317   .     A
C118   H151    1.140   .     S
C119   C150    1.329   .     A
C119   H152    1.140   .     S
C120   C127    1.381   .     A
C120   C150    1.518   .     S
C120   C121    1.414   1_655 A
C121   H122    1.140   .     S
C121   C123    1.393   .     A
C121   C120    1.414   1_455 A
C123   C130    1.450   .     S
C123   C124    1.367   1_455 S
C124   H125    1.140   .     S
C124   C126    1.379   .     A
C124   C123    1.367   1_655 S
C126   C127    1.400   .     A
C126   C129    1.488   .     S
C127   H128    1.140   .     S
C129   O131    1.308   .     A
C129   O132    1.252   .     A
C130   O133    1.244   .     A
C130   O134    1.285   .     A
O131   Cu615   1.953   .     S
O132   Cu616   1.950   .     S
O133   Cu621   1.946   .     S
O134   Cu622   1.950   .     S
H135   C141    1.140   .     S
H136   C145    1.140   .     S
H137   C149    1.140   .     S
N138   C140    1.407   .     A
N138   C143    1.615   .     S
N138   Zn634   2.064   1_656 A
C139   C140    1.350   .     A
C139   C144    1.554   .     S
C139   C117    1.293   1_655 A
C140   C141    1.481   .     S
C141   C142    1.203   .     D
C142   C143    1.259   .     D
C143   C635    1.355   1_556 S
C144   C145    1.424   1_655 A
C145   C149    1.392   .     A
C145   C144    1.424   1_455 A
C146   C147    1.474   .     D
C146   C636    1.370   1_556 A
C147   C148    1.296   .     D
C149   C150    1.325   1_455 A
C150   C149    1.325   1_655 A
H153   C186    1.140   .     S
N154   C155    1.415   .     A
N154   C184    1.457   .     S
N154   Zn637   1.958   .     S
C155   C186    1.521   .     S
C155   C177    1.293   1_545 S
C156   C157    1.441   .     A
C156   C182    1.317   .     A
C156   H189    1.140   .     S
C157   C188    1.329   .     A
C157   H190    1.140   .     S
C158   C165    1.381   .     A
C158   C188    1.518   .     S
C158   C159    1.414   1_565 S
C159   H160    1.140   .     S
C159   C161    1.393   .     A
C159   C158    1.414   1_545 S
C161   C168    1.450   .     S
C161   C162    1.367   1_545 S
C162   H163    1.140   .     S
C162   C164    1.379   .     A
C162   C161    1.367   1_565 S
C164   C165    1.400   .     A
C164   C167    1.488   .     S
C165   H166    1.140   .     S
C167   O169    1.308   .     A
C167   O170    1.252   .     A
C168   O171    1.244   .     A
C168   O172    1.285   .     A
O169   Cu617   1.953   .     S
O170   Cu618   1.950   .     S
O171   Cu609   1.946   .     S
O172   Cu610   1.950   .     S
H173   C179    1.140   .     S
H174   C183    1.140   .     S
H175   C187    1.140   .     S
N176   C178    1.407   .     A
N176   C181    1.615   .     S
N176   Zn637   2.064   1_565 S
C177   C178    1.350   .     A
C177   C182    1.554   .     S
C177   C155    1.293   1_565 S
C178   C179    1.481   .     S
C179   C180    1.203   .     D
C180   C181    1.259   .     D
C181   C638    1.355   .     S
C182   C183    1.424   1_565 S
C183   C187    1.392   .     A
C183   C182    1.424   1_545 S
C184   C185    1.474   .     D
C184   C639    1.370   .     S
C185   C186    1.296   .     D
C187   C188    1.325   1_545 A
C188   C187    1.325   1_565 A
H191   C224    1.140   .     S
N192   C193    1.415   .     A
N192   C222    1.457   .     S
N192   Zn640   1.958   .     S
C193   C224    1.521   .     S
C193   C215    1.293   1_565 S
C194   C195    1.441   .     A
C194   C220    1.317   .     A
C194   H227    1.140   .     S
C195   C226    1.329   .     A
C195   H228    1.140   .     S
C196   C203    1.381   .     A
C196   C226    1.518   .     S
C196   C197    1.414   1_545 D
C197   H198    1.140   .     S
C197   C199    1.393   .     A
C197   C196    1.414   1_565 D
C199   C206    1.450   .     S
C199   C200    1.367   1_565 S
C200   H201    1.140   .     S
C200   C202    1.379   .     A
C200   C199    1.367   1_545 S
C202   C203    1.400   .     A
C202   C205    1.488   .     S
C203   H204    1.140   .     S
C205   O207    1.308   .     A
C205   O208    1.252   .     A
C206   O209    1.244   .     A
C206   O210    1.285   .     A
O207   Cu619   1.953   .     S
O208   Cu620   1.950   .     S
O209   Cu611   1.946   .     S
O210   Cu612   1.950   .     S
H211   C217    1.140   .     S
H212   C221    1.140   .     S
H213   C225    1.140   .     S
N214   C216    1.407   .     A
N214   C219    1.615   .     S
N214   Zn640   2.064   1_545 A
C215   C216    1.350   .     A
C215   C220    1.554   .     S
C215   C193    1.293   1_545 S
C216   C217    1.481   .     S
C217   C218    1.203   .     D
C218   C219    1.259   .     D
C219   C641    1.355   .     S
C220   C221    1.424   1_545 S
C221   C225    1.392   .     A
C221   C220    1.424   1_565 S
C222   C223    1.474   .     D
C222   C642    1.370   .     S
C223   C224    1.296   .     D
C225   C226    1.325   1_565 A
C226   C225    1.325   1_545 A
H229   C262    1.140   .     S
N230   C231    1.415   .     A
N230   C260    1.457   .     S
N230   Zn643   1.958   .     S
C231   C253    1.293   .     A
C231   C262    1.521   .     S
C232   C233    1.441   .     A
C232   C258    1.317   .     A
C232   H265    1.140   .     S
C233   C264    1.329   .     A
C233   H266    1.140   .     S
C234   C235    1.414   .     A
C234   C241    1.381   .     A
C234   C264    1.518   .     S
C235   H236    1.140   .     S
C235   C237    1.393   .     A
C237   C238    1.367   .     A
C237   C244    1.450   .     S
C238   H239    1.140   .     S
C238   C240    1.379   .     A
C240   C241    1.400   .     A
C240   C243    1.488   .     S
C241   H242    1.140   .     S
C243   O245    1.308   .     A
C243   O246    1.252   .     A
C244   O247    1.244   .     A
C244   O248    1.285   .     A
O245   Cu621   1.953   .     S
O246   Cu622   1.950   .     S
O247   Cu615   1.946   .     S
O248   Cu616   1.950   .     S
H249   C255    1.140   .     S
H250   C259    1.140   .     S
H251   C263    1.140   .     S
N252   C254    1.407   .     A
N252   C257    1.615   .     S
N252   Zn643   2.064   .     S
C253   C254    1.350   .     A
C253   C258    1.554   .     S
C254   C255    1.481   .     S
C255   C256    1.203   .     D
C256   C257    1.259   .     D
C257   C644    1.355   .     S
C258   C259    1.424   .     A
C259   C263    1.392   .     A
C260   C261    1.474   .     D
C260   C645    1.370   .     S
C261   C262    1.296   .     D
C263   C264    1.325   .     A
H267   C300    1.140   .     S
N268   C269    1.415   .     A
N268   C298    1.457   .     S
N268   Zn646   1.958   .     S
C269   C291    1.293   .     A
C269   C300    1.521   .     S
C270   C271    1.441   .     A
C270   C296    1.317   .     A
C270   H303    1.140   .     S
C271   C302    1.329   .     A
C271   H304    1.140   .     S
C272   C273    1.414   .     A
C272   C279    1.381   .     A
C272   C302    1.518   .     S
C273   H274    1.140   .     S
C273   C275    1.393   .     A
C275   C276    1.367   .     A
C275   C282    1.450   .     S
C276   H277    1.140   .     S
C276   C278    1.379   .     A
C278   C279    1.400   .     A
C278   C281    1.488   .     S
C279   H280    1.140   .     S
C281   O283    1.308   .     A
C281   O284    1.252   .     A
C282   O285    1.244   .     A
C282   O286    1.285   .     A
O283   Cu623   1.953   .     S
O284   Cu624   1.950   .     S
O285   Cu613   1.946   .     S
O286   Cu614   1.950   .     S
H287   C293    1.140   .     S
H288   C297    1.140   .     S
H289   C301    1.140   .     S
N290   C292    1.407   .     A
N290   C295    1.615   .     S
N290   Zn646   2.064   .     S
C291   C292    1.350   .     A
C291   C296    1.554   .     S
C292   C293    1.481   .     S
C293   C294    1.203   .     D
C294   C295    1.259   .     D
C295   C647    1.355   .     S
C296   C297    1.424   .     A
C297   C301    1.392   .     A
C298   C299    1.474   .     D
C298   C648    1.370   .     S
C299   C300    1.296   .     D
C301   C302    1.325   .     A
H305   C338    1.140   .     S
N306   C307    1.415   .     A
N306   C336    1.457   .     S
N306   Zn628   1.958   .     S
C307   C329    1.293   .     A
C307   C338    1.521   .     S
C308   C309    1.441   .     A
C308   C334    1.317   .     A
C308   H341    1.140   .     S
C309   C340    1.329   .     A
C309   H342    1.140   .     S
C310   C311    1.414   .     A
C310   C317    1.381   .     A
C310   C340    1.518   .     S
C311   H312    1.140   .     S
C311   C313    1.393   .     A
C313   C314    1.367   .     A
C313   C320    1.450   .     S
C314   H315    1.140   .     S
C314   C316    1.379   .     A
C316   C317    1.400   .     A
C316   C319    1.488   .     S
C317   H318    1.140   .     S
C319   O321    1.308   .     A
C319   O322    1.252   .     A
C320   O323    1.244   .     A
C320   O324    1.285   .     A
O321   Cu623   1.953   .     S
O322   Cu624   1.950   .     S
O323   Cu615   1.946   .     S
O324   Cu616   1.950   .     S
H325   C331    1.140   .     S
H326   C335    1.140   .     S
H327   C339    1.140   .     S
N328   C330    1.407   .     A
N328   C333    1.615   .     S
N328   Zn628   2.064   .     S
C329   C330    1.350   .     A
C329   C334    1.554   .     S
C330   C331    1.481   .     S
C331   C332    1.203   .     D
C332   C333    1.259   .     D
C333   C629    1.355   .     S
C334   C335    1.424   .     A
C335   C339    1.392   .     A
C336   C337    1.474   .     D
C336   C630    1.370   .     S
C337   C338    1.296   .     D
C339   C340    1.325   .     A
H343   C376    1.140   .     S
N344   C345    1.415   .     A
N344   C374    1.457   .     S
N344   Zn625   1.958   .     S
C345   C367    1.293   .     A
C345   C376    1.521   .     S
C346   C347    1.441   .     A
C346   C372    1.317   .     A
C346   H379    1.140   .     S
C347   C378    1.329   .     A
C347   H380    1.140   .     S
C348   C349    1.414   .     A
C348   C355    1.381   .     A
C348   C378    1.518   .     S
C349   H350    1.140   .     S
C349   C351    1.393   .     A
C351   C352    1.367   .     A
C351   C358    1.450   .     S
C352   H353    1.140   .     S
C352   C354    1.379   .     A
C354   C355    1.400   .     A
C354   C357    1.488   .     S
C355   H356    1.140   .     S
C357   O359    1.308   .     A
C357   O360    1.252   .     A
C358   O361    1.244   .     A
C358   O362    1.285   .     A
O359   Cu621   1.953   .     S
O360   Cu622   1.950   .     S
O361   Cu613   1.946   .     S
O362   Cu614   1.950   .     S
H363   C369    1.140   .     S
H364   C373    1.140   .     S
H365   C377    1.140   .     S
N366   C368    1.407   .     A
N366   C371    1.615   .     S
N366   Zn625   2.064   .     S
C367   C368    1.350   .     A
C367   C372    1.554   .     S
C368   C369    1.481   .     S
C369   C370    1.203   .     D
C370   C371    1.259   .     D
C371   C626    1.355   .     S
C372   C373    1.424   .     A
C373   C377    1.392   .     A
C374   C375    1.474   .     D
C374   C627    1.370   .     S
C375   C376    1.296   .     D
C377   C378    1.325   .     A
H381   C414    1.140   .     S
N382   C383    1.415   .     A
N382   C412    1.457   .     S
N382   Zn634   1.958   .     S
C383   C414    1.521   .     S
C383   C405    1.293   1_455 A
C384   C385    1.441   .     A
C384   C410    1.317   .     A
C384   H417    1.140   .     S
C385   C416    1.329   .     A
C385   H418    1.140   .     S
C386   C393    1.381   .     A
C386   C416    1.518   .     S
C386   C387    1.414   1_655 S
C387   H388    1.140   .     S
C387   C389    1.393   .     A
C387   C386    1.414   1_455 S
C389   C396    1.450   .     S
C389   C390    1.367   1_455 A
C390   H391    1.140   .     S
C390   C392    1.379   .     A
C390   C389    1.367   1_655 A
C392   C393    1.400   .     A
C392   C395    1.488   .     S
C393   H394    1.140   .     S
C395   O397    1.308   .     A
C395   O398    1.252   .     A
C396   O399    1.244   .     A
C396   O400    1.285   .     A
O397   Cu619   1.953   .     S
O398   Cu620   1.950   .     S
O399   Cu609   1.946   .     S
O400   Cu610   1.950   .     S
H401   C407    1.140   .     S
H402   C411    1.140   .     S
H403   C415    1.140   .     S
N404   C406    1.407   .     A
N404   C409    1.615   .     S
N404   Zn634   2.064   1_655 A
C405   C406    1.350   .     A
C405   C410    1.554   .     S
C405   C383    1.293   1_655 A
C406   C407    1.481   .     S
C407   C408    1.203   .     D
C408   C409    1.259   .     D
C409   C635    1.355   .     S
C410   C411    1.424   1_655 S
C411   C415    1.392   .     A
C411   C410    1.424   1_455 S
C412   C413    1.474   .     D
C412   C636    1.370   .     S
C413   C414    1.296   .     D
C415   C416    1.325   1_455 S
C416   C415    1.325   1_655 S
H419   C452    1.140   .     S
N420   C421    1.415   .     A
N420   C450    1.457   .     S
N420   Zn631   1.958   .     S
C421   C452    1.521   .     S
C421   C443    1.293   1_655 A
C422   C423    1.441   .     A
C422   C448    1.317   .     A
C422   H455    1.140   .     S
C423   C454    1.329   .     A
C423   H456    1.140   .     S
C424   C431    1.381   .     A
C424   C454    1.518   .     S
C424   C425    1.414   1_455 S
C425   H426    1.140   .     S
C425   C427    1.393   .     A
C425   C424    1.414   1_655 S
C427   C434    1.450   .     S
C427   C428    1.367   1_655 A
C428   H429    1.140   .     S
C428   C430    1.379   .     A
C428   C427    1.367   1_455 A
C430   C431    1.400   .     A
C430   C433    1.488   .     S
C431   H432    1.140   .     S
C433   O435    1.308   .     A
C433   O436    1.252   .     A
C434   O437    1.244   .     A
C434   O438    1.285   .     A
O435   Cu617   1.953   .     S
O436   Cu618   1.950   .     S
O437   Cu611   1.946   .     S
O438   Cu612   1.950   .     S
H439   C445    1.140   .     S
H440   C449    1.140   .     S
H441   C453    1.140   .     S
N442   C444    1.407   .     A
N442   C447    1.615   .     S
N442   Zn631   2.064   1_455 S
C443   C444    1.350   .     A
C443   C448    1.554   .     S
C443   C421    1.293   1_455 A
C444   C445    1.481   .     S
C445   C446    1.203   .     D
C446   C447    1.259   .     D
C447   C632    1.355   .     S
C448   C449    1.424   1_455 A
C449   C453    1.392   .     A
C449   C448    1.424   1_655 A
C450   C451    1.474   .     D
C450   C633    1.370   .     S
C451   C452    1.296   .     D
C453   C454    1.325   1_655 S
C454   C453    1.325   1_455 S
H457   C490    1.140   .     S
N458   C459    1.415   .     A
N458   C488    1.457   .     S
N458   Zn640   1.958   1_556 A
C459   C490    1.521   .     S
C459   C481    1.293   1_565 A
C460   C461    1.441   .     A
C460   C486    1.317   .     A
C460   H493    1.140   .     S
C461   C492    1.329   .     A
C461   H494    1.140   .     S
C462   C469    1.381   .     A
C462   C492    1.518   .     S
C462   C463    1.414   1_545 A
C463   H464    1.140   .     S
C463   C465    1.393   .     A
C463   C462    1.414   1_565 A
C465   C472    1.450   .     S
C465   C466    1.367   1_565 S
C466   H467    1.140   .     S
C466   C468    1.379   .     A
C466   C465    1.367   1_545 S
C468   C469    1.400   .     A
C468   C471    1.488   .     S
C469   H470    1.140   .     S
C471   O473    1.308   .     A
C471   O474    1.252   .     A
C472   O475    1.244   .     A
C472   O476    1.285   .     A
O473   Cu615   1.953   .     S
O474   Cu616   1.950   .     S
O475   Cu623   1.946   .     S
O476   Cu624   1.950   .     S
H477   C483    1.140   .     S
H478   C487    1.140   .     S
H479   C491    1.140   .     S
N480   C482    1.407   .     A
N480   C485    1.615   .     S
N480   Zn640   2.064   1_546 S
C481   C482    1.350   .     A
C481   C486    1.554   .     S
C481   C459    1.293   1_545 A
C482   C483    1.481   .     S
C483   C484    1.203   .     D
C484   C485    1.259   .     D
C485   C641    1.355   1_556 S
C486   C487    1.424   1_545 S
C487   C491    1.392   .     A
C487   C486    1.424   1_565 S
C488   C489    1.474   .     D
C488   C642    1.370   1_556 A
C489   C490    1.296   .     D
C491   C492    1.325   1_565 S
C492   C491    1.325   1_545 S
H495   C528    1.140   .     S
N496   C497    1.415   .     A
N496   C526    1.457   .     S
N496   Zn637   1.958   1_556 A
C497   C528    1.521   .     S
C497   C519    1.293   1_545 S
C498   C499    1.441   .     A
C498   C524    1.317   .     A
C498   H531    1.140   .     S
C499   C530    1.329   .     A
C499   H532    1.140   .     S
C500   C507    1.381   .     A
C500   C530    1.518   .     S
C500   C501    1.414   1_565 S
C501   H502    1.140   .     S
C501   C503    1.393   .     A
C501   C500    1.414   1_545 S
C503   C510    1.450   .     S
C503   C504    1.367   1_545 D
C504   H505    1.140   .     S
C504   C506    1.379   .     A
C504   C503    1.367   1_565 D
C506   C507    1.400   .     A
C506   C509    1.488   .     S
C507   H508    1.140   .     S
C509   O511    1.308   .     A
C509   O512    1.252   .     A
C510   O513    1.244   .     A
C510   O514    1.285   .     A
O511   Cu613   1.953   .     S
O512   Cu614   1.950   .     S
O513   Cu621   1.946   .     S
O514   Cu622   1.950   .     S
H515   C521    1.140   .     S
H516   C525    1.140   .     S
H517   C529    1.140   .     S
N518   C520    1.407   .     A
N518   C523    1.615   .     S
N518   Zn637   2.064   1_566 A
C519   C520    1.350   .     A
C519   C524    1.554   .     S
C519   C497    1.293   1_565 S
C520   C521    1.481   .     S
C521   C522    1.203   .     D
C522   C523    1.259   .     D
C523   C638    1.355   1_556 D
C524   C525    1.424   1_565 S
C525   C529    1.392   .     A
C525   C524    1.424   1_545 S
C526   C527    1.474   .     D
C526   C639    1.370   1_556 A
C527   C528    1.296   .     D
C529   C530    1.325   1_545 S
C530   C529    1.325   1_565 S
H533   C566    1.140   .     S
N534   C535    1.415   .     A
N534   C564    1.457   .     S
N534   Zn646   1.958   .     S
C535   C557    1.293   .     A
C535   C566    1.521   .     S
C536   C537    1.441   .     A
C536   C562    1.317   .     A
C536   H569    1.140   .     S
C537   C568    1.329   .     A
C537   H570    1.140   .     S
C538   C539    1.414   .     A
C538   C545    1.381   .     A
C538   C568    1.518   .     S
C539   H540    1.140   .     S
C539   C541    1.393   .     A
C541   C542    1.367   .     A
C541   C548    1.450   .     S
C542   H543    1.140   .     S
C542   C544    1.379   .     A
C544   C545    1.400   .     A
C544   C547    1.488   .     S
C545   H546    1.140   .     S
C547   O549    1.308   .     A
C547   O550    1.252   .     A
C548   O551    1.244   .     A
C548   O552    1.285   .     A
O549   Cu611   1.953   .     S
O550   Cu612   1.950   .     S
O551   Cu617   1.946   .     S
O552   Cu618   1.950   .     S
H553   C559    1.140   .     S
H554   C563    1.140   .     S
H555   C567    1.140   .     S
N556   C558    1.407   .     A
N556   C561    1.615   .     S
N556   Zn646   2.064   .     S
C557   C558    1.350   .     A
C557   C562    1.554   .     S
C558   C559    1.481   .     S
C559   C560    1.203   .     D
C560   C561    1.259   .     D
C561   C647    1.355   .     S
C562   C563    1.424   .     A
C563   C567    1.392   .     A
C564   C565    1.474   .     D
C564   C648    1.370   .     S
C565   C566    1.296   .     D
C567   C568    1.325   .     A
H571   C604    1.140   .     S
N572   C573    1.415   .     A
N572   C602    1.457   .     S
N572   Zn643   1.958   .     S
C573   C595    1.293   .     A
C573   C604    1.521   .     S
C574   C575    1.441   .     A
C574   C600    1.317   .     A
C574   H607    1.140   .     S
C575   C606    1.329   .     A
C575   H608    1.140   .     S
C576   C577    1.414   .     A
C576   C583    1.381   .     A
C576   C606    1.518   .     S
C577   H578    1.140   .     S
C577   C579    1.393   .     A
C579   C580    1.367   .     A
C579   C586    1.450   .     S
C580   H581    1.140   .     S
C580   C582    1.379   .     A
C582   C583    1.400   .     A
C582   C585    1.488   .     S
C583   H584    1.140   .     S
C585   O587    1.308   .     A
C585   O588    1.252   .     A
C586   O589    1.244   .     A
C586   O590    1.285   .     A
O587   Cu609   1.953   .     S
O588   Cu610   1.950   .     S
O589   Cu619   1.946   .     S
O590   Cu620   1.950   .     S
H591   C597    1.140   .     S
H592   C601    1.140   .     S
H593   C605    1.140   .     S
N594   C596    1.407   .     A
N594   C599    1.615   .     S
N594   Zn643   2.064   .     S
C595   C596    1.350   .     A
C595   C600    1.554   .     S
C596   C597    1.481   .     S
C597   C598    1.203   .     D
C598   C599    1.259   .     D
C599   C644    1.355   .     S
C600   C601    1.424   .     A
C601   C605    1.392   .     A
C602   C603    1.474   .     D
C602   C645    1.370   .     S
C603   C604    1.296   .     D
C605   C606    1.325   .     A
Cu609  Cu610   2.657   .     S
Cu611  Cu612   2.657   .     S
Cu613  Cu614   2.657   .     S
Cu615  Cu616   2.657   .     S
Cu617  Cu618   2.657   .     S
Cu619  Cu620   2.657   .     S
Cu621  Cu622   2.657   .     S
Cu623  Cu624   2.657   .     S
Zn631  N78     1.958   1_554 S
Zn631  N100    2.064   1_654 A
Zn631  N442    2.064   1_655 S
C632   C105    1.355   1_554 S
C633   C108    1.370   1_554 A
Zn634  N116    1.958   1_554 S
Zn634  N138    2.064   1_454 A
Zn634  N404    2.064   1_455 A
C635   C143    1.355   1_554 S
C636   C146    1.370   1_554 A
Zn637  N176    2.064   1_545 S
Zn637  N496    1.958   1_554 A
Zn637  N518    2.064   1_544 A
C638   C523    1.355   1_554 D
C639   C526    1.370   1_554 A
Zn640  N214    2.064   1_565 A
Zn640  N458    1.958   1_554 A
Zn640  N480    2.064   1_564 S
C641   C485    1.355   1_554 S
C642   C488    1.370   1_554 A
