data_RIFSOQ_clean
_audit_creation_date              2014-07-02
_audit_creation_method            'Materials Studio'
_symmetry_space_group_name_H-M    'P1'
_symmetry_Int_Tables_number       1
_symmetry_cell_setting            triclinic
loop_
_symmetry_equiv_pos_as_xyz
  x,y,z
_cell_length_a                    45.3067
_cell_length_b                    45.3067
_cell_length_c                    45.3067
_cell_angle_alpha                 60.0000
_cell_angle_beta                  60.0000
_cell_angle_gamma                 60.0000
loop_
_atom_site_label
_atom_site_type_symbol
_atom_site_fract_x
_atom_site_fract_y
_atom_site_fract_z
_atom_site_U_iso_or_equiv
_atom_site_adp_type
_atom_site_occupancy
C16    C     0.06058   0.29344   0.68630   0.00000  Uiso   1.00
H17    H     0.03970   0.31430   0.68770   0.00000  Uiso   1.00
C18    C     0.09260   0.29806   0.66044   0.00000  Uiso   1.00
H19    H     0.09360   0.32160   0.64460   0.00000  Uiso   1.00
C20    C     0.12404   0.26774   0.65752   0.00000  Uiso   1.00
H21    H     0.14650   0.27010   0.63950   0.00000  Uiso   1.00
C22    C     0.12086   0.23410   0.68226   0.00000  Uiso   1.00
C23    C     0.08719   0.23221   0.70773   0.00000  Uiso   1.00
H24    H     0.08540   0.20920   0.72460   0.00000  Uiso   1.00
C25    C     0.22878   0.96166   0.83598   0.00000  Uiso   1.00
C26    C     0.20598   0.07476   0.73466   0.00000  Uiso   1.00
H27    H     0.22520   0.07520   0.71240   0.00000  Uiso   1.00
C28    C     0.17795   0.10685   0.73785   0.00000  Uiso   1.00
C29    C     0.14931   0.10615   0.77093   0.00000  Uiso   1.00
H30    H     0.12940   0.12760   0.77380   0.00000  Uiso   1.00
C31    C     0.15085   0.07371   0.79901   0.00000  Uiso   1.00
H32    H     0.13230   0.07230   0.82190   0.00000  Uiso   1.00
C33    C     0.18006   0.04286   0.79336   0.00000  Uiso   1.00
H34    H     0.18070   0.02070   0.81290   0.00000  Uiso   1.00
C35    C     0.17751   0.14029   0.70609   0.00000  Uiso   1.00
C36    C     0.20265   0.16815   0.64671   0.00000  Uiso   1.00
C37    C     0.15130   0.20000   0.68024   0.00000  Uiso   1.00
C38    C     0.23056   0.16620   0.61142   0.00000  Uiso   1.00
C39    C     0.25958   0.13442   0.60752   0.00000  Uiso   1.00
H40    H     0.26230   0.11310   0.62790   0.00000  Uiso   1.00
C41    C     0.28417   0.13469   0.57351   0.00000  Uiso   1.00
H42    H     0.30420   0.11360   0.57000   0.00000  Uiso   1.00
C43    C     0.27927   0.16669   0.54395   0.00000  Uiso   1.00
H44    H     0.29640   0.16660   0.52060   0.00000  Uiso   1.00
C45    C     0.22792   0.19660   0.58036   0.00000  Uiso   1.00
H46    H     0.20820   0.21800   0.58300   0.00000  Uiso   1.00
C47    C     0.20374   0.29754   0.55284   0.00000  Uiso   1.00
C48    C     0.29618   0.23834   0.53848   0.00000  Uiso   1.00
H49    H     0.27400   0.24020   0.55800   0.00000  Uiso   1.00
C50    C     0.32631   0.23073   0.54423   0.00000  Uiso   1.00
H51    H     0.32500   0.22740   0.56720   0.00000  Uiso   1.00
C52    C     0.35948   0.22790   0.51574   0.00000  Uiso   1.00
H53    H     0.38100   0.22240   0.51900   0.00000  Uiso   1.00
C54    C     0.35970   0.23356   0.48240   0.00000  Uiso   1.00
C55    C     0.32788   0.24094   0.47880   0.00000  Uiso   1.00
H56    H     0.32850   0.24430   0.45610   0.00000  Uiso   1.00
C57    C     0.39349   0.23249   0.45083   0.00000  Uiso   1.00
N58    N     0.24443   0.96985   0.80469   0.00000  Uiso   1.00
N59    N     0.05716   0.26114   0.70960   0.00000  Uiso   1.00
N60    N     0.20700   0.04290   0.76206   0.00000  Uiso   1.00
N61    N     0.15022   0.17072   0.71004   0.00000  Uiso   1.00
N62    N     0.17730   0.20038   0.64774   0.00000  Uiso   1.00
N63    N     0.20462   0.13724   0.67498   0.00000  Uiso   1.00
N64    N     0.25152   0.19724   0.54732   0.00000  Uiso   1.00
N65    N     0.21814   0.27938   0.53550   0.00000  Uiso   1.00
N66    N     0.29595   0.24355   0.50623   0.00000  Uiso   1.00
N67    N     0.42129   0.23233   0.45357   0.00000  Uiso   1.00
S68    S     0.20506   0.95100   0.87861   0.00000  Uiso   1.00
S69    S     0.18323   0.32331   0.57723   0.00000  Uiso   1.00
C85    C     0.29344   0.06058   0.45968   0.00000  Uiso   1.00
H86    H     0.31430   0.03970   0.45830   0.00000  Uiso   1.00
C87    C     0.29806   0.09260   0.44890   0.00000  Uiso   1.00
H88    H     0.32160   0.09360   0.44020   0.00000  Uiso   1.00
C89    C     0.26774   0.12404   0.45070   0.00000  Uiso   1.00
H90    H     0.27010   0.14650   0.44390   0.00000  Uiso   1.00
C91    C     0.23410   0.12086   0.46278   0.00000  Uiso   1.00
C92    C     0.23221   0.08719   0.47287   0.00000  Uiso   1.00
H93    H     0.20920   0.08540   0.48080   0.00000  Uiso   1.00
C94    C     0.96166   0.22878   0.47358   0.00000  Uiso   1.00
C95    C     0.07476   0.20598   0.48460   0.00000  Uiso   1.00
H96    H     0.07520   0.22520   0.48720   0.00000  Uiso   1.00
C97    C     0.10685   0.17795   0.47735   0.00000  Uiso   1.00
C98    C     0.10615   0.14931   0.47361   0.00000  Uiso   1.00
H99    H     0.12760   0.12940   0.46920   0.00000  Uiso   1.00
C100   C     0.07371   0.15085   0.47643   0.00000  Uiso   1.00
H101   H     0.07230   0.13230   0.47350   0.00000  Uiso   1.00
C102   C     0.04286   0.18006   0.48372   0.00000  Uiso   1.00
H103   H     0.02070   0.18070   0.48570   0.00000  Uiso   1.00
C104   C     0.14029   0.17751   0.47611   0.00000  Uiso   1.00
C105   C     0.16815   0.20265   0.48249   0.00000  Uiso   1.00
C106   C     0.20000   0.15130   0.46846   0.00000  Uiso   1.00
C107   C     0.16620   0.23056   0.49182   0.00000  Uiso   1.00
C108   C     0.13442   0.25958   0.49848   0.00000  Uiso   1.00
H109   H     0.11310   0.26230   0.49670   0.00000  Uiso   1.00
C110   C     0.13469   0.28417   0.50763   0.00000  Uiso   1.00
H111   H     0.11360   0.30420   0.51220   0.00000  Uiso   1.00
C112   C     0.16669   0.27927   0.51009   0.00000  Uiso   1.00
H113   H     0.16660   0.29640   0.51640   0.00000  Uiso   1.00
C114   C     0.19660   0.22792   0.49512   0.00000  Uiso   1.00
H115   H     0.21800   0.20820   0.49080   0.00000  Uiso   1.00
C116   C     0.29754   0.20374   0.44588   0.00000  Uiso   1.00
C117   C     0.23834   0.29618   0.42700   0.00000  Uiso   1.00
H118   H     0.24020   0.27400   0.42780   0.00000  Uiso   1.00
C119   C     0.23073   0.32631   0.39873   0.00000  Uiso   1.00
H120   H     0.22740   0.32500   0.38040   0.00000  Uiso   1.00
C121   C     0.22790   0.35948   0.39688   0.00000  Uiso   1.00
H122   H     0.22240   0.38100   0.37760   0.00000  Uiso   1.00
C123   C     0.23356   0.35970   0.42434   0.00000  Uiso   1.00
C124   C     0.24094   0.32788   0.45238   0.00000  Uiso   1.00
H125   H     0.24430   0.32850   0.47110   0.00000  Uiso   1.00
C126   C     0.23249   0.39349   0.42319   0.00000  Uiso   1.00
N127   N     0.96985   0.24443   0.48103   0.00000  Uiso   1.00
N128   N     0.26114   0.05716   0.47210   0.00000  Uiso   1.00
N129   N     0.04290   0.20700   0.48804   0.00000  Uiso   1.00
N130   N     0.17072   0.15022   0.46902   0.00000  Uiso   1.00
N131   N     0.20038   0.17730   0.47458   0.00000  Uiso   1.00
N132   N     0.13724   0.20462   0.48316   0.00000  Uiso   1.00
N133   N     0.19724   0.25152   0.50392   0.00000  Uiso   1.00
N134   N     0.27938   0.21814   0.46698   0.00000  Uiso   1.00
N135   N     0.24355   0.29595   0.45427   0.00000  Uiso   1.00
N136   N     0.23233   0.42129   0.39281   0.00000  Uiso   1.00
S137   S     0.95100   0.20506   0.46534   0.00000  Uiso   1.00
S138   S     0.32331   0.18323   0.41623   0.00000  Uiso   1.00
C154   C     0.68630   0.45968   0.06058   0.00000  Uiso   1.00
H155   H     0.68770   0.45830   0.03970   0.00000  Uiso   1.00
C156   C     0.66044   0.44890   0.09260   0.00000  Uiso   1.00
H157   H     0.64460   0.44020   0.09360   0.00000  Uiso   1.00
C158   C     0.65752   0.45070   0.12404   0.00000  Uiso   1.00
H159   H     0.63950   0.44390   0.14650   0.00000  Uiso   1.00
C160   C     0.68226   0.46278   0.12086   0.00000  Uiso   1.00
C161   C     0.70773   0.47287   0.08719   0.00000  Uiso   1.00
H162   H     0.72460   0.48080   0.08540   0.00000  Uiso   1.00
C163   C     0.83598   0.47358   0.22878   0.00000  Uiso   1.00
C164   C     0.73466   0.48460   0.20598   0.00000  Uiso   1.00
H165   H     0.71240   0.48720   0.22520   0.00000  Uiso   1.00
C166   C     0.73785   0.47735   0.17795   0.00000  Uiso   1.00
C167   C     0.77093   0.47361   0.14931   0.00000  Uiso   1.00
H168   H     0.77380   0.46920   0.12940   0.00000  Uiso   1.00
C169   C     0.79901   0.47643   0.15085   0.00000  Uiso   1.00
H170   H     0.82190   0.47350   0.13230   0.00000  Uiso   1.00
C171   C     0.79336   0.48372   0.18006   0.00000  Uiso   1.00
H172   H     0.81290   0.48570   0.18070   0.00000  Uiso   1.00
C173   C     0.70609   0.47611   0.17751   0.00000  Uiso   1.00
C174   C     0.64671   0.48249   0.20265   0.00000  Uiso   1.00
C175   C     0.68024   0.46846   0.15130   0.00000  Uiso   1.00
C176   C     0.61142   0.49182   0.23056   0.00000  Uiso   1.00
C177   C     0.60752   0.49848   0.25958   0.00000  Uiso   1.00
H178   H     0.62790   0.49670   0.26230   0.00000  Uiso   1.00
C179   C     0.57351   0.50763   0.28417   0.00000  Uiso   1.00
H180   H     0.57000   0.51220   0.30420   0.00000  Uiso   1.00
C181   C     0.54395   0.51009   0.27927   0.00000  Uiso   1.00
H182   H     0.52060   0.51640   0.29640   0.00000  Uiso   1.00
C183   C     0.58036   0.49512   0.22792   0.00000  Uiso   1.00
H184   H     0.58300   0.49080   0.20820   0.00000  Uiso   1.00
C185   C     0.55284   0.44588   0.20374   0.00000  Uiso   1.00
C186   C     0.53848   0.42700   0.29618   0.00000  Uiso   1.00
H187   H     0.55800   0.42780   0.27400   0.00000  Uiso   1.00
C188   C     0.54423   0.39873   0.32631   0.00000  Uiso   1.00
H189   H     0.56720   0.38040   0.32500   0.00000  Uiso   1.00
C190   C     0.51574   0.39688   0.35948   0.00000  Uiso   1.00
H191   H     0.51900   0.37760   0.38100   0.00000  Uiso   1.00
C192   C     0.48240   0.42434   0.35970   0.00000  Uiso   1.00
C193   C     0.47880   0.45238   0.32788   0.00000  Uiso   1.00
H194   H     0.45610   0.47110   0.32850   0.00000  Uiso   1.00
C195   C     0.45083   0.42319   0.39349   0.00000  Uiso   1.00
N196   N     0.80469   0.48103   0.24443   0.00000  Uiso   1.00
N197   N     0.70960   0.47210   0.05716   0.00000  Uiso   1.00
N198   N     0.76206   0.48804   0.20700   0.00000  Uiso   1.00
N199   N     0.71004   0.46902   0.15022   0.00000  Uiso   1.00
N200   N     0.64774   0.47458   0.17730   0.00000  Uiso   1.00
N201   N     0.67498   0.48316   0.20462   0.00000  Uiso   1.00
N202   N     0.54732   0.50392   0.25152   0.00000  Uiso   1.00
N203   N     0.53550   0.46698   0.21814   0.00000  Uiso   1.00
N204   N     0.50623   0.45427   0.29595   0.00000  Uiso   1.00
N205   N     0.45357   0.39281   0.42129   0.00000  Uiso   1.00
S206   S     0.87861   0.46534   0.20506   0.00000  Uiso   1.00
S207   S     0.57723   0.41623   0.18323   0.00000  Uiso   1.00
C223   C     0.45968   0.68630   0.29344   0.00000  Uiso   1.00
H224   H     0.45830   0.68770   0.31430   0.00000  Uiso   1.00
C225   C     0.44890   0.66044   0.29806   0.00000  Uiso   1.00
H226   H     0.44020   0.64460   0.32160   0.00000  Uiso   1.00
C227   C     0.45070   0.65752   0.26774   0.00000  Uiso   1.00
H228   H     0.44390   0.63950   0.27010   0.00000  Uiso   1.00
C229   C     0.46278   0.68226   0.23410   0.00000  Uiso   1.00
C230   C     0.47287   0.70773   0.23221   0.00000  Uiso   1.00
H231   H     0.48080   0.72460   0.20920   0.00000  Uiso   1.00
C232   C     0.47358   0.83598   0.96166   0.00000  Uiso   1.00
C233   C     0.48460   0.73466   0.07476   0.00000  Uiso   1.00
H234   H     0.48720   0.71240   0.07520   0.00000  Uiso   1.00
C235   C     0.47735   0.73785   0.10685   0.00000  Uiso   1.00
C236   C     0.47361   0.77093   0.10615   0.00000  Uiso   1.00
H237   H     0.46920   0.77380   0.12760   0.00000  Uiso   1.00
C238   C     0.47643   0.79901   0.07371   0.00000  Uiso   1.00
H239   H     0.47350   0.82190   0.07230   0.00000  Uiso   1.00
C240   C     0.48372   0.79336   0.04286   0.00000  Uiso   1.00
H241   H     0.48570   0.81290   0.02070   0.00000  Uiso   1.00
C242   C     0.47611   0.70609   0.14029   0.00000  Uiso   1.00
C243   C     0.48249   0.64671   0.16815   0.00000  Uiso   1.00
C244   C     0.46846   0.68024   0.20000   0.00000  Uiso   1.00
C245   C     0.49182   0.61142   0.16620   0.00000  Uiso   1.00
C246   C     0.49848   0.60752   0.13442   0.00000  Uiso   1.00
H247   H     0.49670   0.62790   0.11310   0.00000  Uiso   1.00
C248   C     0.50763   0.57351   0.13469   0.00000  Uiso   1.00
H249   H     0.51220   0.57000   0.11360   0.00000  Uiso   1.00
C250   C     0.51009   0.54395   0.16669   0.00000  Uiso   1.00
H251   H     0.51640   0.52060   0.16660   0.00000  Uiso   1.00
C252   C     0.49512   0.58036   0.19660   0.00000  Uiso   1.00
H253   H     0.49080   0.58300   0.21800   0.00000  Uiso   1.00
C254   C     0.44588   0.55284   0.29754   0.00000  Uiso   1.00
C255   C     0.42700   0.53848   0.23834   0.00000  Uiso   1.00
H256   H     0.42780   0.55800   0.24020   0.00000  Uiso   1.00
C257   C     0.39873   0.54423   0.23073   0.00000  Uiso   1.00
H258   H     0.38040   0.56720   0.22740   0.00000  Uiso   1.00
C259   C     0.39688   0.51574   0.22790   0.00000  Uiso   1.00
H260   H     0.37760   0.51900   0.22240   0.00000  Uiso   1.00
C261   C     0.42434   0.48240   0.23356   0.00000  Uiso   1.00
C262   C     0.45238   0.47880   0.24094   0.00000  Uiso   1.00
H263   H     0.47110   0.45610   0.24430   0.00000  Uiso   1.00
C264   C     0.42319   0.45083   0.23249   0.00000  Uiso   1.00
N265   N     0.48103   0.80469   0.96985   0.00000  Uiso   1.00
N266   N     0.47210   0.70960   0.26114   0.00000  Uiso   1.00
N267   N     0.48804   0.76206   0.04290   0.00000  Uiso   1.00
N268   N     0.46902   0.71004   0.17072   0.00000  Uiso   1.00
N269   N     0.47458   0.64774   0.20038   0.00000  Uiso   1.00
N270   N     0.48316   0.67498   0.13724   0.00000  Uiso   1.00
N271   N     0.50392   0.54732   0.19724   0.00000  Uiso   1.00
N272   N     0.46698   0.53550   0.27938   0.00000  Uiso   1.00
N273   N     0.45427   0.50623   0.24355   0.00000  Uiso   1.00
N274   N     0.39281   0.45357   0.23233   0.00000  Uiso   1.00
S275   S     0.46534   0.87861   0.95100   0.00000  Uiso   1.00
S276   S     0.41623   0.57723   0.32331   0.00000  Uiso   1.00
C292   C     0.68630   0.06058   0.29344   0.00000  Uiso   1.00
H293   H     0.68770   0.03970   0.31430   0.00000  Uiso   1.00
C294   C     0.66044   0.09260   0.29806   0.00000  Uiso   1.00
H295   H     0.64460   0.09360   0.32160   0.00000  Uiso   1.00
C296   C     0.65752   0.12404   0.26774   0.00000  Uiso   1.00
H297   H     0.63950   0.14650   0.27010   0.00000  Uiso   1.00
C298   C     0.68226   0.12086   0.23410   0.00000  Uiso   1.00
C299   C     0.70773   0.08719   0.23221   0.00000  Uiso   1.00
H300   H     0.72460   0.08540   0.20920   0.00000  Uiso   1.00
C301   C     0.83598   0.22878   0.96166   0.00000  Uiso   1.00
C302   C     0.73466   0.20598   0.07476   0.00000  Uiso   1.00
H303   H     0.71240   0.22520   0.07520   0.00000  Uiso   1.00
C304   C     0.73785   0.17795   0.10685   0.00000  Uiso   1.00
C305   C     0.77093   0.14931   0.10615   0.00000  Uiso   1.00
H306   H     0.77380   0.12940   0.12760   0.00000  Uiso   1.00
C307   C     0.79901   0.15085   0.07371   0.00000  Uiso   1.00
H308   H     0.82190   0.13230   0.07230   0.00000  Uiso   1.00
C309   C     0.79336   0.18006   0.04286   0.00000  Uiso   1.00
H310   H     0.81290   0.18070   0.02070   0.00000  Uiso   1.00
C311   C     0.70609   0.17751   0.14029   0.00000  Uiso   1.00
C312   C     0.64671   0.20265   0.16815   0.00000  Uiso   1.00
C313   C     0.68024   0.15130   0.20000   0.00000  Uiso   1.00
C314   C     0.61142   0.23056   0.16620   0.00000  Uiso   1.00
C315   C     0.60752   0.25958   0.13442   0.00000  Uiso   1.00
H316   H     0.62790   0.26230   0.11310   0.00000  Uiso   1.00
C317   C     0.57351   0.28417   0.13469   0.00000  Uiso   1.00
H318   H     0.57000   0.30420   0.11360   0.00000  Uiso   1.00
C319   C     0.54395   0.27927   0.16669   0.00000  Uiso   1.00
H320   H     0.52060   0.29640   0.16660   0.00000  Uiso   1.00
C321   C     0.58036   0.22792   0.19660   0.00000  Uiso   1.00
H322   H     0.58300   0.20820   0.21800   0.00000  Uiso   1.00
C323   C     0.55284   0.20374   0.29754   0.00000  Uiso   1.00
C324   C     0.53848   0.29618   0.23834   0.00000  Uiso   1.00
H325   H     0.55800   0.27400   0.24020   0.00000  Uiso   1.00
C326   C     0.54423   0.32631   0.23073   0.00000  Uiso   1.00
H327   H     0.56720   0.32500   0.22740   0.00000  Uiso   1.00
C328   C     0.51574   0.35948   0.22790   0.00000  Uiso   1.00
H329   H     0.51900   0.38100   0.22240   0.00000  Uiso   1.00
C330   C     0.48240   0.35970   0.23356   0.00000  Uiso   1.00
C331   C     0.47880   0.32788   0.24094   0.00000  Uiso   1.00
H332   H     0.45610   0.32850   0.24430   0.00000  Uiso   1.00
C333   C     0.45083   0.39349   0.23249   0.00000  Uiso   1.00
N334   N     0.80469   0.24443   0.96985   0.00000  Uiso   1.00
N335   N     0.70960   0.05716   0.26114   0.00000  Uiso   1.00
N336   N     0.76206   0.20700   0.04290   0.00000  Uiso   1.00
N337   N     0.71004   0.15022   0.17072   0.00000  Uiso   1.00
N338   N     0.64774   0.17730   0.20038   0.00000  Uiso   1.00
N339   N     0.67498   0.20462   0.13724   0.00000  Uiso   1.00
N340   N     0.54732   0.25152   0.19724   0.00000  Uiso   1.00
N341   N     0.53550   0.21814   0.27938   0.00000  Uiso   1.00
N342   N     0.50623   0.29595   0.24355   0.00000  Uiso   1.00
N343   N     0.45357   0.42129   0.23233   0.00000  Uiso   1.00
S344   S     0.87861   0.20506   0.95100   0.00000  Uiso   1.00
S345   S     0.57723   0.18323   0.32331   0.00000  Uiso   1.00
C361   C     0.45968   0.29344   0.06058   0.00000  Uiso   1.00
H362   H     0.45830   0.31430   0.03970   0.00000  Uiso   1.00
C363   C     0.44890   0.29806   0.09260   0.00000  Uiso   1.00
H364   H     0.44020   0.32160   0.09360   0.00000  Uiso   1.00
C365   C     0.45070   0.26774   0.12404   0.00000  Uiso   1.00
H366   H     0.44390   0.27010   0.14650   0.00000  Uiso   1.00
C367   C     0.46278   0.23410   0.12086   0.00000  Uiso   1.00
C368   C     0.47287   0.23221   0.08719   0.00000  Uiso   1.00
H369   H     0.48080   0.20920   0.08540   0.00000  Uiso   1.00
C370   C     0.47358   0.96166   0.22878   0.00000  Uiso   1.00
C371   C     0.48460   0.07476   0.20598   0.00000  Uiso   1.00
H372   H     0.48720   0.07520   0.22520   0.00000  Uiso   1.00
C373   C     0.47735   0.10685   0.17795   0.00000  Uiso   1.00
C374   C     0.47361   0.10615   0.14931   0.00000  Uiso   1.00
H375   H     0.46920   0.12760   0.12940   0.00000  Uiso   1.00
C376   C     0.47643   0.07371   0.15085   0.00000  Uiso   1.00
H377   H     0.47350   0.07230   0.13230   0.00000  Uiso   1.00
C378   C     0.48372   0.04286   0.18006   0.00000  Uiso   1.00
H379   H     0.48570   0.02070   0.18070   0.00000  Uiso   1.00
C380   C     0.47611   0.14029   0.17751   0.00000  Uiso   1.00
C381   C     0.48249   0.16815   0.20265   0.00000  Uiso   1.00
C382   C     0.46846   0.20000   0.15130   0.00000  Uiso   1.00
C383   C     0.49182   0.16620   0.23056   0.00000  Uiso   1.00
C384   C     0.49848   0.13442   0.25958   0.00000  Uiso   1.00
H385   H     0.49670   0.11310   0.26230   0.00000  Uiso   1.00
C386   C     0.50763   0.13469   0.28417   0.00000  Uiso   1.00
H387   H     0.51220   0.11360   0.30420   0.00000  Uiso   1.00
C388   C     0.51009   0.16669   0.27927   0.00000  Uiso   1.00
H389   H     0.51640   0.16660   0.29640   0.00000  Uiso   1.00
C390   C     0.49512   0.19660   0.22792   0.00000  Uiso   1.00
H391   H     0.49080   0.21800   0.20820   0.00000  Uiso   1.00
C392   C     0.44588   0.29754   0.20374   0.00000  Uiso   1.00
C393   C     0.42700   0.23834   0.29618   0.00000  Uiso   1.00
H394   H     0.42780   0.24020   0.27400   0.00000  Uiso   1.00
C395   C     0.39873   0.23073   0.32631   0.00000  Uiso   1.00
H396   H     0.38040   0.22740   0.32500   0.00000  Uiso   1.00
C397   C     0.39688   0.22790   0.35948   0.00000  Uiso   1.00
H398   H     0.37760   0.22240   0.38100   0.00000  Uiso   1.00
C399   C     0.42434   0.23356   0.35970   0.00000  Uiso   1.00
C400   C     0.45238   0.24094   0.32788   0.00000  Uiso   1.00
H401   H     0.47110   0.24430   0.32850   0.00000  Uiso   1.00
C402   C     0.42319   0.23249   0.39349   0.00000  Uiso   1.00
N403   N     0.48103   0.96985   0.24443   0.00000  Uiso   1.00
N404   N     0.47210   0.26114   0.05716   0.00000  Uiso   1.00
N405   N     0.48804   0.04290   0.20700   0.00000  Uiso   1.00
N406   N     0.46902   0.17072   0.15022   0.00000  Uiso   1.00
N407   N     0.47458   0.20038   0.17730   0.00000  Uiso   1.00
N408   N     0.48316   0.13724   0.20462   0.00000  Uiso   1.00
N409   N     0.50392   0.19724   0.25152   0.00000  Uiso   1.00
N410   N     0.46698   0.27938   0.21814   0.00000  Uiso   1.00
N411   N     0.45427   0.24355   0.29595   0.00000  Uiso   1.00
N412   N     0.39281   0.23233   0.42129   0.00000  Uiso   1.00
S413   S     0.46534   0.95100   0.20506   0.00000  Uiso   1.00
S414   S     0.41623   0.32331   0.18323   0.00000  Uiso   1.00
C430   C     0.06058   0.68630   0.45968   0.00000  Uiso   1.00
H431   H     0.03970   0.68770   0.45830   0.00000  Uiso   1.00
C432   C     0.09260   0.66044   0.44890   0.00000  Uiso   1.00
H433   H     0.09360   0.64460   0.44020   0.00000  Uiso   1.00
C434   C     0.12404   0.65752   0.45070   0.00000  Uiso   1.00
H435   H     0.14650   0.63950   0.44390   0.00000  Uiso   1.00
C436   C     0.12086   0.68226   0.46278   0.00000  Uiso   1.00
C437   C     0.08719   0.70773   0.47287   0.00000  Uiso   1.00
H438   H     0.08540   0.72460   0.48080   0.00000  Uiso   1.00
C439   C     0.22878   0.83598   0.47358   0.00000  Uiso   1.00
C440   C     0.20598   0.73466   0.48460   0.00000  Uiso   1.00
H441   H     0.22520   0.71240   0.48720   0.00000  Uiso   1.00
C442   C     0.17795   0.73785   0.47735   0.00000  Uiso   1.00
C443   C     0.14931   0.77093   0.47361   0.00000  Uiso   1.00
H444   H     0.12940   0.77380   0.46920   0.00000  Uiso   1.00
C445   C     0.15085   0.79901   0.47643   0.00000  Uiso   1.00
H446   H     0.13230   0.82190   0.47350   0.00000  Uiso   1.00
C447   C     0.18006   0.79336   0.48372   0.00000  Uiso   1.00
H448   H     0.18070   0.81290   0.48570   0.00000  Uiso   1.00
C449   C     0.17751   0.70609   0.47611   0.00000  Uiso   1.00
C450   C     0.20265   0.64671   0.48249   0.00000  Uiso   1.00
C451   C     0.15130   0.68024   0.46846   0.00000  Uiso   1.00
C452   C     0.23056   0.61142   0.49182   0.00000  Uiso   1.00
C453   C     0.25958   0.60752   0.49848   0.00000  Uiso   1.00
H454   H     0.26230   0.62790   0.49670   0.00000  Uiso   1.00
C455   C     0.28417   0.57351   0.50763   0.00000  Uiso   1.00
H456   H     0.30420   0.57000   0.51220   0.00000  Uiso   1.00
C457   C     0.27927   0.54395   0.51009   0.00000  Uiso   1.00
H458   H     0.29640   0.52060   0.51640   0.00000  Uiso   1.00
C459   C     0.22792   0.58036   0.49512   0.00000  Uiso   1.00
H460   H     0.20820   0.58300   0.49080   0.00000  Uiso   1.00
C461   C     0.20374   0.55284   0.44588   0.00000  Uiso   1.00
C462   C     0.29618   0.53848   0.42700   0.00000  Uiso   1.00
H463   H     0.27400   0.55800   0.42780   0.00000  Uiso   1.00
C464   C     0.32631   0.54423   0.39873   0.00000  Uiso   1.00
H465   H     0.32500   0.56720   0.38040   0.00000  Uiso   1.00
C466   C     0.35948   0.51574   0.39688   0.00000  Uiso   1.00
H467   H     0.38100   0.51900   0.37760   0.00000  Uiso   1.00
C468   C     0.35970   0.48240   0.42434   0.00000  Uiso   1.00
C469   C     0.32788   0.47880   0.45238   0.00000  Uiso   1.00
H470   H     0.32850   0.45610   0.47110   0.00000  Uiso   1.00
C471   C     0.39349   0.45083   0.42319   0.00000  Uiso   1.00
N472   N     0.24443   0.80469   0.48103   0.00000  Uiso   1.00
N473   N     0.05716   0.70960   0.47210   0.00000  Uiso   1.00
N474   N     0.20700   0.76206   0.48804   0.00000  Uiso   1.00
N475   N     0.15022   0.71004   0.46902   0.00000  Uiso   1.00
N476   N     0.17730   0.64774   0.47458   0.00000  Uiso   1.00
N477   N     0.20462   0.67498   0.48316   0.00000  Uiso   1.00
N478   N     0.25152   0.54732   0.50392   0.00000  Uiso   1.00
N479   N     0.21814   0.53550   0.46698   0.00000  Uiso   1.00
N480   N     0.29595   0.50623   0.45427   0.00000  Uiso   1.00
N481   N     0.42129   0.45357   0.39281   0.00000  Uiso   1.00
S482   S     0.20506   0.87861   0.46534   0.00000  Uiso   1.00
S483   S     0.18323   0.57723   0.41623   0.00000  Uiso   1.00
C499   C     0.29344   0.45968   0.68630   0.00000  Uiso   1.00
H500   H     0.31430   0.45830   0.68770   0.00000  Uiso   1.00
C501   C     0.29806   0.44890   0.66044   0.00000  Uiso   1.00
H502   H     0.32160   0.44020   0.64460   0.00000  Uiso   1.00
C503   C     0.26774   0.45070   0.65752   0.00000  Uiso   1.00
H504   H     0.27010   0.44390   0.63950   0.00000  Uiso   1.00
C505   C     0.23410   0.46278   0.68226   0.00000  Uiso   1.00
C506   C     0.23221   0.47287   0.70773   0.00000  Uiso   1.00
H507   H     0.20920   0.48080   0.72460   0.00000  Uiso   1.00
C508   C     0.96166   0.47358   0.83598   0.00000  Uiso   1.00
C509   C     0.07476   0.48460   0.73466   0.00000  Uiso   1.00
H510   H     0.07520   0.48720   0.71240   0.00000  Uiso   1.00
C511   C     0.10685   0.47735   0.73785   0.00000  Uiso   1.00
C512   C     0.10615   0.47361   0.77093   0.00000  Uiso   1.00
H513   H     0.12760   0.46920   0.77380   0.00000  Uiso   1.00
C514   C     0.07371   0.47643   0.79901   0.00000  Uiso   1.00
H515   H     0.07230   0.47350   0.82190   0.00000  Uiso   1.00
C516   C     0.04286   0.48372   0.79336   0.00000  Uiso   1.00
H517   H     0.02070   0.48570   0.81290   0.00000  Uiso   1.00
C518   C     0.14029   0.47611   0.70609   0.00000  Uiso   1.00
C519   C     0.16815   0.48249   0.64671   0.00000  Uiso   1.00
C520   C     0.20000   0.46846   0.68024   0.00000  Uiso   1.00
C521   C     0.16620   0.49182   0.61142   0.00000  Uiso   1.00
C522   C     0.13442   0.49848   0.60752   0.00000  Uiso   1.00
H523   H     0.11310   0.49670   0.62790   0.00000  Uiso   1.00
C524   C     0.13469   0.50763   0.57351   0.00000  Uiso   1.00
H525   H     0.11360   0.51220   0.57000   0.00000  Uiso   1.00
C526   C     0.16669   0.51009   0.54395   0.00000  Uiso   1.00
H527   H     0.16660   0.51640   0.52060   0.00000  Uiso   1.00
C528   C     0.19660   0.49512   0.58036   0.00000  Uiso   1.00
H529   H     0.21800   0.49080   0.58300   0.00000  Uiso   1.00
C530   C     0.29754   0.44588   0.55284   0.00000  Uiso   1.00
C531   C     0.23834   0.42700   0.53848   0.00000  Uiso   1.00
H532   H     0.24020   0.42780   0.55800   0.00000  Uiso   1.00
C533   C     0.23073   0.39873   0.54423   0.00000  Uiso   1.00
H534   H     0.22740   0.38040   0.56720   0.00000  Uiso   1.00
C535   C     0.22790   0.39688   0.51574   0.00000  Uiso   1.00
H536   H     0.22240   0.37760   0.51900   0.00000  Uiso   1.00
C537   C     0.23356   0.42434   0.48240   0.00000  Uiso   1.00
C538   C     0.24094   0.45238   0.47880   0.00000  Uiso   1.00
H539   H     0.24430   0.47110   0.45610   0.00000  Uiso   1.00
C540   C     0.23249   0.42319   0.45083   0.00000  Uiso   1.00
N541   N     0.96985   0.48103   0.80469   0.00000  Uiso   1.00
N542   N     0.26114   0.47210   0.70960   0.00000  Uiso   1.00
N543   N     0.04290   0.48804   0.76206   0.00000  Uiso   1.00
N544   N     0.17072   0.46902   0.71004   0.00000  Uiso   1.00
N545   N     0.20038   0.47458   0.64774   0.00000  Uiso   1.00
N546   N     0.13724   0.48316   0.67498   0.00000  Uiso   1.00
N547   N     0.19724   0.50392   0.54732   0.00000  Uiso   1.00
N548   N     0.27938   0.46698   0.53550   0.00000  Uiso   1.00
N549   N     0.24355   0.45427   0.50623   0.00000  Uiso   1.00
N550   N     0.23233   0.39281   0.45357   0.00000  Uiso   1.00
S551   S     0.95100   0.46534   0.87861   0.00000  Uiso   1.00
S552   S     0.32331   0.41623   0.57723   0.00000  Uiso   1.00
C568   C     0.29344   0.68630   0.06058   0.00000  Uiso   1.00
H569   H     0.31430   0.68770   0.03970   0.00000  Uiso   1.00
C570   C     0.29806   0.66044   0.09260   0.00000  Uiso   1.00
H571   H     0.32160   0.64460   0.09360   0.00000  Uiso   1.00
C572   C     0.26774   0.65752   0.12404   0.00000  Uiso   1.00
H573   H     0.27010   0.63950   0.14650   0.00000  Uiso   1.00
C574   C     0.23410   0.68226   0.12086   0.00000  Uiso   1.00
C575   C     0.23221   0.70773   0.08719   0.00000  Uiso   1.00
H576   H     0.20920   0.72460   0.08540   0.00000  Uiso   1.00
C577   C     0.96166   0.83598   0.22878   0.00000  Uiso   1.00
C578   C     0.07476   0.73466   0.20598   0.00000  Uiso   1.00
H579   H     0.07520   0.71240   0.22520   0.00000  Uiso   1.00
C580   C     0.10685   0.73785   0.17795   0.00000  Uiso   1.00
C581   C     0.10615   0.77093   0.14931   0.00000  Uiso   1.00
H582   H     0.12760   0.77380   0.12940   0.00000  Uiso   1.00
C583   C     0.07371   0.79901   0.15085   0.00000  Uiso   1.00
H584   H     0.07230   0.82190   0.13230   0.00000  Uiso   1.00
C585   C     0.04286   0.79336   0.18006   0.00000  Uiso   1.00
H586   H     0.02070   0.81290   0.18070   0.00000  Uiso   1.00
C587   C     0.14029   0.70609   0.17751   0.00000  Uiso   1.00
C588   C     0.16815   0.64671   0.20265   0.00000  Uiso   1.00
C589   C     0.20000   0.68024   0.15130   0.00000  Uiso   1.00
C590   C     0.16620   0.61142   0.23056   0.00000  Uiso   1.00
C591   C     0.13442   0.60752   0.25958   0.00000  Uiso   1.00
H592   H     0.11310   0.62790   0.26230   0.00000  Uiso   1.00
C593   C     0.13469   0.57351   0.28417   0.00000  Uiso   1.00
H594   H     0.11360   0.57000   0.30420   0.00000  Uiso   1.00
C595   C     0.16669   0.54395   0.27927   0.00000  Uiso   1.00
H596   H     0.16660   0.52060   0.29640   0.00000  Uiso   1.00
C597   C     0.19660   0.58036   0.22792   0.00000  Uiso   1.00
H598   H     0.21800   0.58300   0.20820   0.00000  Uiso   1.00
C599   C     0.29754   0.55284   0.20374   0.00000  Uiso   1.00
C600   C     0.23834   0.53848   0.29618   0.00000  Uiso   1.00
H601   H     0.24020   0.55800   0.27400   0.00000  Uiso   1.00
C602   C     0.23073   0.54423   0.32631   0.00000  Uiso   1.00
H603   H     0.22740   0.56720   0.32500   0.00000  Uiso   1.00
C604   C     0.22790   0.51574   0.35948   0.00000  Uiso   1.00
H605   H     0.22240   0.51900   0.38100   0.00000  Uiso   1.00
C606   C     0.23356   0.48240   0.35970   0.00000  Uiso   1.00
C607   C     0.24094   0.47880   0.32788   0.00000  Uiso   1.00
H608   H     0.24430   0.45610   0.32850   0.00000  Uiso   1.00
C609   C     0.23249   0.45083   0.39349   0.00000  Uiso   1.00
N610   N     0.96985   0.80469   0.24443   0.00000  Uiso   1.00
N611   N     0.26114   0.70960   0.05716   0.00000  Uiso   1.00
N612   N     0.04290   0.76206   0.20700   0.00000  Uiso   1.00
N613   N     0.17072   0.71004   0.15022   0.00000  Uiso   1.00
N614   N     0.20038   0.64774   0.17730   0.00000  Uiso   1.00
N615   N     0.13724   0.67498   0.20462   0.00000  Uiso   1.00
N616   N     0.19724   0.54732   0.25152   0.00000  Uiso   1.00
N617   N     0.27938   0.53550   0.21814   0.00000  Uiso   1.00
N618   N     0.24355   0.50623   0.29595   0.00000  Uiso   1.00
N619   N     0.23233   0.45357   0.42129   0.00000  Uiso   1.00
S620   S     0.95100   0.87861   0.20506   0.00000  Uiso   1.00
S621   S     0.32331   0.57723   0.18323   0.00000  Uiso   1.00
C637   C     0.06058   0.45968   0.29344   0.00000  Uiso   1.00
H638   H     0.03970   0.45830   0.31430   0.00000  Uiso   1.00
C639   C     0.09260   0.44890   0.29806   0.00000  Uiso   1.00
H640   H     0.09360   0.44020   0.32160   0.00000  Uiso   1.00
C641   C     0.12404   0.45070   0.26774   0.00000  Uiso   1.00
H642   H     0.14650   0.44390   0.27010   0.00000  Uiso   1.00
C643   C     0.12086   0.46278   0.23410   0.00000  Uiso   1.00
C644   C     0.08719   0.47287   0.23221   0.00000  Uiso   1.00
H645   H     0.08540   0.48080   0.20920   0.00000  Uiso   1.00
C646   C     0.22878   0.47358   0.96166   0.00000  Uiso   1.00
C647   C     0.20598   0.48460   0.07476   0.00000  Uiso   1.00
H648   H     0.22520   0.48720   0.07520   0.00000  Uiso   1.00
C649   C     0.17795   0.47735   0.10685   0.00000  Uiso   1.00
C650   C     0.14931   0.47361   0.10615   0.00000  Uiso   1.00
H651   H     0.12940   0.46920   0.12760   0.00000  Uiso   1.00
C652   C     0.15085   0.47643   0.07371   0.00000  Uiso   1.00
H653   H     0.13230   0.47350   0.07230   0.00000  Uiso   1.00
C654   C     0.18006   0.48372   0.04286   0.00000  Uiso   1.00
H655   H     0.18070   0.48570   0.02070   0.00000  Uiso   1.00
C656   C     0.17751   0.47611   0.14029   0.00000  Uiso   1.00
C657   C     0.20265   0.48249   0.16815   0.00000  Uiso   1.00
C658   C     0.15130   0.46846   0.20000   0.00000  Uiso   1.00
C659   C     0.23056   0.49182   0.16620   0.00000  Uiso   1.00
C660   C     0.25958   0.49848   0.13442   0.00000  Uiso   1.00
H661   H     0.26230   0.49670   0.11310   0.00000  Uiso   1.00
C662   C     0.28417   0.50763   0.13469   0.00000  Uiso   1.00
H663   H     0.30420   0.51220   0.11360   0.00000  Uiso   1.00
C664   C     0.27927   0.51009   0.16669   0.00000  Uiso   1.00
H665   H     0.29640   0.51640   0.16660   0.00000  Uiso   1.00
C666   C     0.22792   0.49512   0.19660   0.00000  Uiso   1.00
H667   H     0.20820   0.49080   0.21800   0.00000  Uiso   1.00
C668   C     0.20374   0.44588   0.29754   0.00000  Uiso   1.00
C669   C     0.29618   0.42700   0.23834   0.00000  Uiso   1.00
H670   H     0.27400   0.42780   0.24020   0.00000  Uiso   1.00
C671   C     0.32631   0.39873   0.23073   0.00000  Uiso   1.00
H672   H     0.32500   0.38040   0.22740   0.00000  Uiso   1.00
C673   C     0.35948   0.39688   0.22790   0.00000  Uiso   1.00
H674   H     0.38100   0.37760   0.22240   0.00000  Uiso   1.00
C675   C     0.35970   0.42434   0.23356   0.00000  Uiso   1.00
C676   C     0.32788   0.45238   0.24094   0.00000  Uiso   1.00
H677   H     0.32850   0.47110   0.24430   0.00000  Uiso   1.00
C678   C     0.39349   0.42319   0.23249   0.00000  Uiso   1.00
N679   N     0.24443   0.48103   0.96985   0.00000  Uiso   1.00
N680   N     0.05716   0.47210   0.26114   0.00000  Uiso   1.00
N681   N     0.20700   0.48804   0.04290   0.00000  Uiso   1.00
N682   N     0.15022   0.46902   0.17072   0.00000  Uiso   1.00
N683   N     0.17730   0.47458   0.20038   0.00000  Uiso   1.00
N684   N     0.20462   0.48316   0.13724   0.00000  Uiso   1.00
N685   N     0.25152   0.50392   0.19724   0.00000  Uiso   1.00
N686   N     0.21814   0.46698   0.27938   0.00000  Uiso   1.00
N687   N     0.29595   0.45427   0.24355   0.00000  Uiso   1.00
N688   N     0.42129   0.39281   0.23233   0.00000  Uiso   1.00
S689   S     0.20506   0.46534   0.95100   0.00000  Uiso   1.00
S690   S     0.18323   0.41623   0.32331   0.00000  Uiso   1.00
C706   C     0.45968   0.06058   0.68630   0.00000  Uiso   1.00
H707   H     0.45830   0.03970   0.68770   0.00000  Uiso   1.00
C708   C     0.44890   0.09260   0.66044   0.00000  Uiso   1.00
H709   H     0.44020   0.09360   0.64460   0.00000  Uiso   1.00
C710   C     0.45070   0.12404   0.65752   0.00000  Uiso   1.00
H711   H     0.44390   0.14650   0.63950   0.00000  Uiso   1.00
C712   C     0.46278   0.12086   0.68226   0.00000  Uiso   1.00
C713   C     0.47287   0.08719   0.70773   0.00000  Uiso   1.00
H714   H     0.48080   0.08540   0.72460   0.00000  Uiso   1.00
C715   C     0.47358   0.22878   0.83598   0.00000  Uiso   1.00
C716   C     0.48460   0.20598   0.73466   0.00000  Uiso   1.00
H717   H     0.48720   0.22520   0.71240   0.00000  Uiso   1.00
C718   C     0.47735   0.17795   0.73785   0.00000  Uiso   1.00
C719   C     0.47361   0.14931   0.77093   0.00000  Uiso   1.00
H720   H     0.46920   0.12940   0.77380   0.00000  Uiso   1.00
C721   C     0.47643   0.15085   0.79901   0.00000  Uiso   1.00
H722   H     0.47350   0.13230   0.82190   0.00000  Uiso   1.00
C723   C     0.48372   0.18006   0.79336   0.00000  Uiso   1.00
H724   H     0.48570   0.18070   0.81290   0.00000  Uiso   1.00
C725   C     0.47611   0.17751   0.70609   0.00000  Uiso   1.00
C726   C     0.48249   0.20265   0.64671   0.00000  Uiso   1.00
C727   C     0.46846   0.15130   0.68024   0.00000  Uiso   1.00
C728   C     0.49182   0.23056   0.61142   0.00000  Uiso   1.00
C729   C     0.49848   0.25958   0.60752   0.00000  Uiso   1.00
H730   H     0.49670   0.26230   0.62790   0.00000  Uiso   1.00
C731   C     0.50763   0.28417   0.57351   0.00000  Uiso   1.00
H732   H     0.51220   0.30420   0.57000   0.00000  Uiso   1.00
C733   C     0.51009   0.27927   0.54395   0.00000  Uiso   1.00
H734   H     0.51640   0.29640   0.52060   0.00000  Uiso   1.00
C735   C     0.49512   0.22792   0.58036   0.00000  Uiso   1.00
H736   H     0.49080   0.20820   0.58300   0.00000  Uiso   1.00
C737   C     0.44588   0.20374   0.55284   0.00000  Uiso   1.00
C738   C     0.42700   0.29618   0.53848   0.00000  Uiso   1.00
H739   H     0.42780   0.27400   0.55800   0.00000  Uiso   1.00
C740   C     0.39873   0.32631   0.54423   0.00000  Uiso   1.00
H741   H     0.38040   0.32500   0.56720   0.00000  Uiso   1.00
C742   C     0.39688   0.35948   0.51574   0.00000  Uiso   1.00
H743   H     0.37760   0.38100   0.51900   0.00000  Uiso   1.00
C744   C     0.42434   0.35970   0.48240   0.00000  Uiso   1.00
C745   C     0.45238   0.32788   0.47880   0.00000  Uiso   1.00
H746   H     0.47110   0.32850   0.45610   0.00000  Uiso   1.00
C747   C     0.42319   0.39349   0.45083   0.00000  Uiso   1.00
N748   N     0.48103   0.24443   0.80469   0.00000  Uiso   1.00
N749   N     0.47210   0.05716   0.70960   0.00000  Uiso   1.00
N750   N     0.48804   0.20700   0.76206   0.00000  Uiso   1.00
N751   N     0.46902   0.15022   0.71004   0.00000  Uiso   1.00
N752   N     0.47458   0.17730   0.64774   0.00000  Uiso   1.00
N753   N     0.48316   0.20462   0.67498   0.00000  Uiso   1.00
N754   N     0.50392   0.25152   0.54732   0.00000  Uiso   1.00
N755   N     0.46698   0.21814   0.53550   0.00000  Uiso   1.00
N756   N     0.45427   0.29595   0.50623   0.00000  Uiso   1.00
N757   N     0.39281   0.42129   0.45357   0.00000  Uiso   1.00
S758   S     0.46534   0.20506   0.87861   0.00000  Uiso   1.00
S759   S     0.41623   0.18323   0.57723   0.00000  Uiso   1.00
C775   C     0.68630   0.29344   0.45968   0.00000  Uiso   1.00
H776   H     0.68770   0.31430   0.45830   0.00000  Uiso   1.00
C777   C     0.66044   0.29806   0.44890   0.00000  Uiso   1.00
H778   H     0.64460   0.32160   0.44020   0.00000  Uiso   1.00
C779   C     0.65752   0.26774   0.45070   0.00000  Uiso   1.00
H780   H     0.63950   0.27010   0.44390   0.00000  Uiso   1.00
C781   C     0.68226   0.23410   0.46278   0.00000  Uiso   1.00
C782   C     0.70773   0.23221   0.47287   0.00000  Uiso   1.00
H783   H     0.72460   0.20920   0.48080   0.00000  Uiso   1.00
C784   C     0.83598   0.96166   0.47358   0.00000  Uiso   1.00
C785   C     0.73466   0.07476   0.48460   0.00000  Uiso   1.00
H786   H     0.71240   0.07520   0.48720   0.00000  Uiso   1.00
C787   C     0.73785   0.10685   0.47735   0.00000  Uiso   1.00
C788   C     0.77093   0.10615   0.47361   0.00000  Uiso   1.00
H789   H     0.77380   0.12760   0.46920   0.00000  Uiso   1.00
C790   C     0.79901   0.07371   0.47643   0.00000  Uiso   1.00
H791   H     0.82190   0.07230   0.47350   0.00000  Uiso   1.00
C792   C     0.79336   0.04286   0.48372   0.00000  Uiso   1.00
H793   H     0.81290   0.02070   0.48570   0.00000  Uiso   1.00
C794   C     0.70609   0.14029   0.47611   0.00000  Uiso   1.00
C795   C     0.64671   0.16815   0.48249   0.00000  Uiso   1.00
C796   C     0.68024   0.20000   0.46846   0.00000  Uiso   1.00
C797   C     0.61142   0.16620   0.49182   0.00000  Uiso   1.00
C798   C     0.60752   0.13442   0.49848   0.00000  Uiso   1.00
H799   H     0.62790   0.11310   0.49670   0.00000  Uiso   1.00
C800   C     0.57351   0.13469   0.50763   0.00000  Uiso   1.00
H801   H     0.57000   0.11360   0.51220   0.00000  Uiso   1.00
C802   C     0.54395   0.16669   0.51009   0.00000  Uiso   1.00
H803   H     0.52060   0.16660   0.51640   0.00000  Uiso   1.00
C804   C     0.58036   0.19660   0.49512   0.00000  Uiso   1.00
H805   H     0.58300   0.21800   0.49080   0.00000  Uiso   1.00
C806   C     0.55284   0.29754   0.44588   0.00000  Uiso   1.00
C807   C     0.53848   0.23834   0.42700   0.00000  Uiso   1.00
H808   H     0.55800   0.24020   0.42780   0.00000  Uiso   1.00
C809   C     0.54423   0.23073   0.39873   0.00000  Uiso   1.00
H810   H     0.56720   0.22740   0.38040   0.00000  Uiso   1.00
C811   C     0.51574   0.22790   0.39688   0.00000  Uiso   1.00
H812   H     0.51900   0.22240   0.37760   0.00000  Uiso   1.00
C813   C     0.48240   0.23356   0.42434   0.00000  Uiso   1.00
C814   C     0.47880   0.24094   0.45238   0.00000  Uiso   1.00
H815   H     0.45610   0.24430   0.47110   0.00000  Uiso   1.00
C816   C     0.45083   0.23249   0.42319   0.00000  Uiso   1.00
N817   N     0.80469   0.96985   0.48103   0.00000  Uiso   1.00
N818   N     0.70960   0.26114   0.47210   0.00000  Uiso   1.00
N819   N     0.76206   0.04290   0.48804   0.00000  Uiso   1.00
N820   N     0.71004   0.17072   0.46902   0.00000  Uiso   1.00
N821   N     0.64774   0.20038   0.47458   0.00000  Uiso   1.00
N822   N     0.67498   0.13724   0.48316   0.00000  Uiso   1.00
N823   N     0.54732   0.19724   0.50392   0.00000  Uiso   1.00
N824   N     0.53550   0.27938   0.46698   0.00000  Uiso   1.00
N825   N     0.50623   0.24355   0.45427   0.00000  Uiso   1.00
N826   N     0.45357   0.23233   0.39281   0.00000  Uiso   1.00
S827   S     0.87861   0.95100   0.46534   0.00000  Uiso   1.00
S828   S     0.57723   0.32331   0.41623   0.00000  Uiso   1.00
C844   C     0.43942   0.20656   0.04032   0.00000  Uiso   1.00
H845   H     0.46030   0.18570   0.04170   0.00000  Uiso   1.00
C846   C     0.40740   0.20194   0.05110   0.00000  Uiso   1.00
H847   H     0.40640   0.17840   0.05980   0.00000  Uiso   1.00
C848   C     0.37596   0.23226   0.04930   0.00000  Uiso   1.00
H849   H     0.35350   0.22990   0.05610   0.00000  Uiso   1.00
C850   C     0.37914   0.26590   0.03722   0.00000  Uiso   1.00
C851   C     0.41281   0.26779   0.02713   0.00000  Uiso   1.00
H852   H     0.41460   0.29080   0.01920   0.00000  Uiso   1.00
C853   C     0.27122   0.53834   0.02642   0.00000  Uiso   1.00
C854   C     0.29402   0.42524   0.01540   0.00000  Uiso   1.00
H855   H     0.27480   0.42480   0.01280   0.00000  Uiso   1.00
C856   C     0.32205   0.39315   0.02265   0.00000  Uiso   1.00
C857   C     0.35069   0.39385   0.02639   0.00000  Uiso   1.00
H858   H     0.37060   0.37240   0.03080   0.00000  Uiso   1.00
C859   C     0.34915   0.42629   0.02357   0.00000  Uiso   1.00
H860   H     0.36770   0.42770   0.02650   0.00000  Uiso   1.00
C861   C     0.31994   0.45714   0.01628   0.00000  Uiso   1.00
H862   H     0.31930   0.47930   0.01430   0.00000  Uiso   1.00
C863   C     0.32249   0.35971   0.02389   0.00000  Uiso   1.00
C864   C     0.29735   0.33185   0.01751   0.00000  Uiso   1.00
C865   C     0.34870   0.30000   0.03154   0.00000  Uiso   1.00
C866   C     0.26944   0.33380   0.00818   0.00000  Uiso   1.00
C867   C     0.24042   0.36558   0.00152   0.00000  Uiso   1.00
H868   H     0.23770   0.38690   0.00330   0.00000  Uiso   1.00
C869   C     0.21583   0.36531   0.99237   0.00000  Uiso   1.00
H870   H     0.19580   0.38640   0.98780   0.00000  Uiso   1.00
C871   C     0.22073   0.33331   0.98991   0.00000  Uiso   1.00
H872   H     0.20360   0.33340   0.98360   0.00000  Uiso   1.00
C873   C     0.27208   0.30340   0.00488   0.00000  Uiso   1.00
H874   H     0.29180   0.28200   0.00920   0.00000  Uiso   1.00
C875   C     0.29626   0.20246   0.05412   0.00000  Uiso   1.00
C876   C     0.20382   0.26166   0.07300   0.00000  Uiso   1.00
H877   H     0.22600   0.25980   0.07220   0.00000  Uiso   1.00
C878   C     0.17369   0.26927   0.10127   0.00000  Uiso   1.00
H879   H     0.17500   0.27260   0.11960   0.00000  Uiso   1.00
C880   C     0.14052   0.27210   0.10312   0.00000  Uiso   1.00
H881   H     0.11900   0.27760   0.12240   0.00000  Uiso   1.00
C882   C     0.14030   0.26644   0.07566   0.00000  Uiso   1.00
C883   C     0.17212   0.25906   0.04762   0.00000  Uiso   1.00
H884   H     0.17150   0.25570   0.02890   0.00000  Uiso   1.00
C885   C     0.10651   0.26751   0.07681   0.00000  Uiso   1.00
N886   N     0.25557   0.53015   0.01897   0.00000  Uiso   1.00
N887   N     0.44284   0.23886   0.02790   0.00000  Uiso   1.00
N888   N     0.29300   0.45710   0.01196   0.00000  Uiso   1.00
N889   N     0.34978   0.32928   0.03098   0.00000  Uiso   1.00
N890   N     0.32270   0.29962   0.02542   0.00000  Uiso   1.00
N891   N     0.29538   0.36276   0.01684   0.00000  Uiso   1.00
N892   N     0.24848   0.30276   0.99608   0.00000  Uiso   1.00
N893   N     0.28186   0.22062   0.03302   0.00000  Uiso   1.00
N894   N     0.20405   0.25645   0.04573   0.00000  Uiso   1.00
N895   N     0.07871   0.26767   0.10719   0.00000  Uiso   1.00
S896   S     0.29494   0.54900   0.03466   0.00000  Uiso   1.00
S897   S     0.31677   0.17669   0.08377   0.00000  Uiso   1.00
C913   C     0.20656   0.43942   0.81370   0.00000  Uiso   1.00
H914   H     0.18570   0.46030   0.81230   0.00000  Uiso   1.00
C915   C     0.20194   0.40740   0.83956   0.00000  Uiso   1.00
H916   H     0.17840   0.40640   0.85540   0.00000  Uiso   1.00
C917   C     0.23226   0.37596   0.84248   0.00000  Uiso   1.00
H918   H     0.22990   0.35350   0.86050   0.00000  Uiso   1.00
C919   C     0.26590   0.37914   0.81774   0.00000  Uiso   1.00
C920   C     0.26779   0.41281   0.79227   0.00000  Uiso   1.00
H921   H     0.29080   0.41460   0.77540   0.00000  Uiso   1.00
C922   C     0.53834   0.27122   0.66402   0.00000  Uiso   1.00
C923   C     0.42524   0.29402   0.76534   0.00000  Uiso   1.00
H924   H     0.42480   0.27480   0.78760   0.00000  Uiso   1.00
C925   C     0.39315   0.32205   0.76215   0.00000  Uiso   1.00
C926   C     0.39385   0.35069   0.72907   0.00000  Uiso   1.00
H927   H     0.37240   0.37060   0.72620   0.00000  Uiso   1.00
C928   C     0.42629   0.34915   0.70099   0.00000  Uiso   1.00
H929   H     0.42770   0.36770   0.67810   0.00000  Uiso   1.00
C930   C     0.45714   0.31994   0.70664   0.00000  Uiso   1.00
H931   H     0.47930   0.31930   0.68710   0.00000  Uiso   1.00
C932   C     0.35971   0.32249   0.79391   0.00000  Uiso   1.00
C933   C     0.33185   0.29735   0.85329   0.00000  Uiso   1.00
C934   C     0.30000   0.34870   0.81976   0.00000  Uiso   1.00
C935   C     0.33380   0.26944   0.88858   0.00000  Uiso   1.00
C936   C     0.36558   0.24042   0.89248   0.00000  Uiso   1.00
H937   H     0.38690   0.23770   0.87210   0.00000  Uiso   1.00
C938   C     0.36531   0.21583   0.92649   0.00000  Uiso   1.00
H939   H     0.38640   0.19580   0.93000   0.00000  Uiso   1.00
C940   C     0.33331   0.22073   0.95605   0.00000  Uiso   1.00
H941   H     0.33340   0.20360   0.97940   0.00000  Uiso   1.00
C942   C     0.30340   0.27208   0.91964   0.00000  Uiso   1.00
H943   H     0.28200   0.29180   0.91700   0.00000  Uiso   1.00
C944   C     0.20246   0.29626   0.94716   0.00000  Uiso   1.00
C945   C     0.26166   0.20382   0.96152   0.00000  Uiso   1.00
H946   H     0.25980   0.22600   0.94200   0.00000  Uiso   1.00
C947   C     0.26927   0.17369   0.95577   0.00000  Uiso   1.00
H948   H     0.27260   0.17500   0.93280   0.00000  Uiso   1.00
C949   C     0.27210   0.14052   0.98426   0.00000  Uiso   1.00
H950   H     0.27760   0.11900   0.98100   0.00000  Uiso   1.00
C951   C     0.26644   0.14030   0.01760   0.00000  Uiso   1.00
C952   C     0.25906   0.17212   0.02120   0.00000  Uiso   1.00
H953   H     0.25570   0.17150   0.04390   0.00000  Uiso   1.00
C954   C     0.26751   0.10651   0.04917   0.00000  Uiso   1.00
N955   N     0.53015   0.25557   0.69531   0.00000  Uiso   1.00
N956   N     0.23886   0.44284   0.79040   0.00000  Uiso   1.00
N957   N     0.45710   0.29300   0.73794   0.00000  Uiso   1.00
N958   N     0.32928   0.34978   0.78996   0.00000  Uiso   1.00
N959   N     0.29962   0.32270   0.85226   0.00000  Uiso   1.00
N960   N     0.36276   0.29538   0.82502   0.00000  Uiso   1.00
N961   N     0.30276   0.24848   0.95268   0.00000  Uiso   1.00
N962   N     0.22062   0.28186   0.96450   0.00000  Uiso   1.00
N963   N     0.25645   0.20405   0.99377   0.00000  Uiso   1.00
N964   N     0.26767   0.07871   0.04643   0.00000  Uiso   1.00
S965   S     0.54900   0.29494   0.62139   0.00000  Uiso   1.00
S966   S     0.17669   0.31677   0.92277   0.00000  Uiso   1.00
C982   C     0.81370   0.04032   0.20656   0.00000  Uiso   1.00
H983   H     0.81230   0.04170   0.18570   0.00000  Uiso   1.00
C984   C     0.83956   0.05110   0.20194   0.00000  Uiso   1.00
H985   H     0.85540   0.05980   0.17840   0.00000  Uiso   1.00
C986   C     0.84248   0.04930   0.23226   0.00000  Uiso   1.00
H987   H     0.86050   0.05610   0.22990   0.00000  Uiso   1.00
C988   C     0.81774   0.03722   0.26590   0.00000  Uiso   1.00
C989   C     0.79227   0.02713   0.26779   0.00000  Uiso   1.00
H990   H     0.77540   0.01920   0.29080   0.00000  Uiso   1.00
C991   C     0.66402   0.02642   0.53834   0.00000  Uiso   1.00
C992   C     0.76534   0.01540   0.42524   0.00000  Uiso   1.00
H993   H     0.78760   0.01280   0.42480   0.00000  Uiso   1.00
C994   C     0.76215   0.02265   0.39315   0.00000  Uiso   1.00
C995   C     0.72907   0.02639   0.39385   0.00000  Uiso   1.00
H996   H     0.72620   0.03080   0.37240   0.00000  Uiso   1.00
C997   C     0.70099   0.02357   0.42629   0.00000  Uiso   1.00
H998   H     0.67810   0.02650   0.42770   0.00000  Uiso   1.00
C999   C     0.70664   0.01628   0.45714   0.00000  Uiso   1.00
H1000  H     0.68710   0.01430   0.47930   0.00000  Uiso   1.00
C1001  C     0.79391   0.02389   0.35971   0.00000  Uiso   1.00
C1002  C     0.85329   0.01751   0.33185   0.00000  Uiso   1.00
C1003  C     0.81976   0.03154   0.30000   0.00000  Uiso   1.00
C1004  C     0.88858   0.00818   0.33380   0.00000  Uiso   1.00
C1005  C     0.89248   0.00152   0.36558   0.00000  Uiso   1.00
H1006  H     0.87210   0.00330   0.38690   0.00000  Uiso   1.00
C1007  C     0.92649   0.99237   0.36531   0.00000  Uiso   1.00
H1008  H     0.93000   0.98780   0.38640   0.00000  Uiso   1.00
C1009  C     0.95605   0.98991   0.33331   0.00000  Uiso   1.00
H1010  H     0.97940   0.98360   0.33340   0.00000  Uiso   1.00
C1011  C     0.91964   0.00488   0.30340   0.00000  Uiso   1.00
H1012  H     0.91700   0.00920   0.28200   0.00000  Uiso   1.00
C1013  C     0.94716   0.05412   0.20246   0.00000  Uiso   1.00
C1014  C     0.96152   0.07300   0.26166   0.00000  Uiso   1.00
H1015  H     0.94200   0.07220   0.25980   0.00000  Uiso   1.00
C1016  C     0.95577   0.10127   0.26927   0.00000  Uiso   1.00
H1017  H     0.93280   0.11960   0.27260   0.00000  Uiso   1.00
C1018  C     0.98426   0.10312   0.27210   0.00000  Uiso   1.00
H1019  H     0.98100   0.12240   0.27760   0.00000  Uiso   1.00
C1020  C     0.01760   0.07566   0.26644   0.00000  Uiso   1.00
C1021  C     0.02120   0.04762   0.25906   0.00000  Uiso   1.00
H1022  H     0.04390   0.02890   0.25570   0.00000  Uiso   1.00
C1023  C     0.04917   0.07681   0.26751   0.00000  Uiso   1.00
N1024  N     0.69531   0.01897   0.53015   0.00000  Uiso   1.00
N1025  N     0.79040   0.02790   0.23886   0.00000  Uiso   1.00
N1026  N     0.73794   0.01196   0.45710   0.00000  Uiso   1.00
N1027  N     0.78996   0.03098   0.32928   0.00000  Uiso   1.00
N1028  N     0.85226   0.02542   0.29962   0.00000  Uiso   1.00
N1029  N     0.82502   0.01684   0.36276   0.00000  Uiso   1.00
N1030  N     0.95268   0.99608   0.30276   0.00000  Uiso   1.00
N1031  N     0.96450   0.03302   0.22062   0.00000  Uiso   1.00
N1032  N     0.99377   0.04573   0.25645   0.00000  Uiso   1.00
N1033  N     0.04643   0.10719   0.26767   0.00000  Uiso   1.00
S1034  S     0.62139   0.03466   0.54900   0.00000  Uiso   1.00
S1035  S     0.92277   0.08377   0.17669   0.00000  Uiso   1.00
C1051  C     0.04032   0.81370   0.43942   0.00000  Uiso   1.00
H1052  H     0.04170   0.81230   0.46030   0.00000  Uiso   1.00
C1053  C     0.05110   0.83956   0.40740   0.00000  Uiso   1.00
H1054  H     0.05980   0.85540   0.40640   0.00000  Uiso   1.00
C1055  C     0.04930   0.84248   0.37596   0.00000  Uiso   1.00
H1056  H     0.05610   0.86050   0.35350   0.00000  Uiso   1.00
C1057  C     0.03722   0.81774   0.37914   0.00000  Uiso   1.00
C1058  C     0.02713   0.79227   0.41281   0.00000  Uiso   1.00
H1059  H     0.01920   0.77540   0.41460   0.00000  Uiso   1.00
C1060  C     0.02642   0.66402   0.27122   0.00000  Uiso   1.00
C1061  C     0.01540   0.76534   0.29402   0.00000  Uiso   1.00
H1062  H     0.01280   0.78760   0.27480   0.00000  Uiso   1.00
C1063  C     0.02265   0.76215   0.32205   0.00000  Uiso   1.00
C1064  C     0.02639   0.72907   0.35069   0.00000  Uiso   1.00
H1065  H     0.03080   0.72620   0.37060   0.00000  Uiso   1.00
C1066  C     0.02357   0.70099   0.34915   0.00000  Uiso   1.00
H1067  H     0.02650   0.67810   0.36770   0.00000  Uiso   1.00
C1068  C     0.01628   0.70664   0.31994   0.00000  Uiso   1.00
H1069  H     0.01430   0.68710   0.31930   0.00000  Uiso   1.00
C1070  C     0.02389   0.79391   0.32249   0.00000  Uiso   1.00
C1071  C     0.01751   0.85329   0.29735   0.00000  Uiso   1.00
C1072  C     0.03154   0.81976   0.34870   0.00000  Uiso   1.00
C1073  C     0.00818   0.88858   0.26944   0.00000  Uiso   1.00
C1074  C     0.00152   0.89248   0.24042   0.00000  Uiso   1.00
H1075  H     0.00330   0.87210   0.23770   0.00000  Uiso   1.00
C1076  C     0.99237   0.92649   0.21583   0.00000  Uiso   1.00
H1077  H     0.98780   0.93000   0.19580   0.00000  Uiso   1.00
C1078  C     0.98991   0.95605   0.22073   0.00000  Uiso   1.00
H1079  H     0.98360   0.97940   0.20360   0.00000  Uiso   1.00
C1080  C     0.00488   0.91964   0.27208   0.00000  Uiso   1.00
H1081  H     0.00920   0.91700   0.29180   0.00000  Uiso   1.00
C1082  C     0.05412   0.94716   0.29626   0.00000  Uiso   1.00
C1083  C     0.07300   0.96152   0.20382   0.00000  Uiso   1.00
H1084  H     0.07220   0.94200   0.22600   0.00000  Uiso   1.00
C1085  C     0.10127   0.95577   0.17369   0.00000  Uiso   1.00
H1086  H     0.11960   0.93280   0.17500   0.00000  Uiso   1.00
C1087  C     0.10312   0.98426   0.14052   0.00000  Uiso   1.00
H1088  H     0.12240   0.98100   0.11900   0.00000  Uiso   1.00
C1089  C     0.07566   0.01760   0.14030   0.00000  Uiso   1.00
C1090  C     0.04762   0.02120   0.17212   0.00000  Uiso   1.00
H1091  H     0.02890   0.04390   0.17150   0.00000  Uiso   1.00
C1092  C     0.07681   0.04917   0.10651   0.00000  Uiso   1.00
N1093  N     0.01897   0.69531   0.25557   0.00000  Uiso   1.00
N1094  N     0.02790   0.79040   0.44284   0.00000  Uiso   1.00
N1095  N     0.01196   0.73794   0.29300   0.00000  Uiso   1.00
N1096  N     0.03098   0.78996   0.34978   0.00000  Uiso   1.00
N1097  N     0.02542   0.85226   0.32270   0.00000  Uiso   1.00
N1098  N     0.01684   0.82502   0.29538   0.00000  Uiso   1.00
N1099  N     0.99608   0.95268   0.24848   0.00000  Uiso   1.00
N1100  N     0.03302   0.96450   0.28186   0.00000  Uiso   1.00
N1101  N     0.04573   0.99377   0.20405   0.00000  Uiso   1.00
N1102  N     0.10719   0.04643   0.07871   0.00000  Uiso   1.00
S1103  S     0.03466   0.62139   0.29494   0.00000  Uiso   1.00
S1104  S     0.08377   0.92277   0.31677   0.00000  Uiso   1.00
C1120  C     0.81370   0.43942   0.04032   0.00000  Uiso   1.00
H1121  H     0.81230   0.46030   0.04170   0.00000  Uiso   1.00
C1122  C     0.83956   0.40740   0.05110   0.00000  Uiso   1.00
H1123  H     0.85540   0.40640   0.05980   0.00000  Uiso   1.00
C1124  C     0.84248   0.37596   0.04930   0.00000  Uiso   1.00
H1125  H     0.86050   0.35350   0.05610   0.00000  Uiso   1.00
C1126  C     0.81774   0.37914   0.03722   0.00000  Uiso   1.00
C1127  C     0.79227   0.41281   0.02713   0.00000  Uiso   1.00
H1128  H     0.77540   0.41460   0.01920   0.00000  Uiso   1.00
C1129  C     0.66402   0.27122   0.02642   0.00000  Uiso   1.00
C1130  C     0.76534   0.29402   0.01540   0.00000  Uiso   1.00
H1131  H     0.78760   0.27480   0.01280   0.00000  Uiso   1.00
C1132  C     0.76215   0.32205   0.02265   0.00000  Uiso   1.00
C1133  C     0.72907   0.35069   0.02639   0.00000  Uiso   1.00
H1134  H     0.72620   0.37060   0.03080   0.00000  Uiso   1.00
C1135  C     0.70099   0.34915   0.02357   0.00000  Uiso   1.00
H1136  H     0.67810   0.36770   0.02650   0.00000  Uiso   1.00
C1137  C     0.70664   0.31994   0.01628   0.00000  Uiso   1.00
H1138  H     0.68710   0.31930   0.01430   0.00000  Uiso   1.00
C1139  C     0.79391   0.32249   0.02389   0.00000  Uiso   1.00
C1140  C     0.85329   0.29735   0.01751   0.00000  Uiso   1.00
C1141  C     0.81976   0.34870   0.03154   0.00000  Uiso   1.00
C1142  C     0.88858   0.26944   0.00818   0.00000  Uiso   1.00
C1143  C     0.89248   0.24042   0.00152   0.00000  Uiso   1.00
H1144  H     0.87210   0.23770   0.00330   0.00000  Uiso   1.00
C1145  C     0.92649   0.21583   0.99237   0.00000  Uiso   1.00
H1146  H     0.93000   0.19580   0.98780   0.00000  Uiso   1.00
C1147  C     0.95605   0.22073   0.98991   0.00000  Uiso   1.00
H1148  H     0.97940   0.20360   0.98360   0.00000  Uiso   1.00
C1149  C     0.91964   0.27208   0.00488   0.00000  Uiso   1.00
H1150  H     0.91700   0.29180   0.00920   0.00000  Uiso   1.00
C1151  C     0.94716   0.29626   0.05412   0.00000  Uiso   1.00
C1152  C     0.96152   0.20382   0.07300   0.00000  Uiso   1.00
H1153  H     0.94200   0.22600   0.07220   0.00000  Uiso   1.00
C1154  C     0.95577   0.17369   0.10127   0.00000  Uiso   1.00
H1155  H     0.93280   0.17500   0.11960   0.00000  Uiso   1.00
C1156  C     0.98426   0.14052   0.10312   0.00000  Uiso   1.00
H1157  H     0.98100   0.11900   0.12240   0.00000  Uiso   1.00
C1158  C     0.01760   0.14030   0.07566   0.00000  Uiso   1.00
C1159  C     0.02120   0.17212   0.04762   0.00000  Uiso   1.00
H1160  H     0.04390   0.17150   0.02890   0.00000  Uiso   1.00
C1161  C     0.04917   0.10651   0.07681   0.00000  Uiso   1.00
N1162  N     0.69531   0.25557   0.01897   0.00000  Uiso   1.00
N1163  N     0.79040   0.44284   0.02790   0.00000  Uiso   1.00
N1164  N     0.73794   0.29300   0.01196   0.00000  Uiso   1.00
N1165  N     0.78996   0.34978   0.03098   0.00000  Uiso   1.00
N1166  N     0.85226   0.32270   0.02542   0.00000  Uiso   1.00
N1167  N     0.82502   0.29538   0.01684   0.00000  Uiso   1.00
N1168  N     0.95268   0.24848   0.99608   0.00000  Uiso   1.00
N1169  N     0.96450   0.28186   0.03302   0.00000  Uiso   1.00
N1170  N     0.99377   0.20405   0.04573   0.00000  Uiso   1.00
N1171  N     0.04643   0.07871   0.10719   0.00000  Uiso   1.00
S1172  S     0.62139   0.29494   0.03466   0.00000  Uiso   1.00
S1173  S     0.92277   0.31677   0.08377   0.00000  Uiso   1.00
C1189  C     0.04032   0.20656   0.81370   0.00000  Uiso   1.00
H1190  H     0.04170   0.18570   0.81230   0.00000  Uiso   1.00
C1191  C     0.05110   0.20194   0.83956   0.00000  Uiso   1.00
H1192  H     0.05980   0.17840   0.85540   0.00000  Uiso   1.00
C1193  C     0.04930   0.23226   0.84248   0.00000  Uiso   1.00
H1194  H     0.05610   0.22990   0.86050   0.00000  Uiso   1.00
C1195  C     0.03722   0.26590   0.81774   0.00000  Uiso   1.00
C1196  C     0.02713   0.26779   0.79227   0.00000  Uiso   1.00
H1197  H     0.01920   0.29080   0.77540   0.00000  Uiso   1.00
C1198  C     0.02642   0.53834   0.66402   0.00000  Uiso   1.00
C1199  C     0.01540   0.42524   0.76534   0.00000  Uiso   1.00
H1200  H     0.01280   0.42480   0.78760   0.00000  Uiso   1.00
C1201  C     0.02265   0.39315   0.76215   0.00000  Uiso   1.00
C1202  C     0.02639   0.39385   0.72907   0.00000  Uiso   1.00
H1203  H     0.03080   0.37240   0.72620   0.00000  Uiso   1.00
C1204  C     0.02357   0.42629   0.70099   0.00000  Uiso   1.00
H1205  H     0.02650   0.42770   0.67810   0.00000  Uiso   1.00
C1206  C     0.01628   0.45714   0.70664   0.00000  Uiso   1.00
H1207  H     0.01430   0.47930   0.68710   0.00000  Uiso   1.00
C1208  C     0.02389   0.35971   0.79391   0.00000  Uiso   1.00
C1209  C     0.01751   0.33185   0.85329   0.00000  Uiso   1.00
C1210  C     0.03154   0.30000   0.81976   0.00000  Uiso   1.00
C1211  C     0.00818   0.33380   0.88858   0.00000  Uiso   1.00
C1212  C     0.00152   0.36558   0.89248   0.00000  Uiso   1.00
H1213  H     0.00330   0.38690   0.87210   0.00000  Uiso   1.00
C1214  C     0.99237   0.36531   0.92649   0.00000  Uiso   1.00
H1215  H     0.98780   0.38640   0.93000   0.00000  Uiso   1.00
C1216  C     0.98991   0.33331   0.95605   0.00000  Uiso   1.00
H1217  H     0.98360   0.33340   0.97940   0.00000  Uiso   1.00
C1218  C     0.00488   0.30340   0.91964   0.00000  Uiso   1.00
H1219  H     0.00920   0.28200   0.91700   0.00000  Uiso   1.00
C1220  C     0.05412   0.20246   0.94716   0.00000  Uiso   1.00
C1221  C     0.07300   0.26166   0.96152   0.00000  Uiso   1.00
H1222  H     0.07220   0.25980   0.94200   0.00000  Uiso   1.00
C1223  C     0.10127   0.26927   0.95577   0.00000  Uiso   1.00
H1224  H     0.11960   0.27260   0.93280   0.00000  Uiso   1.00
C1225  C     0.10312   0.27210   0.98426   0.00000  Uiso   1.00
H1226  H     0.12240   0.27760   0.98100   0.00000  Uiso   1.00
C1227  C     0.07566   0.26644   0.01760   0.00000  Uiso   1.00
C1228  C     0.04762   0.25906   0.02120   0.00000  Uiso   1.00
H1229  H     0.02890   0.25570   0.04390   0.00000  Uiso   1.00
C1230  C     0.07681   0.26751   0.04917   0.00000  Uiso   1.00
N1231  N     0.01897   0.53015   0.69531   0.00000  Uiso   1.00
N1232  N     0.02790   0.23886   0.79040   0.00000  Uiso   1.00
N1233  N     0.01196   0.45710   0.73794   0.00000  Uiso   1.00
N1234  N     0.03098   0.32928   0.78996   0.00000  Uiso   1.00
N1235  N     0.02542   0.29962   0.85226   0.00000  Uiso   1.00
N1236  N     0.01684   0.36276   0.82502   0.00000  Uiso   1.00
N1237  N     0.99608   0.30276   0.95268   0.00000  Uiso   1.00
N1238  N     0.03302   0.22062   0.96450   0.00000  Uiso   1.00
N1239  N     0.04573   0.25645   0.99377   0.00000  Uiso   1.00
N1240  N     0.10719   0.26767   0.04643   0.00000  Uiso   1.00
S1241  S     0.03466   0.54900   0.62139   0.00000  Uiso   1.00
S1242  S     0.08377   0.17669   0.92277   0.00000  Uiso   1.00
C1258  C     0.43942   0.81370   0.20656   0.00000  Uiso   1.00
H1259  H     0.46030   0.81230   0.18570   0.00000  Uiso   1.00
C1260  C     0.40740   0.83956   0.20194   0.00000  Uiso   1.00
H1261  H     0.40640   0.85540   0.17840   0.00000  Uiso   1.00
C1262  C     0.37596   0.84248   0.23226   0.00000  Uiso   1.00
H1263  H     0.35350   0.86050   0.22990   0.00000  Uiso   1.00
C1264  C     0.37914   0.81774   0.26590   0.00000  Uiso   1.00
C1265  C     0.41281   0.79227   0.26779   0.00000  Uiso   1.00
H1266  H     0.41460   0.77540   0.29080   0.00000  Uiso   1.00
C1267  C     0.27122   0.66402   0.53834   0.00000  Uiso   1.00
C1268  C     0.29402   0.76534   0.42524   0.00000  Uiso   1.00
H1269  H     0.27480   0.78760   0.42480   0.00000  Uiso   1.00
C1270  C     0.32205   0.76215   0.39315   0.00000  Uiso   1.00
C1271  C     0.35069   0.72907   0.39385   0.00000  Uiso   1.00
H1272  H     0.37060   0.72620   0.37240   0.00000  Uiso   1.00
C1273  C     0.34915   0.70099   0.42629   0.00000  Uiso   1.00
H1274  H     0.36770   0.67810   0.42770   0.00000  Uiso   1.00
C1275  C     0.31994   0.70664   0.45714   0.00000  Uiso   1.00
H1276  H     0.31930   0.68710   0.47930   0.00000  Uiso   1.00
C1277  C     0.32249   0.79391   0.35971   0.00000  Uiso   1.00
C1278  C     0.29735   0.85329   0.33185   0.00000  Uiso   1.00
C1279  C     0.34870   0.81976   0.30000   0.00000  Uiso   1.00
C1280  C     0.26944   0.88858   0.33380   0.00000  Uiso   1.00
C1281  C     0.24042   0.89248   0.36558   0.00000  Uiso   1.00
H1282  H     0.23770   0.87210   0.38690   0.00000  Uiso   1.00
C1283  C     0.21583   0.92649   0.36531   0.00000  Uiso   1.00
H1284  H     0.19580   0.93000   0.38640   0.00000  Uiso   1.00
C1285  C     0.22073   0.95605   0.33331   0.00000  Uiso   1.00
H1286  H     0.20360   0.97940   0.33340   0.00000  Uiso   1.00
C1287  C     0.27208   0.91964   0.30340   0.00000  Uiso   1.00
H1288  H     0.29180   0.91700   0.28200   0.00000  Uiso   1.00
C1289  C     0.29626   0.94716   0.20246   0.00000  Uiso   1.00
C1290  C     0.20382   0.96152   0.26166   0.00000  Uiso   1.00
H1291  H     0.22600   0.94200   0.25980   0.00000  Uiso   1.00
C1292  C     0.17369   0.95577   0.26927   0.00000  Uiso   1.00
H1293  H     0.17500   0.93280   0.27260   0.00000  Uiso   1.00
C1294  C     0.14052   0.98426   0.27210   0.00000  Uiso   1.00
H1295  H     0.11900   0.98100   0.27760   0.00000  Uiso   1.00
C1296  C     0.14030   0.01760   0.26644   0.00000  Uiso   1.00
C1297  C     0.17212   0.02120   0.25906   0.00000  Uiso   1.00
H1298  H     0.17150   0.04390   0.25570   0.00000  Uiso   1.00
C1299  C     0.10651   0.04917   0.26751   0.00000  Uiso   1.00
N1300  N     0.25557   0.69531   0.53015   0.00000  Uiso   1.00
N1301  N     0.44284   0.79040   0.23886   0.00000  Uiso   1.00
N1302  N     0.29300   0.73794   0.45710   0.00000  Uiso   1.00
N1303  N     0.34978   0.78996   0.32928   0.00000  Uiso   1.00
N1304  N     0.32270   0.85226   0.29962   0.00000  Uiso   1.00
N1305  N     0.29538   0.82502   0.36276   0.00000  Uiso   1.00
N1306  N     0.24848   0.95268   0.30276   0.00000  Uiso   1.00
N1307  N     0.28186   0.96450   0.22062   0.00000  Uiso   1.00
N1308  N     0.20405   0.99377   0.25645   0.00000  Uiso   1.00
N1309  N     0.07871   0.04643   0.26767   0.00000  Uiso   1.00
S1310  S     0.29494   0.62139   0.54900   0.00000  Uiso   1.00
S1311  S     0.31677   0.92277   0.17669   0.00000  Uiso   1.00
C1327  C     0.20656   0.04032   0.43942   0.00000  Uiso   1.00
H1328  H     0.18570   0.04170   0.46030   0.00000  Uiso   1.00
C1329  C     0.20194   0.05110   0.40740   0.00000  Uiso   1.00
H1330  H     0.17840   0.05980   0.40640   0.00000  Uiso   1.00
C1331  C     0.23226   0.04930   0.37596   0.00000  Uiso   1.00
H1332  H     0.22990   0.05610   0.35350   0.00000  Uiso   1.00
C1333  C     0.26590   0.03722   0.37914   0.00000  Uiso   1.00
C1334  C     0.26779   0.02713   0.41281   0.00000  Uiso   1.00
H1335  H     0.29080   0.01920   0.41460   0.00000  Uiso   1.00
C1336  C     0.53834   0.02642   0.27122   0.00000  Uiso   1.00
C1337  C     0.42524   0.01540   0.29402   0.00000  Uiso   1.00
H1338  H     0.42480   0.01280   0.27480   0.00000  Uiso   1.00
C1339  C     0.39315   0.02265   0.32205   0.00000  Uiso   1.00
C1340  C     0.39385   0.02639   0.35069   0.00000  Uiso   1.00
H1341  H     0.37240   0.03080   0.37060   0.00000  Uiso   1.00
C1342  C     0.42629   0.02357   0.34915   0.00000  Uiso   1.00
H1343  H     0.42770   0.02650   0.36770   0.00000  Uiso   1.00
C1344  C     0.45714   0.01628   0.31994   0.00000  Uiso   1.00
H1345  H     0.47930   0.01430   0.31930   0.00000  Uiso   1.00
C1346  C     0.35971   0.02389   0.32249   0.00000  Uiso   1.00
C1347  C     0.33185   0.01751   0.29735   0.00000  Uiso   1.00
C1348  C     0.30000   0.03154   0.34870   0.00000  Uiso   1.00
C1349  C     0.33380   0.00818   0.26944   0.00000  Uiso   1.00
C1350  C     0.36558   0.00152   0.24042   0.00000  Uiso   1.00
H1351  H     0.38690   0.00330   0.23770   0.00000  Uiso   1.00
C1352  C     0.36531   0.99237   0.21583   0.00000  Uiso   1.00
H1353  H     0.38640   0.98780   0.19580   0.00000  Uiso   1.00
C1354  C     0.33331   0.98991   0.22073   0.00000  Uiso   1.00
H1355  H     0.33340   0.98360   0.20360   0.00000  Uiso   1.00
C1356  C     0.30340   0.00488   0.27208   0.00000  Uiso   1.00
H1357  H     0.28200   0.00920   0.29180   0.00000  Uiso   1.00
C1358  C     0.20246   0.05412   0.29626   0.00000  Uiso   1.00
C1359  C     0.26166   0.07300   0.20382   0.00000  Uiso   1.00
H1360  H     0.25980   0.07220   0.22600   0.00000  Uiso   1.00
C1361  C     0.26927   0.10127   0.17369   0.00000  Uiso   1.00
H1362  H     0.27260   0.11960   0.17500   0.00000  Uiso   1.00
C1363  C     0.27210   0.10312   0.14052   0.00000  Uiso   1.00
H1364  H     0.27760   0.12240   0.11900   0.00000  Uiso   1.00
C1365  C     0.26644   0.07566   0.14030   0.00000  Uiso   1.00
C1366  C     0.25906   0.04762   0.17212   0.00000  Uiso   1.00
H1367  H     0.25570   0.02890   0.17150   0.00000  Uiso   1.00
C1368  C     0.26751   0.07681   0.10651   0.00000  Uiso   1.00
N1369  N     0.53015   0.01897   0.25557   0.00000  Uiso   1.00
N1370  N     0.23886   0.02790   0.44284   0.00000  Uiso   1.00
N1371  N     0.45710   0.01196   0.29300   0.00000  Uiso   1.00
N1372  N     0.32928   0.03098   0.34978   0.00000  Uiso   1.00
N1373  N     0.29962   0.02542   0.32270   0.00000  Uiso   1.00
N1374  N     0.36276   0.01684   0.29538   0.00000  Uiso   1.00
N1375  N     0.30276   0.99608   0.24848   0.00000  Uiso   1.00
N1376  N     0.22062   0.03302   0.28186   0.00000  Uiso   1.00
N1377  N     0.25645   0.04573   0.20405   0.00000  Uiso   1.00
N1378  N     0.26767   0.10719   0.07871   0.00000  Uiso   1.00
S1379  S     0.54900   0.03466   0.29494   0.00000  Uiso   1.00
S1380  S     0.17669   0.08377   0.31677   0.00000  Uiso   1.00
C1396  C     0.20656   0.81370   0.04032   0.00000  Uiso   1.00
H1397  H     0.18570   0.81230   0.04170   0.00000  Uiso   1.00
C1398  C     0.20194   0.83956   0.05110   0.00000  Uiso   1.00
H1399  H     0.17840   0.85540   0.05980   0.00000  Uiso   1.00
C1400  C     0.23226   0.84248   0.04930   0.00000  Uiso   1.00
H1401  H     0.22990   0.86050   0.05610   0.00000  Uiso   1.00
C1402  C     0.26590   0.81774   0.03722   0.00000  Uiso   1.00
C1403  C     0.26779   0.79227   0.02713   0.00000  Uiso   1.00
H1404  H     0.29080   0.77540   0.01920   0.00000  Uiso   1.00
C1405  C     0.53834   0.66402   0.02642   0.00000  Uiso   1.00
C1406  C     0.42524   0.76534   0.01540   0.00000  Uiso   1.00
H1407  H     0.42480   0.78760   0.01280   0.00000  Uiso   1.00
C1408  C     0.39315   0.76215   0.02265   0.00000  Uiso   1.00
C1409  C     0.39385   0.72907   0.02639   0.00000  Uiso   1.00
H1410  H     0.37240   0.72620   0.03080   0.00000  Uiso   1.00
C1411  C     0.42629   0.70099   0.02357   0.00000  Uiso   1.00
H1412  H     0.42770   0.67810   0.02650   0.00000  Uiso   1.00
C1413  C     0.45714   0.70664   0.01628   0.00000  Uiso   1.00
H1414  H     0.47930   0.68710   0.01430   0.00000  Uiso   1.00
C1415  C     0.35971   0.79391   0.02389   0.00000  Uiso   1.00
C1416  C     0.33185   0.85329   0.01751   0.00000  Uiso   1.00
C1417  C     0.30000   0.81976   0.03154   0.00000  Uiso   1.00
C1418  C     0.33380   0.88858   0.00818   0.00000  Uiso   1.00
C1419  C     0.36558   0.89248   0.00152   0.00000  Uiso   1.00
H1420  H     0.38690   0.87210   0.00330   0.00000  Uiso   1.00
C1421  C     0.36531   0.92649   0.99237   0.00000  Uiso   1.00
H1422  H     0.38640   0.93000   0.98780   0.00000  Uiso   1.00
C1423  C     0.33331   0.95605   0.98991   0.00000  Uiso   1.00
H1424  H     0.33340   0.97940   0.98360   0.00000  Uiso   1.00
C1425  C     0.30340   0.91964   0.00488   0.00000  Uiso   1.00
H1426  H     0.28200   0.91700   0.00920   0.00000  Uiso   1.00
C1427  C     0.20246   0.94716   0.05412   0.00000  Uiso   1.00
C1428  C     0.26166   0.96152   0.07300   0.00000  Uiso   1.00
H1429  H     0.25980   0.94200   0.07220   0.00000  Uiso   1.00
C1430  C     0.26927   0.95577   0.10127   0.00000  Uiso   1.00
H1431  H     0.27260   0.93280   0.11960   0.00000  Uiso   1.00
C1432  C     0.27210   0.98426   0.10312   0.00000  Uiso   1.00
H1433  H     0.27760   0.98100   0.12240   0.00000  Uiso   1.00
C1434  C     0.26644   0.01760   0.07566   0.00000  Uiso   1.00
C1435  C     0.25906   0.02120   0.04762   0.00000  Uiso   1.00
H1436  H     0.25570   0.04390   0.02890   0.00000  Uiso   1.00
C1437  C     0.26751   0.04917   0.07681   0.00000  Uiso   1.00
N1438  N     0.53015   0.69531   0.01897   0.00000  Uiso   1.00
N1439  N     0.23886   0.79040   0.02790   0.00000  Uiso   1.00
N1440  N     0.45710   0.73794   0.01196   0.00000  Uiso   1.00
N1441  N     0.32928   0.78996   0.03098   0.00000  Uiso   1.00
N1442  N     0.29962   0.85226   0.02542   0.00000  Uiso   1.00
N1443  N     0.36276   0.82502   0.01684   0.00000  Uiso   1.00
N1444  N     0.30276   0.95268   0.99608   0.00000  Uiso   1.00
N1445  N     0.22062   0.96450   0.03302   0.00000  Uiso   1.00
N1446  N     0.25645   0.99377   0.04573   0.00000  Uiso   1.00
N1447  N     0.26767   0.04643   0.10719   0.00000  Uiso   1.00
S1448  S     0.54900   0.62139   0.03466   0.00000  Uiso   1.00
S1449  S     0.17669   0.92277   0.08377   0.00000  Uiso   1.00
C1465  C     0.43942   0.04032   0.81370   0.00000  Uiso   1.00
H1466  H     0.46030   0.04170   0.81230   0.00000  Uiso   1.00
C1467  C     0.40740   0.05110   0.83956   0.00000  Uiso   1.00
H1468  H     0.40640   0.05980   0.85540   0.00000  Uiso   1.00
C1469  C     0.37596   0.04930   0.84248   0.00000  Uiso   1.00
H1470  H     0.35350   0.05610   0.86050   0.00000  Uiso   1.00
C1471  C     0.37914   0.03722   0.81774   0.00000  Uiso   1.00
C1472  C     0.41281   0.02713   0.79227   0.00000  Uiso   1.00
H1473  H     0.41460   0.01920   0.77540   0.00000  Uiso   1.00
C1474  C     0.27122   0.02642   0.66402   0.00000  Uiso   1.00
C1475  C     0.29402   0.01540   0.76534   0.00000  Uiso   1.00
H1476  H     0.27480   0.01280   0.78760   0.00000  Uiso   1.00
C1477  C     0.32205   0.02265   0.76215   0.00000  Uiso   1.00
C1478  C     0.35069   0.02639   0.72907   0.00000  Uiso   1.00
H1479  H     0.37060   0.03080   0.72620   0.00000  Uiso   1.00
C1480  C     0.34915   0.02357   0.70099   0.00000  Uiso   1.00
H1481  H     0.36770   0.02650   0.67810   0.00000  Uiso   1.00
C1482  C     0.31994   0.01628   0.70664   0.00000  Uiso   1.00
H1483  H     0.31930   0.01430   0.68710   0.00000  Uiso   1.00
C1484  C     0.32249   0.02389   0.79391   0.00000  Uiso   1.00
C1485  C     0.29735   0.01751   0.85329   0.00000  Uiso   1.00
C1486  C     0.34870   0.03154   0.81976   0.00000  Uiso   1.00
C1487  C     0.26944   0.00818   0.88858   0.00000  Uiso   1.00
C1488  C     0.24042   0.00152   0.89248   0.00000  Uiso   1.00
H1489  H     0.23770   0.00330   0.87210   0.00000  Uiso   1.00
C1490  C     0.21583   0.99237   0.92649   0.00000  Uiso   1.00
H1491  H     0.19580   0.98780   0.93000   0.00000  Uiso   1.00
C1492  C     0.22073   0.98991   0.95605   0.00000  Uiso   1.00
H1493  H     0.20360   0.98360   0.97940   0.00000  Uiso   1.00
C1494  C     0.27208   0.00488   0.91964   0.00000  Uiso   1.00
H1495  H     0.29180   0.00920   0.91700   0.00000  Uiso   1.00
C1496  C     0.29626   0.05412   0.94716   0.00000  Uiso   1.00
C1497  C     0.20382   0.07300   0.96152   0.00000  Uiso   1.00
H1498  H     0.22600   0.07220   0.94200   0.00000  Uiso   1.00
C1499  C     0.17369   0.10127   0.95577   0.00000  Uiso   1.00
H1500  H     0.17500   0.11960   0.93280   0.00000  Uiso   1.00
C1501  C     0.14052   0.10312   0.98426   0.00000  Uiso   1.00
H1502  H     0.11900   0.12240   0.98100   0.00000  Uiso   1.00
C1503  C     0.14030   0.07566   0.01760   0.00000  Uiso   1.00
C1504  C     0.17212   0.04762   0.02120   0.00000  Uiso   1.00
H1505  H     0.17150   0.02890   0.04390   0.00000  Uiso   1.00
C1506  C     0.10651   0.07681   0.04917   0.00000  Uiso   1.00
N1507  N     0.25557   0.01897   0.69531   0.00000  Uiso   1.00
N1508  N     0.44284   0.02790   0.79040   0.00000  Uiso   1.00
N1509  N     0.29300   0.01196   0.73794   0.00000  Uiso   1.00
N1510  N     0.34978   0.03098   0.78996   0.00000  Uiso   1.00
N1511  N     0.32270   0.02542   0.85226   0.00000  Uiso   1.00
N1512  N     0.29538   0.01684   0.82502   0.00000  Uiso   1.00
N1513  N     0.24848   0.99608   0.95268   0.00000  Uiso   1.00
N1514  N     0.28186   0.03302   0.96450   0.00000  Uiso   1.00
N1515  N     0.20405   0.04573   0.99377   0.00000  Uiso   1.00
N1516  N     0.07871   0.10719   0.04643   0.00000  Uiso   1.00
S1517  S     0.29494   0.03466   0.62139   0.00000  Uiso   1.00
S1518  S     0.31677   0.08377   0.92277   0.00000  Uiso   1.00
C1534  C     0.04032   0.43942   0.20656   0.00000  Uiso   1.00
H1535  H     0.04170   0.46030   0.18570   0.00000  Uiso   1.00
C1536  C     0.05110   0.40740   0.20194   0.00000  Uiso   1.00
H1537  H     0.05980   0.40640   0.17840   0.00000  Uiso   1.00
C1538  C     0.04930   0.37596   0.23226   0.00000  Uiso   1.00
H1539  H     0.05610   0.35350   0.22990   0.00000  Uiso   1.00
C1540  C     0.03722   0.37914   0.26590   0.00000  Uiso   1.00
C1541  C     0.02713   0.41281   0.26779   0.00000  Uiso   1.00
H1542  H     0.01920   0.41460   0.29080   0.00000  Uiso   1.00
C1543  C     0.02642   0.27122   0.53834   0.00000  Uiso   1.00
C1544  C     0.01540   0.29402   0.42524   0.00000  Uiso   1.00
H1545  H     0.01280   0.27480   0.42480   0.00000  Uiso   1.00
C1546  C     0.02265   0.32205   0.39315   0.00000  Uiso   1.00
C1547  C     0.02639   0.35069   0.39385   0.00000  Uiso   1.00
H1548  H     0.03080   0.37060   0.37240   0.00000  Uiso   1.00
C1549  C     0.02357   0.34915   0.42629   0.00000  Uiso   1.00
H1550  H     0.02650   0.36770   0.42770   0.00000  Uiso   1.00
C1551  C     0.01628   0.31994   0.45714   0.00000  Uiso   1.00
H1552  H     0.01430   0.31930   0.47930   0.00000  Uiso   1.00
C1553  C     0.02389   0.32249   0.35971   0.00000  Uiso   1.00
C1554  C     0.01751   0.29735   0.33185   0.00000  Uiso   1.00
C1555  C     0.03154   0.34870   0.30000   0.00000  Uiso   1.00
C1556  C     0.00818   0.26944   0.33380   0.00000  Uiso   1.00
C1557  C     0.00152   0.24042   0.36558   0.00000  Uiso   1.00
H1558  H     0.00330   0.23770   0.38690   0.00000  Uiso   1.00
C1559  C     0.99237   0.21583   0.36531   0.00000  Uiso   1.00
H1560  H     0.98780   0.19580   0.38640   0.00000  Uiso   1.00
C1561  C     0.98991   0.22073   0.33331   0.00000  Uiso   1.00
H1562  H     0.98360   0.20360   0.33340   0.00000  Uiso   1.00
C1563  C     0.00488   0.27208   0.30340   0.00000  Uiso   1.00
H1564  H     0.00920   0.29180   0.28200   0.00000  Uiso   1.00
C1565  C     0.05412   0.29626   0.20246   0.00000  Uiso   1.00
C1566  C     0.07300   0.20382   0.26166   0.00000  Uiso   1.00
H1567  H     0.07220   0.22600   0.25980   0.00000  Uiso   1.00
C1568  C     0.10127   0.17369   0.26927   0.00000  Uiso   1.00
H1569  H     0.11960   0.17500   0.27260   0.00000  Uiso   1.00
C1570  C     0.10312   0.14052   0.27210   0.00000  Uiso   1.00
H1571  H     0.12240   0.11900   0.27760   0.00000  Uiso   1.00
C1572  C     0.07566   0.14030   0.26644   0.00000  Uiso   1.00
C1573  C     0.04762   0.17212   0.25906   0.00000  Uiso   1.00
H1574  H     0.02890   0.17150   0.25570   0.00000  Uiso   1.00
C1575  C     0.07681   0.10651   0.26751   0.00000  Uiso   1.00
N1576  N     0.01897   0.25557   0.53015   0.00000  Uiso   1.00
N1577  N     0.02790   0.44284   0.23886   0.00000  Uiso   1.00
N1578  N     0.01196   0.29300   0.45710   0.00000  Uiso   1.00
N1579  N     0.03098   0.34978   0.32928   0.00000  Uiso   1.00
N1580  N     0.02542   0.32270   0.29962   0.00000  Uiso   1.00
N1581  N     0.01684   0.29538   0.36276   0.00000  Uiso   1.00
N1582  N     0.99608   0.24848   0.30276   0.00000  Uiso   1.00
N1583  N     0.03302   0.28186   0.22062   0.00000  Uiso   1.00
N1584  N     0.04573   0.20405   0.25645   0.00000  Uiso   1.00
N1585  N     0.10719   0.07871   0.26767   0.00000  Uiso   1.00
S1586  S     0.03466   0.29494   0.54900   0.00000  Uiso   1.00
S1587  S     0.08377   0.31677   0.17669   0.00000  Uiso   1.00
C1603  C     0.81370   0.20656   0.43942   0.00000  Uiso   1.00
H1604  H     0.81230   0.18570   0.46030   0.00000  Uiso   1.00
C1605  C     0.83956   0.20194   0.40740   0.00000  Uiso   1.00
H1606  H     0.85540   0.17840   0.40640   0.00000  Uiso   1.00
C1607  C     0.84248   0.23226   0.37596   0.00000  Uiso   1.00
H1608  H     0.86050   0.22990   0.35350   0.00000  Uiso   1.00
C1609  C     0.81774   0.26590   0.37914   0.00000  Uiso   1.00
C1610  C     0.79227   0.26779   0.41281   0.00000  Uiso   1.00
H1611  H     0.77540   0.29080   0.41460   0.00000  Uiso   1.00
C1612  C     0.66402   0.53834   0.27122   0.00000  Uiso   1.00
C1613  C     0.76534   0.42524   0.29402   0.00000  Uiso   1.00
H1614  H     0.78760   0.42480   0.27480   0.00000  Uiso   1.00
C1615  C     0.76215   0.39315   0.32205   0.00000  Uiso   1.00
C1616  C     0.72907   0.39385   0.35069   0.00000  Uiso   1.00
H1617  H     0.72620   0.37240   0.37060   0.00000  Uiso   1.00
C1618  C     0.70099   0.42629   0.34915   0.00000  Uiso   1.00
H1619  H     0.67810   0.42770   0.36770   0.00000  Uiso   1.00
C1620  C     0.70664   0.45714   0.31994   0.00000  Uiso   1.00
H1621  H     0.68710   0.47930   0.31930   0.00000  Uiso   1.00
C1622  C     0.79391   0.35971   0.32249   0.00000  Uiso   1.00
C1623  C     0.85329   0.33185   0.29735   0.00000  Uiso   1.00
C1624  C     0.81976   0.30000   0.34870   0.00000  Uiso   1.00
C1625  C     0.88858   0.33380   0.26944   0.00000  Uiso   1.00
C1626  C     0.89248   0.36558   0.24042   0.00000  Uiso   1.00
H1627  H     0.87210   0.38690   0.23770   0.00000  Uiso   1.00
C1628  C     0.92649   0.36531   0.21583   0.00000  Uiso   1.00
H1629  H     0.93000   0.38640   0.19580   0.00000  Uiso   1.00
C1630  C     0.95605   0.33331   0.22073   0.00000  Uiso   1.00
H1631  H     0.97940   0.33340   0.20360   0.00000  Uiso   1.00
C1632  C     0.91964   0.30340   0.27208   0.00000  Uiso   1.00
H1633  H     0.91700   0.28200   0.29180   0.00000  Uiso   1.00
C1634  C     0.94716   0.20246   0.29626   0.00000  Uiso   1.00
C1635  C     0.96152   0.26166   0.20382   0.00000  Uiso   1.00
H1636  H     0.94200   0.25980   0.22600   0.00000  Uiso   1.00
C1637  C     0.95577   0.26927   0.17369   0.00000  Uiso   1.00
H1638  H     0.93280   0.27260   0.17500   0.00000  Uiso   1.00
C1639  C     0.98426   0.27210   0.14052   0.00000  Uiso   1.00
H1640  H     0.98100   0.27760   0.11900   0.00000  Uiso   1.00
C1641  C     0.01760   0.26644   0.14030   0.00000  Uiso   1.00
C1642  C     0.02120   0.25906   0.17212   0.00000  Uiso   1.00
H1643  H     0.04390   0.25570   0.17150   0.00000  Uiso   1.00
C1644  C     0.04917   0.26751   0.10651   0.00000  Uiso   1.00
N1645  N     0.69531   0.53015   0.25557   0.00000  Uiso   1.00
N1646  N     0.79040   0.23886   0.44284   0.00000  Uiso   1.00
N1647  N     0.73794   0.45710   0.29300   0.00000  Uiso   1.00
N1648  N     0.78996   0.32928   0.34978   0.00000  Uiso   1.00
N1649  N     0.85226   0.29962   0.32270   0.00000  Uiso   1.00
N1650  N     0.82502   0.36276   0.29538   0.00000  Uiso   1.00
N1651  N     0.95268   0.30276   0.24848   0.00000  Uiso   1.00
N1652  N     0.96450   0.22062   0.28186   0.00000  Uiso   1.00
N1653  N     0.99377   0.25645   0.20405   0.00000  Uiso   1.00
N1654  N     0.04643   0.26767   0.07871   0.00000  Uiso   1.00
S1655  S     0.62139   0.54900   0.29494   0.00000  Uiso   1.00
S1656  S     0.92277   0.17669   0.31677   0.00000  Uiso   1.00
C1672  C     0.93942   0.70656   0.31370   0.00000  Uiso   1.00
H1673  H     0.96030   0.68570   0.31230   0.00000  Uiso   1.00
C1674  C     0.90740   0.70194   0.33956   0.00000  Uiso   1.00
H1675  H     0.90640   0.67840   0.35540   0.00000  Uiso   1.00
C1676  C     0.87596   0.73226   0.34248   0.00000  Uiso   1.00
H1677  H     0.85350   0.72990   0.36050   0.00000  Uiso   1.00
C1678  C     0.87914   0.76590   0.31774   0.00000  Uiso   1.00
C1679  C     0.91281   0.76779   0.29227   0.00000  Uiso   1.00
H1680  H     0.91460   0.79080   0.27540   0.00000  Uiso   1.00
C1681  C     0.77122   0.03834   0.16402   0.00000  Uiso   1.00
C1682  C     0.79402   0.92524   0.26534   0.00000  Uiso   1.00
H1683  H     0.77480   0.92480   0.28760   0.00000  Uiso   1.00
C1684  C     0.82205   0.89315   0.26215   0.00000  Uiso   1.00
C1685  C     0.85069   0.89385   0.22907   0.00000  Uiso   1.00
H1686  H     0.87060   0.87240   0.22620   0.00000  Uiso   1.00
C1687  C     0.84915   0.92629   0.20099   0.00000  Uiso   1.00
H1688  H     0.86770   0.92770   0.17810   0.00000  Uiso   1.00
C1689  C     0.81994   0.95714   0.20664   0.00000  Uiso   1.00
H1690  H     0.81930   0.97930   0.18710   0.00000  Uiso   1.00
C1691  C     0.82249   0.85971   0.29391   0.00000  Uiso   1.00
C1692  C     0.79735   0.83185   0.35329   0.00000  Uiso   1.00
C1693  C     0.84870   0.80000   0.31976   0.00000  Uiso   1.00
C1694  C     0.76944   0.83380   0.38858   0.00000  Uiso   1.00
C1695  C     0.74042   0.86558   0.39248   0.00000  Uiso   1.00
H1696  H     0.73770   0.88690   0.37210   0.00000  Uiso   1.00
C1697  C     0.71583   0.86531   0.42649   0.00000  Uiso   1.00
H1698  H     0.69580   0.88640   0.43000   0.00000  Uiso   1.00
C1699  C     0.72073   0.83331   0.45605   0.00000  Uiso   1.00
H1700  H     0.70360   0.83340   0.47940   0.00000  Uiso   1.00
C1701  C     0.77208   0.80340   0.41964   0.00000  Uiso   1.00
H1702  H     0.79180   0.78200   0.41700   0.00000  Uiso   1.00
C1703  C     0.79626   0.70246   0.44716   0.00000  Uiso   1.00
C1704  C     0.70382   0.76166   0.46152   0.00000  Uiso   1.00
H1705  H     0.72600   0.75980   0.44200   0.00000  Uiso   1.00
C1706  C     0.67369   0.76927   0.45577   0.00000  Uiso   1.00
H1707  H     0.67500   0.77260   0.43280   0.00000  Uiso   1.00
C1708  C     0.64052   0.77210   0.48426   0.00000  Uiso   1.00
H1709  H     0.61900   0.77760   0.48100   0.00000  Uiso   1.00
C1710  C     0.64030   0.76644   0.51760   0.00000  Uiso   1.00
C1711  C     0.67212   0.75906   0.52120   0.00000  Uiso   1.00
H1712  H     0.67150   0.75570   0.54390   0.00000  Uiso   1.00
C1713  C     0.60651   0.76751   0.54917   0.00000  Uiso   1.00
N1714  N     0.75557   0.03015   0.19531   0.00000  Uiso   1.00
N1715  N     0.94284   0.73886   0.29040   0.00000  Uiso   1.00
N1716  N     0.79300   0.95710   0.23794   0.00000  Uiso   1.00
N1717  N     0.84978   0.82928   0.28996   0.00000  Uiso   1.00
N1718  N     0.82270   0.79962   0.35226   0.00000  Uiso   1.00
N1719  N     0.79538   0.86276   0.32502   0.00000  Uiso   1.00
N1720  N     0.74848   0.80276   0.45268   0.00000  Uiso   1.00
N1721  N     0.78186   0.72062   0.46450   0.00000  Uiso   1.00
N1722  N     0.70405   0.75645   0.49377   0.00000  Uiso   1.00
N1723  N     0.57871   0.76767   0.54643   0.00000  Uiso   1.00
S1724  S     0.79494   0.04900   0.12139   0.00000  Uiso   1.00
S1725  S     0.81677   0.67669   0.42277   0.00000  Uiso   1.00
C1741  C     0.70656   0.93942   0.54032   0.00000  Uiso   1.00
H1742  H     0.68570   0.96030   0.54170   0.00000  Uiso   1.00
C1743  C     0.70194   0.90740   0.55110   0.00000  Uiso   1.00
H1744  H     0.67840   0.90640   0.55980   0.00000  Uiso   1.00
C1745  C     0.73226   0.87596   0.54930   0.00000  Uiso   1.00
H1746  H     0.72990   0.85350   0.55610   0.00000  Uiso   1.00
C1747  C     0.76590   0.87914   0.53722   0.00000  Uiso   1.00
C1748  C     0.76779   0.91281   0.52713   0.00000  Uiso   1.00
H1749  H     0.79080   0.91460   0.51920   0.00000  Uiso   1.00
C1750  C     0.03834   0.77122   0.52642   0.00000  Uiso   1.00
C1751  C     0.92524   0.79402   0.51540   0.00000  Uiso   1.00
H1752  H     0.92480   0.77480   0.51280   0.00000  Uiso   1.00
C1753  C     0.89315   0.82205   0.52265   0.00000  Uiso   1.00
C1754  C     0.89385   0.85069   0.52639   0.00000  Uiso   1.00
H1755  H     0.87240   0.87060   0.53080   0.00000  Uiso   1.00
C1756  C     0.92629   0.84915   0.52357   0.00000  Uiso   1.00
H1757  H     0.92770   0.86770   0.52650   0.00000  Uiso   1.00
C1758  C     0.95714   0.81994   0.51628   0.00000  Uiso   1.00
H1759  H     0.97930   0.81930   0.51430   0.00000  Uiso   1.00
C1760  C     0.85971   0.82249   0.52389   0.00000  Uiso   1.00
C1761  C     0.83185   0.79735   0.51751   0.00000  Uiso   1.00
C1762  C     0.80000   0.84870   0.53154   0.00000  Uiso   1.00
C1763  C     0.83380   0.76944   0.50818   0.00000  Uiso   1.00
C1764  C     0.86558   0.74042   0.50152   0.00000  Uiso   1.00
H1765  H     0.88690   0.73770   0.50330   0.00000  Uiso   1.00
C1766  C     0.86531   0.71583   0.49237   0.00000  Uiso   1.00
H1767  H     0.88640   0.69580   0.48780   0.00000  Uiso   1.00
C1768  C     0.83331   0.72073   0.48991   0.00000  Uiso   1.00
H1769  H     0.83340   0.70360   0.48360   0.00000  Uiso   1.00
C1770  C     0.80340   0.77208   0.50488   0.00000  Uiso   1.00
H1771  H     0.78200   0.79180   0.50920   0.00000  Uiso   1.00
C1772  C     0.70246   0.79626   0.55412   0.00000  Uiso   1.00
C1773  C     0.76166   0.70382   0.57300   0.00000  Uiso   1.00
H1774  H     0.75980   0.72600   0.57220   0.00000  Uiso   1.00
C1775  C     0.76927   0.67369   0.60127   0.00000  Uiso   1.00
H1776  H     0.77260   0.67500   0.61960   0.00000  Uiso   1.00
C1777  C     0.77210   0.64052   0.60312   0.00000  Uiso   1.00
H1778  H     0.77760   0.61900   0.62240   0.00000  Uiso   1.00
C1779  C     0.76644   0.64030   0.57566   0.00000  Uiso   1.00
C1780  C     0.75906   0.67212   0.54762   0.00000  Uiso   1.00
H1781  H     0.75570   0.67150   0.52890   0.00000  Uiso   1.00
C1782  C     0.76751   0.60651   0.57681   0.00000  Uiso   1.00
N1783  N     0.03015   0.75557   0.51897   0.00000  Uiso   1.00
N1784  N     0.73886   0.94284   0.52790   0.00000  Uiso   1.00
N1785  N     0.95710   0.79300   0.51196   0.00000  Uiso   1.00
N1786  N     0.82928   0.84978   0.53098   0.00000  Uiso   1.00
N1787  N     0.79962   0.82270   0.52542   0.00000  Uiso   1.00
N1788  N     0.86276   0.79538   0.51684   0.00000  Uiso   1.00
N1789  N     0.80276   0.74848   0.49608   0.00000  Uiso   1.00
N1790  N     0.72062   0.78186   0.53302   0.00000  Uiso   1.00
N1791  N     0.75645   0.70405   0.54573   0.00000  Uiso   1.00
N1792  N     0.76767   0.57871   0.60719   0.00000  Uiso   1.00
S1793  S     0.04900   0.79494   0.53466   0.00000  Uiso   1.00
S1794  S     0.67669   0.81677   0.58377   0.00000  Uiso   1.00
C1810  C     0.31370   0.54032   0.93942   0.00000  Uiso   1.00
H1811  H     0.31230   0.54170   0.96030   0.00000  Uiso   1.00
C1812  C     0.33956   0.55110   0.90740   0.00000  Uiso   1.00
H1813  H     0.35540   0.55980   0.90640   0.00000  Uiso   1.00
C1814  C     0.34248   0.54930   0.87596   0.00000  Uiso   1.00
H1815  H     0.36050   0.55610   0.85350   0.00000  Uiso   1.00
C1816  C     0.31774   0.53722   0.87914   0.00000  Uiso   1.00
C1817  C     0.29227   0.52713   0.91281   0.00000  Uiso   1.00
H1818  H     0.27540   0.51920   0.91460   0.00000  Uiso   1.00
C1819  C     0.16402   0.52642   0.77122   0.00000  Uiso   1.00
C1820  C     0.26534   0.51540   0.79402   0.00000  Uiso   1.00
H1821  H     0.28760   0.51280   0.77480   0.00000  Uiso   1.00
C1822  C     0.26215   0.52265   0.82205   0.00000  Uiso   1.00
C1823  C     0.22907   0.52639   0.85069   0.00000  Uiso   1.00
H1824  H     0.22620   0.53080   0.87060   0.00000  Uiso   1.00
C1825  C     0.20099   0.52357   0.84915   0.00000  Uiso   1.00
H1826  H     0.17810   0.52650   0.86770   0.00000  Uiso   1.00
C1827  C     0.20664   0.51628   0.81994   0.00000  Uiso   1.00
H1828  H     0.18710   0.51430   0.81930   0.00000  Uiso   1.00
C1829  C     0.29391   0.52389   0.82249   0.00000  Uiso   1.00
C1830  C     0.35329   0.51751   0.79735   0.00000  Uiso   1.00
C1831  C     0.31976   0.53154   0.84870   0.00000  Uiso   1.00
C1832  C     0.38858   0.50818   0.76944   0.00000  Uiso   1.00
C1833  C     0.39248   0.50152   0.74042   0.00000  Uiso   1.00
H1834  H     0.37210   0.50330   0.73770   0.00000  Uiso   1.00
C1835  C     0.42649   0.49237   0.71583   0.00000  Uiso   1.00
H1836  H     0.43000   0.48780   0.69580   0.00000  Uiso   1.00
C1837  C     0.45605   0.48991   0.72073   0.00000  Uiso   1.00
H1838  H     0.47940   0.48360   0.70360   0.00000  Uiso   1.00
C1839  C     0.41964   0.50488   0.77208   0.00000  Uiso   1.00
H1840  H     0.41700   0.50920   0.79180   0.00000  Uiso   1.00
C1841  C     0.44716   0.55412   0.79626   0.00000  Uiso   1.00
C1842  C     0.46152   0.57300   0.70382   0.00000  Uiso   1.00
H1843  H     0.44200   0.57220   0.72600   0.00000  Uiso   1.00
C1844  C     0.45577   0.60127   0.67369   0.00000  Uiso   1.00
H1845  H     0.43280   0.61960   0.67500   0.00000  Uiso   1.00
C1846  C     0.48426   0.60312   0.64052   0.00000  Uiso   1.00
H1847  H     0.48100   0.62240   0.61900   0.00000  Uiso   1.00
C1848  C     0.51760   0.57566   0.64030   0.00000  Uiso   1.00
C1849  C     0.52120   0.54762   0.67212   0.00000  Uiso   1.00
H1850  H     0.54390   0.52890   0.67150   0.00000  Uiso   1.00
C1851  C     0.54917   0.57681   0.60651   0.00000  Uiso   1.00
N1852  N     0.19531   0.51897   0.75557   0.00000  Uiso   1.00
N1853  N     0.29040   0.52790   0.94284   0.00000  Uiso   1.00
N1854  N     0.23794   0.51196   0.79300   0.00000  Uiso   1.00
N1855  N     0.28996   0.53098   0.84978   0.00000  Uiso   1.00
N1856  N     0.35226   0.52542   0.82270   0.00000  Uiso   1.00
N1857  N     0.32502   0.51684   0.79538   0.00000  Uiso   1.00
N1858  N     0.45268   0.49608   0.74848   0.00000  Uiso   1.00
N1859  N     0.46450   0.53302   0.78186   0.00000  Uiso   1.00
N1860  N     0.49377   0.54573   0.70405   0.00000  Uiso   1.00
N1861  N     0.54643   0.60719   0.57871   0.00000  Uiso   1.00
S1862  S     0.12139   0.53466   0.79494   0.00000  Uiso   1.00
S1863  S     0.42277   0.58377   0.81677   0.00000  Uiso   1.00
C1879  C     0.54032   0.31370   0.70656   0.00000  Uiso   1.00
H1880  H     0.54170   0.31230   0.68570   0.00000  Uiso   1.00
C1881  C     0.55110   0.33956   0.70194   0.00000  Uiso   1.00
H1882  H     0.55980   0.35540   0.67840   0.00000  Uiso   1.00
C1883  C     0.54930   0.34248   0.73226   0.00000  Uiso   1.00
H1884  H     0.55610   0.36050   0.72990   0.00000  Uiso   1.00
C1885  C     0.53722   0.31774   0.76590   0.00000  Uiso   1.00
C1886  C     0.52713   0.29227   0.76779   0.00000  Uiso   1.00
H1887  H     0.51920   0.27540   0.79080   0.00000  Uiso   1.00
C1888  C     0.52642   0.16402   0.03834   0.00000  Uiso   1.00
C1889  C     0.51540   0.26534   0.92524   0.00000  Uiso   1.00
H1890  H     0.51280   0.28760   0.92480   0.00000  Uiso   1.00
C1891  C     0.52265   0.26215   0.89315   0.00000  Uiso   1.00
C1892  C     0.52639   0.22907   0.89385   0.00000  Uiso   1.00
H1893  H     0.53080   0.22620   0.87240   0.00000  Uiso   1.00
C1894  C     0.52357   0.20099   0.92629   0.00000  Uiso   1.00
H1895  H     0.52650   0.17810   0.92770   0.00000  Uiso   1.00
C1896  C     0.51628   0.20664   0.95714   0.00000  Uiso   1.00
H1897  H     0.51430   0.18710   0.97930   0.00000  Uiso   1.00
C1898  C     0.52389   0.29391   0.85971   0.00000  Uiso   1.00
C1899  C     0.51751   0.35329   0.83185   0.00000  Uiso   1.00
C1900  C     0.53154   0.31976   0.80000   0.00000  Uiso   1.00
C1901  C     0.50818   0.38858   0.83380   0.00000  Uiso   1.00
C1902  C     0.50152   0.39248   0.86558   0.00000  Uiso   1.00
H1903  H     0.50330   0.37210   0.88690   0.00000  Uiso   1.00
C1904  C     0.49237   0.42649   0.86531   0.00000  Uiso   1.00
H1905  H     0.48780   0.43000   0.88640   0.00000  Uiso   1.00
C1906  C     0.48991   0.45605   0.83331   0.00000  Uiso   1.00
H1907  H     0.48360   0.47940   0.83340   0.00000  Uiso   1.00
C1908  C     0.50488   0.41964   0.80340   0.00000  Uiso   1.00
H1909  H     0.50920   0.41700   0.78200   0.00000  Uiso   1.00
C1910  C     0.55412   0.44716   0.70246   0.00000  Uiso   1.00
C1911  C     0.57300   0.46152   0.76166   0.00000  Uiso   1.00
H1912  H     0.57220   0.44200   0.75980   0.00000  Uiso   1.00
C1913  C     0.60127   0.45577   0.76927   0.00000  Uiso   1.00
H1914  H     0.61960   0.43280   0.77260   0.00000  Uiso   1.00
C1915  C     0.60312   0.48426   0.77210   0.00000  Uiso   1.00
H1916  H     0.62240   0.48100   0.77760   0.00000  Uiso   1.00
C1917  C     0.57566   0.51760   0.76644   0.00000  Uiso   1.00
C1918  C     0.54762   0.52120   0.75906   0.00000  Uiso   1.00
H1919  H     0.52890   0.54390   0.75570   0.00000  Uiso   1.00
C1920  C     0.57681   0.54917   0.76751   0.00000  Uiso   1.00
N1921  N     0.51897   0.19531   0.03015   0.00000  Uiso   1.00
N1922  N     0.52790   0.29040   0.73886   0.00000  Uiso   1.00
N1923  N     0.51196   0.23794   0.95710   0.00000  Uiso   1.00
N1924  N     0.53098   0.28996   0.82928   0.00000  Uiso   1.00
N1925  N     0.52542   0.35226   0.79962   0.00000  Uiso   1.00
N1926  N     0.51684   0.32502   0.86276   0.00000  Uiso   1.00
N1927  N     0.49608   0.45268   0.80276   0.00000  Uiso   1.00
N1928  N     0.53302   0.46450   0.72062   0.00000  Uiso   1.00
N1929  N     0.54573   0.49377   0.75645   0.00000  Uiso   1.00
N1930  N     0.60719   0.54643   0.76767   0.00000  Uiso   1.00
S1931  S     0.53466   0.12139   0.04900   0.00000  Uiso   1.00
S1932  S     0.58377   0.42277   0.67669   0.00000  Uiso   1.00
C1948  C     0.31370   0.93942   0.70656   0.00000  Uiso   1.00
H1949  H     0.31230   0.96030   0.68570   0.00000  Uiso   1.00
C1950  C     0.33956   0.90740   0.70194   0.00000  Uiso   1.00
H1951  H     0.35540   0.90640   0.67840   0.00000  Uiso   1.00
C1952  C     0.34248   0.87596   0.73226   0.00000  Uiso   1.00
H1953  H     0.36050   0.85350   0.72990   0.00000  Uiso   1.00
C1954  C     0.31774   0.87914   0.76590   0.00000  Uiso   1.00
C1955  C     0.29227   0.91281   0.76779   0.00000  Uiso   1.00
H1956  H     0.27540   0.91460   0.79080   0.00000  Uiso   1.00
C1957  C     0.16402   0.77122   0.03834   0.00000  Uiso   1.00
C1958  C     0.26534   0.79402   0.92524   0.00000  Uiso   1.00
H1959  H     0.28760   0.77480   0.92480   0.00000  Uiso   1.00
C1960  C     0.26215   0.82205   0.89315   0.00000  Uiso   1.00
C1961  C     0.22907   0.85069   0.89385   0.00000  Uiso   1.00
H1962  H     0.22620   0.87060   0.87240   0.00000  Uiso   1.00
C1963  C     0.20099   0.84915   0.92629   0.00000  Uiso   1.00
H1964  H     0.17810   0.86770   0.92770   0.00000  Uiso   1.00
C1965  C     0.20664   0.81994   0.95714   0.00000  Uiso   1.00
H1966  H     0.18710   0.81930   0.97930   0.00000  Uiso   1.00
C1967  C     0.29391   0.82249   0.85971   0.00000  Uiso   1.00
C1968  C     0.35329   0.79735   0.83185   0.00000  Uiso   1.00
C1969  C     0.31976   0.84870   0.80000   0.00000  Uiso   1.00
C1970  C     0.38858   0.76944   0.83380   0.00000  Uiso   1.00
C1971  C     0.39248   0.74042   0.86558   0.00000  Uiso   1.00
H1972  H     0.37210   0.73770   0.88690   0.00000  Uiso   1.00
C1973  C     0.42649   0.71583   0.86531   0.00000  Uiso   1.00
H1974  H     0.43000   0.69580   0.88640   0.00000  Uiso   1.00
C1975  C     0.45605   0.72073   0.83331   0.00000  Uiso   1.00
H1976  H     0.47940   0.70360   0.83340   0.00000  Uiso   1.00
C1977  C     0.41964   0.77208   0.80340   0.00000  Uiso   1.00
H1978  H     0.41700   0.79180   0.78200   0.00000  Uiso   1.00
C1979  C     0.44716   0.79626   0.70246   0.00000  Uiso   1.00
C1980  C     0.46152   0.70382   0.76166   0.00000  Uiso   1.00
H1981  H     0.44200   0.72600   0.75980   0.00000  Uiso   1.00
C1982  C     0.45577   0.67369   0.76927   0.00000  Uiso   1.00
H1983  H     0.43280   0.67500   0.77260   0.00000  Uiso   1.00
C1984  C     0.48426   0.64052   0.77210   0.00000  Uiso   1.00
H1985  H     0.48100   0.61900   0.77760   0.00000  Uiso   1.00
C1986  C     0.51760   0.64030   0.76644   0.00000  Uiso   1.00
C1987  C     0.52120   0.67212   0.75906   0.00000  Uiso   1.00
H1988  H     0.54390   0.67150   0.75570   0.00000  Uiso   1.00
C1989  C     0.54917   0.60651   0.76751   0.00000  Uiso   1.00
N1990  N     0.19531   0.75557   0.03015   0.00000  Uiso   1.00
N1991  N     0.29040   0.94284   0.73886   0.00000  Uiso   1.00
N1992  N     0.23794   0.79300   0.95710   0.00000  Uiso   1.00
N1993  N     0.28996   0.84978   0.82928   0.00000  Uiso   1.00
N1994  N     0.35226   0.82270   0.79962   0.00000  Uiso   1.00
N1995  N     0.32502   0.79538   0.86276   0.00000  Uiso   1.00
N1996  N     0.45268   0.74848   0.80276   0.00000  Uiso   1.00
N1997  N     0.46450   0.78186   0.72062   0.00000  Uiso   1.00
N1998  N     0.49377   0.70405   0.75645   0.00000  Uiso   1.00
N1999  N     0.54643   0.57871   0.76767   0.00000  Uiso   1.00
S2000  S     0.12139   0.79494   0.04900   0.00000  Uiso   1.00
S2001  S     0.42277   0.81677   0.67669   0.00000  Uiso   1.00
C2017  C     0.54032   0.70656   0.93942   0.00000  Uiso   1.00
H2018  H     0.54170   0.68570   0.96030   0.00000  Uiso   1.00
C2019  C     0.55110   0.70194   0.90740   0.00000  Uiso   1.00
H2020  H     0.55980   0.67840   0.90640   0.00000  Uiso   1.00
C2021  C     0.54930   0.73226   0.87596   0.00000  Uiso   1.00
H2022  H     0.55610   0.72990   0.85350   0.00000  Uiso   1.00
C2023  C     0.53722   0.76590   0.87914   0.00000  Uiso   1.00
C2024  C     0.52713   0.76779   0.91281   0.00000  Uiso   1.00
H2025  H     0.51920   0.79080   0.91460   0.00000  Uiso   1.00
C2026  C     0.52642   0.03834   0.77122   0.00000  Uiso   1.00
C2027  C     0.51540   0.92524   0.79402   0.00000  Uiso   1.00
H2028  H     0.51280   0.92480   0.77480   0.00000  Uiso   1.00
C2029  C     0.52265   0.89315   0.82205   0.00000  Uiso   1.00
C2030  C     0.52639   0.89385   0.85069   0.00000  Uiso   1.00
H2031  H     0.53080   0.87240   0.87060   0.00000  Uiso   1.00
C2032  C     0.52357   0.92629   0.84915   0.00000  Uiso   1.00
H2033  H     0.52650   0.92770   0.86770   0.00000  Uiso   1.00
C2034  C     0.51628   0.95714   0.81994   0.00000  Uiso   1.00
H2035  H     0.51430   0.97930   0.81930   0.00000  Uiso   1.00
C2036  C     0.52389   0.85971   0.82249   0.00000  Uiso   1.00
C2037  C     0.51751   0.83185   0.79735   0.00000  Uiso   1.00
C2038  C     0.53154   0.80000   0.84870   0.00000  Uiso   1.00
C2039  C     0.50818   0.83380   0.76944   0.00000  Uiso   1.00
C2040  C     0.50152   0.86558   0.74042   0.00000  Uiso   1.00
H2041  H     0.50330   0.88690   0.73770   0.00000  Uiso   1.00
C2042  C     0.49237   0.86531   0.71583   0.00000  Uiso   1.00
H2043  H     0.48780   0.88640   0.69580   0.00000  Uiso   1.00
C2044  C     0.48991   0.83331   0.72073   0.00000  Uiso   1.00
H2045  H     0.48360   0.83340   0.70360   0.00000  Uiso   1.00
C2046  C     0.50488   0.80340   0.77208   0.00000  Uiso   1.00
H2047  H     0.50920   0.78200   0.79180   0.00000  Uiso   1.00
C2048  C     0.55412   0.70246   0.79626   0.00000  Uiso   1.00
C2049  C     0.57300   0.76166   0.70382   0.00000  Uiso   1.00
H2050  H     0.57220   0.75980   0.72600   0.00000  Uiso   1.00
C2051  C     0.60127   0.76927   0.67369   0.00000  Uiso   1.00
H2052  H     0.61960   0.77260   0.67500   0.00000  Uiso   1.00
C2053  C     0.60312   0.77210   0.64052   0.00000  Uiso   1.00
H2054  H     0.62240   0.77760   0.61900   0.00000  Uiso   1.00
C2055  C     0.57566   0.76644   0.64030   0.00000  Uiso   1.00
C2056  C     0.54762   0.75906   0.67212   0.00000  Uiso   1.00
H2057  H     0.52890   0.75570   0.67150   0.00000  Uiso   1.00
C2058  C     0.57681   0.76751   0.60651   0.00000  Uiso   1.00
N2059  N     0.51897   0.03015   0.75557   0.00000  Uiso   1.00
N2060  N     0.52790   0.73886   0.94284   0.00000  Uiso   1.00
N2061  N     0.51196   0.95710   0.79300   0.00000  Uiso   1.00
N2062  N     0.53098   0.82928   0.84978   0.00000  Uiso   1.00
N2063  N     0.52542   0.79962   0.82270   0.00000  Uiso   1.00
N2064  N     0.51684   0.86276   0.79538   0.00000  Uiso   1.00
N2065  N     0.49608   0.80276   0.74848   0.00000  Uiso   1.00
N2066  N     0.53302   0.72062   0.78186   0.00000  Uiso   1.00
N2067  N     0.54573   0.75645   0.70405   0.00000  Uiso   1.00
N2068  N     0.60719   0.76767   0.57871   0.00000  Uiso   1.00
S2069  S     0.53466   0.04900   0.79494   0.00000  Uiso   1.00
S2070  S     0.58377   0.67669   0.81677   0.00000  Uiso   1.00
C2086  C     0.93942   0.31370   0.54032   0.00000  Uiso   1.00
H2087  H     0.96030   0.31230   0.54170   0.00000  Uiso   1.00
C2088  C     0.90740   0.33956   0.55110   0.00000  Uiso   1.00
H2089  H     0.90640   0.35540   0.55980   0.00000  Uiso   1.00
C2090  C     0.87596   0.34248   0.54930   0.00000  Uiso   1.00
H2091  H     0.85350   0.36050   0.55610   0.00000  Uiso   1.00
C2092  C     0.87914   0.31774   0.53722   0.00000  Uiso   1.00
C2093  C     0.91281   0.29227   0.52713   0.00000  Uiso   1.00
H2094  H     0.91460   0.27540   0.51920   0.00000  Uiso   1.00
C2095  C     0.77122   0.16402   0.52642   0.00000  Uiso   1.00
C2096  C     0.79402   0.26534   0.51540   0.00000  Uiso   1.00
H2097  H     0.77480   0.28760   0.51280   0.00000  Uiso   1.00
C2098  C     0.82205   0.26215   0.52265   0.00000  Uiso   1.00
C2099  C     0.85069   0.22907   0.52639   0.00000  Uiso   1.00
H2100  H     0.87060   0.22620   0.53080   0.00000  Uiso   1.00
C2101  C     0.84915   0.20099   0.52357   0.00000  Uiso   1.00
H2102  H     0.86770   0.17810   0.52650   0.00000  Uiso   1.00
C2103  C     0.81994   0.20664   0.51628   0.00000  Uiso   1.00
H2104  H     0.81930   0.18710   0.51430   0.00000  Uiso   1.00
C2105  C     0.82249   0.29391   0.52389   0.00000  Uiso   1.00
C2106  C     0.79735   0.35329   0.51751   0.00000  Uiso   1.00
C2107  C     0.84870   0.31976   0.53154   0.00000  Uiso   1.00
C2108  C     0.76944   0.38858   0.50818   0.00000  Uiso   1.00
C2109  C     0.74042   0.39248   0.50152   0.00000  Uiso   1.00
H2110  H     0.73770   0.37210   0.50330   0.00000  Uiso   1.00
C2111  C     0.71583   0.42649   0.49237   0.00000  Uiso   1.00
H2112  H     0.69580   0.43000   0.48780   0.00000  Uiso   1.00
C2113  C     0.72073   0.45605   0.48991   0.00000  Uiso   1.00
H2114  H     0.70360   0.47940   0.48360   0.00000  Uiso   1.00
C2115  C     0.77208   0.41964   0.50488   0.00000  Uiso   1.00
H2116  H     0.79180   0.41700   0.50920   0.00000  Uiso   1.00
C2117  C     0.79626   0.44716   0.55412   0.00000  Uiso   1.00
C2118  C     0.70382   0.46152   0.57300   0.00000  Uiso   1.00
H2119  H     0.72600   0.44200   0.57220   0.00000  Uiso   1.00
C2120  C     0.67369   0.45577   0.60127   0.00000  Uiso   1.00
H2121  H     0.67500   0.43280   0.61960   0.00000  Uiso   1.00
C2122  C     0.64052   0.48426   0.60312   0.00000  Uiso   1.00
H2123  H     0.61900   0.48100   0.62240   0.00000  Uiso   1.00
C2124  C     0.64030   0.51760   0.57566   0.00000  Uiso   1.00
C2125  C     0.67212   0.52120   0.54762   0.00000  Uiso   1.00
H2126  H     0.67150   0.54390   0.52890   0.00000  Uiso   1.00
C2127  C     0.60651   0.54917   0.57681   0.00000  Uiso   1.00
N2128  N     0.75557   0.19531   0.51897   0.00000  Uiso   1.00
N2129  N     0.94284   0.29040   0.52790   0.00000  Uiso   1.00
N2130  N     0.79300   0.23794   0.51196   0.00000  Uiso   1.00
N2131  N     0.84978   0.28996   0.53098   0.00000  Uiso   1.00
N2132  N     0.82270   0.35226   0.52542   0.00000  Uiso   1.00
N2133  N     0.79538   0.32502   0.51684   0.00000  Uiso   1.00
N2134  N     0.74848   0.45268   0.49608   0.00000  Uiso   1.00
N2135  N     0.78186   0.46450   0.53302   0.00000  Uiso   1.00
N2136  N     0.70405   0.49377   0.54573   0.00000  Uiso   1.00
N2137  N     0.57871   0.54643   0.60719   0.00000  Uiso   1.00
S2138  S     0.79494   0.12139   0.53466   0.00000  Uiso   1.00
S2139  S     0.81677   0.42277   0.58377   0.00000  Uiso   1.00
C2155  C     0.70656   0.54032   0.31370   0.00000  Uiso   1.00
H2156  H     0.68570   0.54170   0.31230   0.00000  Uiso   1.00
C2157  C     0.70194   0.55110   0.33956   0.00000  Uiso   1.00
H2158  H     0.67840   0.55980   0.35540   0.00000  Uiso   1.00
C2159  C     0.73226   0.54930   0.34248   0.00000  Uiso   1.00
H2160  H     0.72990   0.55610   0.36050   0.00000  Uiso   1.00
C2161  C     0.76590   0.53722   0.31774   0.00000  Uiso   1.00
C2162  C     0.76779   0.52713   0.29227   0.00000  Uiso   1.00
H2163  H     0.79080   0.51920   0.27540   0.00000  Uiso   1.00
C2164  C     0.03834   0.52642   0.16402   0.00000  Uiso   1.00
C2165  C     0.92524   0.51540   0.26534   0.00000  Uiso   1.00
H2166  H     0.92480   0.51280   0.28760   0.00000  Uiso   1.00
C2167  C     0.89315   0.52265   0.26215   0.00000  Uiso   1.00
C2168  C     0.89385   0.52639   0.22907   0.00000  Uiso   1.00
H2169  H     0.87240   0.53080   0.22620   0.00000  Uiso   1.00
C2170  C     0.92629   0.52357   0.20099   0.00000  Uiso   1.00
H2171  H     0.92770   0.52650   0.17810   0.00000  Uiso   1.00
C2172  C     0.95714   0.51628   0.20664   0.00000  Uiso   1.00
H2173  H     0.97930   0.51430   0.18710   0.00000  Uiso   1.00
C2174  C     0.85971   0.52389   0.29391   0.00000  Uiso   1.00
C2175  C     0.83185   0.51751   0.35329   0.00000  Uiso   1.00
C2176  C     0.80000   0.53154   0.31976   0.00000  Uiso   1.00
C2177  C     0.83380   0.50818   0.38858   0.00000  Uiso   1.00
C2178  C     0.86558   0.50152   0.39248   0.00000  Uiso   1.00
H2179  H     0.88690   0.50330   0.37210   0.00000  Uiso   1.00
C2180  C     0.86531   0.49237   0.42649   0.00000  Uiso   1.00
H2181  H     0.88640   0.48780   0.43000   0.00000  Uiso   1.00
C2182  C     0.83331   0.48991   0.45605   0.00000  Uiso   1.00
H2183  H     0.83340   0.48360   0.47940   0.00000  Uiso   1.00
C2184  C     0.80340   0.50488   0.41964   0.00000  Uiso   1.00
H2185  H     0.78200   0.50920   0.41700   0.00000  Uiso   1.00
C2186  C     0.70246   0.55412   0.44716   0.00000  Uiso   1.00
C2187  C     0.76166   0.57300   0.46152   0.00000  Uiso   1.00
H2188  H     0.75980   0.57220   0.44200   0.00000  Uiso   1.00
C2189  C     0.76927   0.60127   0.45577   0.00000  Uiso   1.00
H2190  H     0.77260   0.61960   0.43280   0.00000  Uiso   1.00
C2191  C     0.77210   0.60312   0.48426   0.00000  Uiso   1.00
H2192  H     0.77760   0.62240   0.48100   0.00000  Uiso   1.00
C2193  C     0.76644   0.57566   0.51760   0.00000  Uiso   1.00
C2194  C     0.75906   0.54762   0.52120   0.00000  Uiso   1.00
H2195  H     0.75570   0.52890   0.54390   0.00000  Uiso   1.00
C2196  C     0.76751   0.57681   0.54917   0.00000  Uiso   1.00
N2197  N     0.03015   0.51897   0.19531   0.00000  Uiso   1.00
N2198  N     0.73886   0.52790   0.29040   0.00000  Uiso   1.00
N2199  N     0.95710   0.51196   0.23794   0.00000  Uiso   1.00
N2200  N     0.82928   0.53098   0.28996   0.00000  Uiso   1.00
N2201  N     0.79962   0.52542   0.35226   0.00000  Uiso   1.00
N2202  N     0.86276   0.51684   0.32502   0.00000  Uiso   1.00
N2203  N     0.80276   0.49608   0.45268   0.00000  Uiso   1.00
N2204  N     0.72062   0.53302   0.46450   0.00000  Uiso   1.00
N2205  N     0.75645   0.54573   0.49377   0.00000  Uiso   1.00
N2206  N     0.76767   0.60719   0.54643   0.00000  Uiso   1.00
S2207  S     0.04900   0.53466   0.12139   0.00000  Uiso   1.00
S2208  S     0.67669   0.58377   0.42277   0.00000  Uiso   1.00
C2224  C     0.70656   0.31370   0.93942   0.00000  Uiso   1.00
H2225  H     0.68570   0.31230   0.96030   0.00000  Uiso   1.00
C2226  C     0.70194   0.33956   0.90740   0.00000  Uiso   1.00
H2227  H     0.67840   0.35540   0.90640   0.00000  Uiso   1.00
C2228  C     0.73226   0.34248   0.87596   0.00000  Uiso   1.00
H2229  H     0.72990   0.36050   0.85350   0.00000  Uiso   1.00
C2230  C     0.76590   0.31774   0.87914   0.00000  Uiso   1.00
C2231  C     0.76779   0.29227   0.91281   0.00000  Uiso   1.00
H2232  H     0.79080   0.27540   0.91460   0.00000  Uiso   1.00
C2233  C     0.03834   0.16402   0.77122   0.00000  Uiso   1.00
C2234  C     0.92524   0.26534   0.79402   0.00000  Uiso   1.00
H2235  H     0.92480   0.28760   0.77480   0.00000  Uiso   1.00
C2236  C     0.89315   0.26215   0.82205   0.00000  Uiso   1.00
C2237  C     0.89385   0.22907   0.85069   0.00000  Uiso   1.00
H2238  H     0.87240   0.22620   0.87060   0.00000  Uiso   1.00
C2239  C     0.92629   0.20099   0.84915   0.00000  Uiso   1.00
H2240  H     0.92770   0.17810   0.86770   0.00000  Uiso   1.00
C2241  C     0.95714   0.20664   0.81994   0.00000  Uiso   1.00
H2242  H     0.97930   0.18710   0.81930   0.00000  Uiso   1.00
C2243  C     0.85971   0.29391   0.82249   0.00000  Uiso   1.00
C2244  C     0.83185   0.35329   0.79735   0.00000  Uiso   1.00
C2245  C     0.80000   0.31976   0.84870   0.00000  Uiso   1.00
C2246  C     0.83380   0.38858   0.76944   0.00000  Uiso   1.00
C2247  C     0.86558   0.39248   0.74042   0.00000  Uiso   1.00
H2248  H     0.88690   0.37210   0.73770   0.00000  Uiso   1.00
C2249  C     0.86531   0.42649   0.71583   0.00000  Uiso   1.00
H2250  H     0.88640   0.43000   0.69580   0.00000  Uiso   1.00
C2251  C     0.83331   0.45605   0.72073   0.00000  Uiso   1.00
H2252  H     0.83340   0.47940   0.70360   0.00000  Uiso   1.00
C2253  C     0.80340   0.41964   0.77208   0.00000  Uiso   1.00
H2254  H     0.78200   0.41700   0.79180   0.00000  Uiso   1.00
C2255  C     0.70246   0.44716   0.79626   0.00000  Uiso   1.00
C2256  C     0.76166   0.46152   0.70382   0.00000  Uiso   1.00
H2257  H     0.75980   0.44200   0.72600   0.00000  Uiso   1.00
C2258  C     0.76927   0.45577   0.67369   0.00000  Uiso   1.00
H2259  H     0.77260   0.43280   0.67500   0.00000  Uiso   1.00
C2260  C     0.77210   0.48426   0.64052   0.00000  Uiso   1.00
H2261  H     0.77760   0.48100   0.61900   0.00000  Uiso   1.00
C2262  C     0.76644   0.51760   0.64030   0.00000  Uiso   1.00
C2263  C     0.75906   0.52120   0.67212   0.00000  Uiso   1.00
H2264  H     0.75570   0.54390   0.67150   0.00000  Uiso   1.00
C2265  C     0.76751   0.54917   0.60651   0.00000  Uiso   1.00
N2266  N     0.03015   0.19531   0.75557   0.00000  Uiso   1.00
N2267  N     0.73886   0.29040   0.94284   0.00000  Uiso   1.00
N2268  N     0.95710   0.23794   0.79300   0.00000  Uiso   1.00
N2269  N     0.82928   0.28996   0.84978   0.00000  Uiso   1.00
N2270  N     0.79962   0.35226   0.82270   0.00000  Uiso   1.00
N2271  N     0.86276   0.32502   0.79538   0.00000  Uiso   1.00
N2272  N     0.80276   0.45268   0.74848   0.00000  Uiso   1.00
N2273  N     0.72062   0.46450   0.78186   0.00000  Uiso   1.00
N2274  N     0.75645   0.49377   0.70405   0.00000  Uiso   1.00
N2275  N     0.76767   0.54643   0.57871   0.00000  Uiso   1.00
S2276  S     0.04900   0.12139   0.79494   0.00000  Uiso   1.00
S2277  S     0.67669   0.42277   0.81677   0.00000  Uiso   1.00
C2293  C     0.93942   0.54032   0.70656   0.00000  Uiso   1.00
H2294  H     0.96030   0.54170   0.68570   0.00000  Uiso   1.00
C2295  C     0.90740   0.55110   0.70194   0.00000  Uiso   1.00
H2296  H     0.90640   0.55980   0.67840   0.00000  Uiso   1.00
C2297  C     0.87596   0.54930   0.73226   0.00000  Uiso   1.00
H2298  H     0.85350   0.55610   0.72990   0.00000  Uiso   1.00
C2299  C     0.87914   0.53722   0.76590   0.00000  Uiso   1.00
C2300  C     0.91281   0.52713   0.76779   0.00000  Uiso   1.00
H2301  H     0.91460   0.51920   0.79080   0.00000  Uiso   1.00
C2302  C     0.77122   0.52642   0.03834   0.00000  Uiso   1.00
C2303  C     0.79402   0.51540   0.92524   0.00000  Uiso   1.00
H2304  H     0.77480   0.51280   0.92480   0.00000  Uiso   1.00
C2305  C     0.82205   0.52265   0.89315   0.00000  Uiso   1.00
C2306  C     0.85069   0.52639   0.89385   0.00000  Uiso   1.00
H2307  H     0.87060   0.53080   0.87240   0.00000  Uiso   1.00
C2308  C     0.84915   0.52357   0.92629   0.00000  Uiso   1.00
H2309  H     0.86770   0.52650   0.92770   0.00000  Uiso   1.00
C2310  C     0.81994   0.51628   0.95714   0.00000  Uiso   1.00
H2311  H     0.81930   0.51430   0.97930   0.00000  Uiso   1.00
C2312  C     0.82249   0.52389   0.85971   0.00000  Uiso   1.00
C2313  C     0.79735   0.51751   0.83185   0.00000  Uiso   1.00
C2314  C     0.84870   0.53154   0.80000   0.00000  Uiso   1.00
C2315  C     0.76944   0.50818   0.83380   0.00000  Uiso   1.00
C2316  C     0.74042   0.50152   0.86558   0.00000  Uiso   1.00
H2317  H     0.73770   0.50330   0.88690   0.00000  Uiso   1.00
C2318  C     0.71583   0.49237   0.86531   0.00000  Uiso   1.00
H2319  H     0.69580   0.48780   0.88640   0.00000  Uiso   1.00
C2320  C     0.72073   0.48991   0.83331   0.00000  Uiso   1.00
H2321  H     0.70360   0.48360   0.83340   0.00000  Uiso   1.00
C2322  C     0.77208   0.50488   0.80340   0.00000  Uiso   1.00
H2323  H     0.79180   0.50920   0.78200   0.00000  Uiso   1.00
C2324  C     0.79626   0.55412   0.70246   0.00000  Uiso   1.00
C2325  C     0.70382   0.57300   0.76166   0.00000  Uiso   1.00
H2326  H     0.72600   0.57220   0.75980   0.00000  Uiso   1.00
C2327  C     0.67369   0.60127   0.76927   0.00000  Uiso   1.00
H2328  H     0.67500   0.61960   0.77260   0.00000  Uiso   1.00
C2329  C     0.64052   0.60312   0.77210   0.00000  Uiso   1.00
H2330  H     0.61900   0.62240   0.77760   0.00000  Uiso   1.00
C2331  C     0.64030   0.57566   0.76644   0.00000  Uiso   1.00
C2332  C     0.67212   0.54762   0.75906   0.00000  Uiso   1.00
H2333  H     0.67150   0.52890   0.75570   0.00000  Uiso   1.00
C2334  C     0.60651   0.57681   0.76751   0.00000  Uiso   1.00
N2335  N     0.75557   0.51897   0.03015   0.00000  Uiso   1.00
N2336  N     0.94284   0.52790   0.73886   0.00000  Uiso   1.00
N2337  N     0.79300   0.51196   0.95710   0.00000  Uiso   1.00
N2338  N     0.84978   0.53098   0.82928   0.00000  Uiso   1.00
N2339  N     0.82270   0.52542   0.79962   0.00000  Uiso   1.00
N2340  N     0.79538   0.51684   0.86276   0.00000  Uiso   1.00
N2341  N     0.74848   0.49608   0.80276   0.00000  Uiso   1.00
N2342  N     0.78186   0.53302   0.72062   0.00000  Uiso   1.00
N2343  N     0.70405   0.54573   0.75645   0.00000  Uiso   1.00
N2344  N     0.57871   0.60719   0.76767   0.00000  Uiso   1.00
S2345  S     0.79494   0.53466   0.04900   0.00000  Uiso   1.00
S2346  S     0.81677   0.58377   0.67669   0.00000  Uiso   1.00
C2362  C     0.54032   0.93942   0.31370   0.00000  Uiso   1.00
H2363  H     0.54170   0.96030   0.31230   0.00000  Uiso   1.00
C2364  C     0.55110   0.90740   0.33956   0.00000  Uiso   1.00
H2365  H     0.55980   0.90640   0.35540   0.00000  Uiso   1.00
C2366  C     0.54930   0.87596   0.34248   0.00000  Uiso   1.00
H2367  H     0.55610   0.85350   0.36050   0.00000  Uiso   1.00
C2368  C     0.53722   0.87914   0.31774   0.00000  Uiso   1.00
C2369  C     0.52713   0.91281   0.29227   0.00000  Uiso   1.00
H2370  H     0.51920   0.91460   0.27540   0.00000  Uiso   1.00
C2371  C     0.52642   0.77122   0.16402   0.00000  Uiso   1.00
C2372  C     0.51540   0.79402   0.26534   0.00000  Uiso   1.00
H2373  H     0.51280   0.77480   0.28760   0.00000  Uiso   1.00
C2374  C     0.52265   0.82205   0.26215   0.00000  Uiso   1.00
C2375  C     0.52639   0.85069   0.22907   0.00000  Uiso   1.00
H2376  H     0.53080   0.87060   0.22620   0.00000  Uiso   1.00
C2377  C     0.52357   0.84915   0.20099   0.00000  Uiso   1.00
H2378  H     0.52650   0.86770   0.17810   0.00000  Uiso   1.00
C2379  C     0.51628   0.81994   0.20664   0.00000  Uiso   1.00
H2380  H     0.51430   0.81930   0.18710   0.00000  Uiso   1.00
C2381  C     0.52389   0.82249   0.29391   0.00000  Uiso   1.00
C2382  C     0.51751   0.79735   0.35329   0.00000  Uiso   1.00
C2383  C     0.53154   0.84870   0.31976   0.00000  Uiso   1.00
C2384  C     0.50818   0.76944   0.38858   0.00000  Uiso   1.00
C2385  C     0.50152   0.74042   0.39248   0.00000  Uiso   1.00
H2386  H     0.50330   0.73770   0.37210   0.00000  Uiso   1.00
C2387  C     0.49237   0.71583   0.42649   0.00000  Uiso   1.00
H2388  H     0.48780   0.69580   0.43000   0.00000  Uiso   1.00
C2389  C     0.48991   0.72073   0.45605   0.00000  Uiso   1.00
H2390  H     0.48360   0.70360   0.47940   0.00000  Uiso   1.00
C2391  C     0.50488   0.77208   0.41964   0.00000  Uiso   1.00
H2392  H     0.50920   0.79180   0.41700   0.00000  Uiso   1.00
C2393  C     0.55412   0.79626   0.44716   0.00000  Uiso   1.00
C2394  C     0.57300   0.70382   0.46152   0.00000  Uiso   1.00
H2395  H     0.57220   0.72600   0.44200   0.00000  Uiso   1.00
C2396  C     0.60127   0.67369   0.45577   0.00000  Uiso   1.00
H2397  H     0.61960   0.67500   0.43280   0.00000  Uiso   1.00
C2398  C     0.60312   0.64052   0.48426   0.00000  Uiso   1.00
H2399  H     0.62240   0.61900   0.48100   0.00000  Uiso   1.00
C2400  C     0.57566   0.64030   0.51760   0.00000  Uiso   1.00
C2401  C     0.54762   0.67212   0.52120   0.00000  Uiso   1.00
H2402  H     0.52890   0.67150   0.54390   0.00000  Uiso   1.00
C2403  C     0.57681   0.60651   0.54917   0.00000  Uiso   1.00
N2404  N     0.51897   0.75557   0.19531   0.00000  Uiso   1.00
N2405  N     0.52790   0.94284   0.29040   0.00000  Uiso   1.00
N2406  N     0.51196   0.79300   0.23794   0.00000  Uiso   1.00
N2407  N     0.53098   0.84978   0.28996   0.00000  Uiso   1.00
N2408  N     0.52542   0.82270   0.35226   0.00000  Uiso   1.00
N2409  N     0.51684   0.79538   0.32502   0.00000  Uiso   1.00
N2410  N     0.49608   0.74848   0.45268   0.00000  Uiso   1.00
N2411  N     0.53302   0.78186   0.46450   0.00000  Uiso   1.00
N2412  N     0.54573   0.70405   0.49377   0.00000  Uiso   1.00
N2413  N     0.60719   0.57871   0.54643   0.00000  Uiso   1.00
S2414  S     0.53466   0.79494   0.12139   0.00000  Uiso   1.00
S2415  S     0.58377   0.81677   0.42277   0.00000  Uiso   1.00
C2431  C     0.31370   0.70656   0.54032   0.00000  Uiso   1.00
H2432  H     0.31230   0.68570   0.54170   0.00000  Uiso   1.00
C2433  C     0.33956   0.70194   0.55110   0.00000  Uiso   1.00
H2434  H     0.35540   0.67840   0.55980   0.00000  Uiso   1.00
C2435  C     0.34248   0.73226   0.54930   0.00000  Uiso   1.00
H2436  H     0.36050   0.72990   0.55610   0.00000  Uiso   1.00
C2437  C     0.31774   0.76590   0.53722   0.00000  Uiso   1.00
C2438  C     0.29227   0.76779   0.52713   0.00000  Uiso   1.00
H2439  H     0.27540   0.79080   0.51920   0.00000  Uiso   1.00
C2440  C     0.16402   0.03834   0.52642   0.00000  Uiso   1.00
C2441  C     0.26534   0.92524   0.51540   0.00000  Uiso   1.00
H2442  H     0.28760   0.92480   0.51280   0.00000  Uiso   1.00
C2443  C     0.26215   0.89315   0.52265   0.00000  Uiso   1.00
C2444  C     0.22907   0.89385   0.52639   0.00000  Uiso   1.00
H2445  H     0.22620   0.87240   0.53080   0.00000  Uiso   1.00
C2446  C     0.20099   0.92629   0.52357   0.00000  Uiso   1.00
H2447  H     0.17810   0.92770   0.52650   0.00000  Uiso   1.00
C2448  C     0.20664   0.95714   0.51628   0.00000  Uiso   1.00
H2449  H     0.18710   0.97930   0.51430   0.00000  Uiso   1.00
C2450  C     0.29391   0.85971   0.52389   0.00000  Uiso   1.00
C2451  C     0.35329   0.83185   0.51751   0.00000  Uiso   1.00
C2452  C     0.31976   0.80000   0.53154   0.00000  Uiso   1.00
C2453  C     0.38858   0.83380   0.50818   0.00000  Uiso   1.00
C2454  C     0.39248   0.86558   0.50152   0.00000  Uiso   1.00
H2455  H     0.37210   0.88690   0.50330   0.00000  Uiso   1.00
C2456  C     0.42649   0.86531   0.49237   0.00000  Uiso   1.00
H2457  H     0.43000   0.88640   0.48780   0.00000  Uiso   1.00
C2458  C     0.45605   0.83331   0.48991   0.00000  Uiso   1.00
H2459  H     0.47940   0.83340   0.48360   0.00000  Uiso   1.00
C2460  C     0.41964   0.80340   0.50488   0.00000  Uiso   1.00
H2461  H     0.41700   0.78200   0.50920   0.00000  Uiso   1.00
C2462  C     0.44716   0.70246   0.55412   0.00000  Uiso   1.00
C2463  C     0.46152   0.76166   0.57300   0.00000  Uiso   1.00
H2464  H     0.44200   0.75980   0.57220   0.00000  Uiso   1.00
C2465  C     0.45577   0.76927   0.60127   0.00000  Uiso   1.00
H2466  H     0.43280   0.77260   0.61960   0.00000  Uiso   1.00
C2467  C     0.48426   0.77210   0.60312   0.00000  Uiso   1.00
H2468  H     0.48100   0.77760   0.62240   0.00000  Uiso   1.00
C2469  C     0.51760   0.76644   0.57566   0.00000  Uiso   1.00
C2470  C     0.52120   0.75906   0.54762   0.00000  Uiso   1.00
H2471  H     0.54390   0.75570   0.52890   0.00000  Uiso   1.00
C2472  C     0.54917   0.76751   0.57681   0.00000  Uiso   1.00
N2473  N     0.19531   0.03015   0.51897   0.00000  Uiso   1.00
N2474  N     0.29040   0.73886   0.52790   0.00000  Uiso   1.00
N2475  N     0.23794   0.95710   0.51196   0.00000  Uiso   1.00
N2476  N     0.28996   0.82928   0.53098   0.00000  Uiso   1.00
N2477  N     0.35226   0.79962   0.52542   0.00000  Uiso   1.00
N2478  N     0.32502   0.86276   0.51684   0.00000  Uiso   1.00
N2479  N     0.45268   0.80276   0.49608   0.00000  Uiso   1.00
N2480  N     0.46450   0.72062   0.53302   0.00000  Uiso   1.00
N2481  N     0.49377   0.75645   0.54573   0.00000  Uiso   1.00
N2482  N     0.54643   0.76767   0.60719   0.00000  Uiso   1.00
S2483  S     0.12139   0.04900   0.53466   0.00000  Uiso   1.00
S2484  S     0.42277   0.67669   0.58377   0.00000  Uiso   1.00
C2500  C     0.56058   0.79344   0.95968   0.00000  Uiso   1.00
H2501  H     0.53970   0.81430   0.95830   0.00000  Uiso   1.00
C2502  C     0.59260   0.79806   0.94890   0.00000  Uiso   1.00
H2503  H     0.59360   0.82160   0.94020   0.00000  Uiso   1.00
C2504  C     0.62404   0.76774   0.95070   0.00000  Uiso   1.00
H2505  H     0.64650   0.77010   0.94390   0.00000  Uiso   1.00
C2506  C     0.62086   0.73410   0.96278   0.00000  Uiso   1.00
C2507  C     0.58719   0.73221   0.97287   0.00000  Uiso   1.00
H2508  H     0.58540   0.70920   0.98080   0.00000  Uiso   1.00
C2509  C     0.72878   0.46166   0.97358   0.00000  Uiso   1.00
C2510  C     0.70598   0.57476   0.98460   0.00000  Uiso   1.00
H2511  H     0.72520   0.57520   0.98720   0.00000  Uiso   1.00
C2512  C     0.67795   0.60685   0.97735   0.00000  Uiso   1.00
C2513  C     0.64931   0.60615   0.97361   0.00000  Uiso   1.00
H2514  H     0.62940   0.62760   0.96920   0.00000  Uiso   1.00
C2515  C     0.65085   0.57371   0.97643   0.00000  Uiso   1.00
H2516  H     0.63230   0.57230   0.97350   0.00000  Uiso   1.00
C2517  C     0.68006   0.54286   0.98372   0.00000  Uiso   1.00
H2518  H     0.68070   0.52070   0.98570   0.00000  Uiso   1.00
C2519  C     0.67751   0.64029   0.97611   0.00000  Uiso   1.00
C2520  C     0.70265   0.66815   0.98249   0.00000  Uiso   1.00
C2521  C     0.65130   0.70000   0.96846   0.00000  Uiso   1.00
C2522  C     0.73056   0.66620   0.99182   0.00000  Uiso   1.00
C2523  C     0.75958   0.63442   0.99848   0.00000  Uiso   1.00
H2524  H     0.76230   0.61310   0.99670   0.00000  Uiso   1.00
C2525  C     0.78417   0.63469   0.00763   0.00000  Uiso   1.00
H2526  H     0.80420   0.61360   0.01220   0.00000  Uiso   1.00
C2527  C     0.77927   0.66669   0.01009   0.00000  Uiso   1.00
H2528  H     0.79640   0.66660   0.01640   0.00000  Uiso   1.00
C2529  C     0.72792   0.69660   0.99512   0.00000  Uiso   1.00
H2530  H     0.70820   0.71800   0.99080   0.00000  Uiso   1.00
C2531  C     0.70374   0.79754   0.94588   0.00000  Uiso   1.00
C2532  C     0.79618   0.73834   0.92700   0.00000  Uiso   1.00
H2533  H     0.77400   0.74020   0.92780   0.00000  Uiso   1.00
C2534  C     0.82631   0.73073   0.89873   0.00000  Uiso   1.00
H2535  H     0.82500   0.72740   0.88040   0.00000  Uiso   1.00
C2536  C     0.85948   0.72790   0.89688   0.00000  Uiso   1.00
H2537  H     0.88100   0.72240   0.87760   0.00000  Uiso   1.00
C2538  C     0.85970   0.73356   0.92434   0.00000  Uiso   1.00
C2539  C     0.82788   0.74094   0.95238   0.00000  Uiso   1.00
H2540  H     0.82850   0.74430   0.97110   0.00000  Uiso   1.00
C2541  C     0.89349   0.73249   0.92319   0.00000  Uiso   1.00
N2542  N     0.74443   0.46985   0.98103   0.00000  Uiso   1.00
N2543  N     0.55716   0.76114   0.97210   0.00000  Uiso   1.00
N2544  N     0.70700   0.54290   0.98804   0.00000  Uiso   1.00
N2545  N     0.65022   0.67072   0.96902   0.00000  Uiso   1.00
N2546  N     0.67730   0.70038   0.97458   0.00000  Uiso   1.00
N2547  N     0.70462   0.63724   0.98316   0.00000  Uiso   1.00
N2548  N     0.75152   0.69724   0.00392   0.00000  Uiso   1.00
N2549  N     0.71814   0.77938   0.96698   0.00000  Uiso   1.00
N2550  N     0.79595   0.74355   0.95427   0.00000  Uiso   1.00
N2551  N     0.92129   0.73233   0.89281   0.00000  Uiso   1.00
S2552  S     0.70506   0.45100   0.96534   0.00000  Uiso   1.00
S2553  S     0.68323   0.82331   0.91623   0.00000  Uiso   1.00
C2569  C     0.79344   0.56058   0.18630   0.00000  Uiso   1.00
H2570  H     0.81430   0.53970   0.18770   0.00000  Uiso   1.00
C2571  C     0.79806   0.59260   0.16044   0.00000  Uiso   1.00
H2572  H     0.82160   0.59360   0.14460   0.00000  Uiso   1.00
C2573  C     0.76774   0.62404   0.15752   0.00000  Uiso   1.00
H2574  H     0.77010   0.64650   0.13950   0.00000  Uiso   1.00
C2575  C     0.73410   0.62086   0.18226   0.00000  Uiso   1.00
C2576  C     0.73221   0.58719   0.20773   0.00000  Uiso   1.00
H2577  H     0.70920   0.58540   0.22460   0.00000  Uiso   1.00
C2578  C     0.46166   0.72878   0.33598   0.00000  Uiso   1.00
C2579  C     0.57476   0.70598   0.23466   0.00000  Uiso   1.00
H2580  H     0.57520   0.72520   0.21240   0.00000  Uiso   1.00
C2581  C     0.60685   0.67795   0.23785   0.00000  Uiso   1.00
C2582  C     0.60615   0.64931   0.27093   0.00000  Uiso   1.00
H2583  H     0.62760   0.62940   0.27380   0.00000  Uiso   1.00
C2584  C     0.57371   0.65085   0.29901   0.00000  Uiso   1.00
H2585  H     0.57230   0.63230   0.32190   0.00000  Uiso   1.00
C2586  C     0.54286   0.68006   0.29336   0.00000  Uiso   1.00
H2587  H     0.52070   0.68070   0.31290   0.00000  Uiso   1.00
C2588  C     0.64029   0.67751   0.20609   0.00000  Uiso   1.00
C2589  C     0.66815   0.70265   0.14671   0.00000  Uiso   1.00
C2590  C     0.70000   0.65130   0.18024   0.00000  Uiso   1.00
C2591  C     0.66620   0.73056   0.11142   0.00000  Uiso   1.00
C2592  C     0.63442   0.75958   0.10752   0.00000  Uiso   1.00
H2593  H     0.61310   0.76230   0.12790   0.00000  Uiso   1.00
C2594  C     0.63469   0.78417   0.07351   0.00000  Uiso   1.00
H2595  H     0.61360   0.80420   0.07000   0.00000  Uiso   1.00
C2596  C     0.66669   0.77927   0.04395   0.00000  Uiso   1.00
H2597  H     0.66660   0.79640   0.02060   0.00000  Uiso   1.00
C2598  C     0.69660   0.72792   0.08036   0.00000  Uiso   1.00
H2599  H     0.71800   0.70820   0.08300   0.00000  Uiso   1.00
C2600  C     0.79754   0.70374   0.05284   0.00000  Uiso   1.00
C2601  C     0.73834   0.79618   0.03848   0.00000  Uiso   1.00
H2602  H     0.74020   0.77400   0.05800   0.00000  Uiso   1.00
C2603  C     0.73073   0.82631   0.04423   0.00000  Uiso   1.00
H2604  H     0.72740   0.82500   0.06720   0.00000  Uiso   1.00
C2605  C     0.72790   0.85948   0.01574   0.00000  Uiso   1.00
H2606  H     0.72240   0.88100   0.01900   0.00000  Uiso   1.00
C2607  C     0.73356   0.85970   0.98240   0.00000  Uiso   1.00
C2608  C     0.74094   0.82788   0.97880   0.00000  Uiso   1.00
H2609  H     0.74430   0.82850   0.95610   0.00000  Uiso   1.00
C2610  C     0.73249   0.89349   0.95083   0.00000  Uiso   1.00
N2611  N     0.46985   0.74443   0.30469   0.00000  Uiso   1.00
N2612  N     0.76114   0.55716   0.20960   0.00000  Uiso   1.00
N2613  N     0.54290   0.70700   0.26206   0.00000  Uiso   1.00
N2614  N     0.67072   0.65022   0.21004   0.00000  Uiso   1.00
N2615  N     0.70038   0.67730   0.14774   0.00000  Uiso   1.00
N2616  N     0.63724   0.70462   0.17498   0.00000  Uiso   1.00
N2617  N     0.69724   0.75152   0.04732   0.00000  Uiso   1.00
N2618  N     0.77938   0.71814   0.03550   0.00000  Uiso   1.00
N2619  N     0.74355   0.79595   0.00623   0.00000  Uiso   1.00
N2620  N     0.73233   0.92129   0.95357   0.00000  Uiso   1.00
S2621  S     0.45100   0.70506   0.37861   0.00000  Uiso   1.00
S2622  S     0.82331   0.68323   0.07723   0.00000  Uiso   1.00
C2638  C     0.18630   0.95968   0.79344   0.00000  Uiso   1.00
H2639  H     0.18770   0.95830   0.81430   0.00000  Uiso   1.00
C2640  C     0.16044   0.94890   0.79806   0.00000  Uiso   1.00
H2641  H     0.14460   0.94020   0.82160   0.00000  Uiso   1.00
C2642  C     0.15752   0.95070   0.76774   0.00000  Uiso   1.00
H2643  H     0.13950   0.94390   0.77010   0.00000  Uiso   1.00
C2644  C     0.18226   0.96278   0.73410   0.00000  Uiso   1.00
C2645  C     0.20773   0.97287   0.73221   0.00000  Uiso   1.00
H2646  H     0.22460   0.98080   0.70920   0.00000  Uiso   1.00
C2647  C     0.33598   0.97358   0.46166   0.00000  Uiso   1.00
C2648  C     0.23466   0.98460   0.57476   0.00000  Uiso   1.00
H2649  H     0.21240   0.98720   0.57520   0.00000  Uiso   1.00
C2650  C     0.23785   0.97735   0.60685   0.00000  Uiso   1.00
C2651  C     0.27093   0.97361   0.60615   0.00000  Uiso   1.00
H2652  H     0.27380   0.96920   0.62760   0.00000  Uiso   1.00
C2653  C     0.29901   0.97643   0.57371   0.00000  Uiso   1.00
H2654  H     0.32190   0.97350   0.57230   0.00000  Uiso   1.00
C2655  C     0.29336   0.98372   0.54286   0.00000  Uiso   1.00
H2656  H     0.31290   0.98570   0.52070   0.00000  Uiso   1.00
C2657  C     0.20609   0.97611   0.64029   0.00000  Uiso   1.00
C2658  C     0.14671   0.98249   0.66815   0.00000  Uiso   1.00
C2659  C     0.18024   0.96846   0.70000   0.00000  Uiso   1.00
C2660  C     0.11142   0.99182   0.66620   0.00000  Uiso   1.00
C2661  C     0.10752   0.99848   0.63442   0.00000  Uiso   1.00
H2662  H     0.12790   0.99670   0.61310   0.00000  Uiso   1.00
C2663  C     0.07351   0.00763   0.63469   0.00000  Uiso   1.00
H2664  H     0.07000   0.01220   0.61360   0.00000  Uiso   1.00
C2665  C     0.04395   0.01009   0.66669   0.00000  Uiso   1.00
H2666  H     0.02060   0.01640   0.66660   0.00000  Uiso   1.00
C2667  C     0.08036   0.99512   0.69660   0.00000  Uiso   1.00
H2668  H     0.08300   0.99080   0.71800   0.00000  Uiso   1.00
C2669  C     0.05284   0.94588   0.79754   0.00000  Uiso   1.00
C2670  C     0.03848   0.92700   0.73834   0.00000  Uiso   1.00
H2671  H     0.05800   0.92780   0.74020   0.00000  Uiso   1.00
C2672  C     0.04423   0.89873   0.73073   0.00000  Uiso   1.00
H2673  H     0.06720   0.88040   0.72740   0.00000  Uiso   1.00
C2674  C     0.01574   0.89688   0.72790   0.00000  Uiso   1.00
H2675  H     0.01900   0.87760   0.72240   0.00000  Uiso   1.00
C2676  C     0.98240   0.92434   0.73356   0.00000  Uiso   1.00
C2677  C     0.97880   0.95238   0.74094   0.00000  Uiso   1.00
H2678  H     0.95610   0.97110   0.74430   0.00000  Uiso   1.00
C2679  C     0.95083   0.92319   0.73249   0.00000  Uiso   1.00
N2680  N     0.30469   0.98103   0.46985   0.00000  Uiso   1.00
N2681  N     0.20960   0.97210   0.76114   0.00000  Uiso   1.00
N2682  N     0.26206   0.98804   0.54290   0.00000  Uiso   1.00
N2683  N     0.21004   0.96902   0.67072   0.00000  Uiso   1.00
N2684  N     0.14774   0.97458   0.70038   0.00000  Uiso   1.00
N2685  N     0.17498   0.98316   0.63724   0.00000  Uiso   1.00
N2686  N     0.04732   0.00392   0.69724   0.00000  Uiso   1.00
N2687  N     0.03550   0.96698   0.77938   0.00000  Uiso   1.00
N2688  N     0.00623   0.95427   0.74355   0.00000  Uiso   1.00
N2689  N     0.95357   0.89281   0.73233   0.00000  Uiso   1.00
S2690  S     0.37861   0.96534   0.45100   0.00000  Uiso   1.00
S2691  S     0.07723   0.91623   0.82331   0.00000  Uiso   1.00
C2707  C     0.95968   0.18630   0.56058   0.00000  Uiso   1.00
H2708  H     0.95830   0.18770   0.53970   0.00000  Uiso   1.00
C2709  C     0.94890   0.16044   0.59260   0.00000  Uiso   1.00
H2710  H     0.94020   0.14460   0.59360   0.00000  Uiso   1.00
C2711  C     0.95070   0.15752   0.62404   0.00000  Uiso   1.00
H2712  H     0.94390   0.13950   0.64650   0.00000  Uiso   1.00
C2713  C     0.96278   0.18226   0.62086   0.00000  Uiso   1.00
C2714  C     0.97287   0.20773   0.58719   0.00000  Uiso   1.00
H2715  H     0.98080   0.22460   0.58540   0.00000  Uiso   1.00
C2716  C     0.97358   0.33598   0.72878   0.00000  Uiso   1.00
C2717  C     0.98460   0.23466   0.70598   0.00000  Uiso   1.00
H2718  H     0.98720   0.21240   0.72520   0.00000  Uiso   1.00
C2719  C     0.97735   0.23785   0.67795   0.00000  Uiso   1.00
C2720  C     0.97361   0.27093   0.64931   0.00000  Uiso   1.00
H2721  H     0.96920   0.27380   0.62940   0.00000  Uiso   1.00
C2722  C     0.97643   0.29901   0.65085   0.00000  Uiso   1.00
H2723  H     0.97350   0.32190   0.63230   0.00000  Uiso   1.00
C2724  C     0.98372   0.29336   0.68006   0.00000  Uiso   1.00
H2725  H     0.98570   0.31290   0.68070   0.00000  Uiso   1.00
C2726  C     0.97611   0.20609   0.67751   0.00000  Uiso   1.00
C2727  C     0.98249   0.14671   0.70265   0.00000  Uiso   1.00
C2728  C     0.96846   0.18024   0.65130   0.00000  Uiso   1.00
C2729  C     0.99182   0.11142   0.73056   0.00000  Uiso   1.00
C2730  C     0.99848   0.10752   0.75958   0.00000  Uiso   1.00
H2731  H     0.99670   0.12790   0.76230   0.00000  Uiso   1.00
C2732  C     0.00763   0.07351   0.78417   0.00000  Uiso   1.00
H2733  H     0.01220   0.07000   0.80420   0.00000  Uiso   1.00
C2734  C     0.01009   0.04395   0.77927   0.00000  Uiso   1.00
H2735  H     0.01640   0.02060   0.79640   0.00000  Uiso   1.00
C2736  C     0.99512   0.08036   0.72792   0.00000  Uiso   1.00
H2737  H     0.99080   0.08300   0.70820   0.00000  Uiso   1.00
C2738  C     0.94588   0.05284   0.70374   0.00000  Uiso   1.00
C2739  C     0.92700   0.03848   0.79618   0.00000  Uiso   1.00
H2740  H     0.92780   0.05800   0.77400   0.00000  Uiso   1.00
C2741  C     0.89873   0.04423   0.82631   0.00000  Uiso   1.00
H2742  H     0.88040   0.06720   0.82500   0.00000  Uiso   1.00
C2743  C     0.89688   0.01574   0.85948   0.00000  Uiso   1.00
H2744  H     0.87760   0.01900   0.88100   0.00000  Uiso   1.00
C2745  C     0.92434   0.98240   0.85970   0.00000  Uiso   1.00
C2746  C     0.95238   0.97880   0.82788   0.00000  Uiso   1.00
H2747  H     0.97110   0.95610   0.82850   0.00000  Uiso   1.00
C2748  C     0.92319   0.95083   0.89349   0.00000  Uiso   1.00
N2749  N     0.98103   0.30469   0.74443   0.00000  Uiso   1.00
N2750  N     0.97210   0.20960   0.55716   0.00000  Uiso   1.00
N2751  N     0.98804   0.26206   0.70700   0.00000  Uiso   1.00
N2752  N     0.96902   0.21004   0.65022   0.00000  Uiso   1.00
N2753  N     0.97458   0.14774   0.67730   0.00000  Uiso   1.00
N2754  N     0.98316   0.17498   0.70462   0.00000  Uiso   1.00
N2755  N     0.00392   0.04732   0.75152   0.00000  Uiso   1.00
N2756  N     0.96698   0.03550   0.71814   0.00000  Uiso   1.00
N2757  N     0.95427   0.00623   0.79595   0.00000  Uiso   1.00
N2758  N     0.89281   0.95357   0.92129   0.00000  Uiso   1.00
S2759  S     0.96534   0.37861   0.70506   0.00000  Uiso   1.00
S2760  S     0.91623   0.07723   0.68323   0.00000  Uiso   1.00
C2776  C     0.18630   0.56058   0.95968   0.00000  Uiso   1.00
H2777  H     0.18770   0.53970   0.95830   0.00000  Uiso   1.00
C2778  C     0.16044   0.59260   0.94890   0.00000  Uiso   1.00
H2779  H     0.14460   0.59360   0.94020   0.00000  Uiso   1.00
C2780  C     0.15752   0.62404   0.95070   0.00000  Uiso   1.00
H2781  H     0.13950   0.64650   0.94390   0.00000  Uiso   1.00
C2782  C     0.18226   0.62086   0.96278   0.00000  Uiso   1.00
C2783  C     0.20773   0.58719   0.97287   0.00000  Uiso   1.00
H2784  H     0.22460   0.58540   0.98080   0.00000  Uiso   1.00
C2785  C     0.33598   0.72878   0.97358   0.00000  Uiso   1.00
C2786  C     0.23466   0.70598   0.98460   0.00000  Uiso   1.00
H2787  H     0.21240   0.72520   0.98720   0.00000  Uiso   1.00
C2788  C     0.23785   0.67795   0.97735   0.00000  Uiso   1.00
C2789  C     0.27093   0.64931   0.97361   0.00000  Uiso   1.00
H2790  H     0.27380   0.62940   0.96920   0.00000  Uiso   1.00
C2791  C     0.29901   0.65085   0.97643   0.00000  Uiso   1.00
H2792  H     0.32190   0.63230   0.97350   0.00000  Uiso   1.00
C2793  C     0.29336   0.68006   0.98372   0.00000  Uiso   1.00
H2794  H     0.31290   0.68070   0.98570   0.00000  Uiso   1.00
C2795  C     0.20609   0.67751   0.97611   0.00000  Uiso   1.00
C2796  C     0.14671   0.70265   0.98249   0.00000  Uiso   1.00
C2797  C     0.18024   0.65130   0.96846   0.00000  Uiso   1.00
C2798  C     0.11142   0.73056   0.99182   0.00000  Uiso   1.00
C2799  C     0.10752   0.75958   0.99848   0.00000  Uiso   1.00
H2800  H     0.12790   0.76230   0.99670   0.00000  Uiso   1.00
C2801  C     0.07351   0.78417   0.00763   0.00000  Uiso   1.00
H2802  H     0.07000   0.80420   0.01220   0.00000  Uiso   1.00
C2803  C     0.04395   0.77927   0.01009   0.00000  Uiso   1.00
H2804  H     0.02060   0.79640   0.01640   0.00000  Uiso   1.00
C2805  C     0.08036   0.72792   0.99512   0.00000  Uiso   1.00
H2806  H     0.08300   0.70820   0.99080   0.00000  Uiso   1.00
C2807  C     0.05284   0.70374   0.94588   0.00000  Uiso   1.00
C2808  C     0.03848   0.79618   0.92700   0.00000  Uiso   1.00
H2809  H     0.05800   0.77400   0.92780   0.00000  Uiso   1.00
C2810  C     0.04423   0.82631   0.89873   0.00000  Uiso   1.00
H2811  H     0.06720   0.82500   0.88040   0.00000  Uiso   1.00
C2812  C     0.01574   0.85948   0.89688   0.00000  Uiso   1.00
H2813  H     0.01900   0.88100   0.87760   0.00000  Uiso   1.00
C2814  C     0.98240   0.85970   0.92434   0.00000  Uiso   1.00
C2815  C     0.97880   0.82788   0.95238   0.00000  Uiso   1.00
H2816  H     0.95610   0.82850   0.97110   0.00000  Uiso   1.00
C2817  C     0.95083   0.89349   0.92319   0.00000  Uiso   1.00
N2818  N     0.30469   0.74443   0.98103   0.00000  Uiso   1.00
N2819  N     0.20960   0.55716   0.97210   0.00000  Uiso   1.00
N2820  N     0.26206   0.70700   0.98804   0.00000  Uiso   1.00
N2821  N     0.21004   0.65022   0.96902   0.00000  Uiso   1.00
N2822  N     0.14774   0.67730   0.97458   0.00000  Uiso   1.00
N2823  N     0.17498   0.70462   0.98316   0.00000  Uiso   1.00
N2824  N     0.04732   0.75152   0.00392   0.00000  Uiso   1.00
N2825  N     0.03550   0.71814   0.96698   0.00000  Uiso   1.00
N2826  N     0.00623   0.79595   0.95427   0.00000  Uiso   1.00
N2827  N     0.95357   0.92129   0.89281   0.00000  Uiso   1.00
S2828  S     0.37861   0.70506   0.96534   0.00000  Uiso   1.00
S2829  S     0.07723   0.68323   0.91623   0.00000  Uiso   1.00
C2845  C     0.95968   0.79344   0.18630   0.00000  Uiso   1.00
H2846  H     0.95830   0.81430   0.18770   0.00000  Uiso   1.00
C2847  C     0.94890   0.79806   0.16044   0.00000  Uiso   1.00
H2848  H     0.94020   0.82160   0.14460   0.00000  Uiso   1.00
C2849  C     0.95070   0.76774   0.15752   0.00000  Uiso   1.00
H2850  H     0.94390   0.77010   0.13950   0.00000  Uiso   1.00
C2851  C     0.96278   0.73410   0.18226   0.00000  Uiso   1.00
C2852  C     0.97287   0.73221   0.20773   0.00000  Uiso   1.00
H2853  H     0.98080   0.70920   0.22460   0.00000  Uiso   1.00
C2854  C     0.97358   0.46166   0.33598   0.00000  Uiso   1.00
C2855  C     0.98460   0.57476   0.23466   0.00000  Uiso   1.00
H2856  H     0.98720   0.57520   0.21240   0.00000  Uiso   1.00
C2857  C     0.97735   0.60685   0.23785   0.00000  Uiso   1.00
C2858  C     0.97361   0.60615   0.27093   0.00000  Uiso   1.00
H2859  H     0.96920   0.62760   0.27380   0.00000  Uiso   1.00
C2860  C     0.97643   0.57371   0.29901   0.00000  Uiso   1.00
H2861  H     0.97350   0.57230   0.32190   0.00000  Uiso   1.00
C2862  C     0.98372   0.54286   0.29336   0.00000  Uiso   1.00
H2863  H     0.98570   0.52070   0.31290   0.00000  Uiso   1.00
C2864  C     0.97611   0.64029   0.20609   0.00000  Uiso   1.00
C2865  C     0.98249   0.66815   0.14671   0.00000  Uiso   1.00
C2866  C     0.96846   0.70000   0.18024   0.00000  Uiso   1.00
C2867  C     0.99182   0.66620   0.11142   0.00000  Uiso   1.00
C2868  C     0.99848   0.63442   0.10752   0.00000  Uiso   1.00
H2869  H     0.99670   0.61310   0.12790   0.00000  Uiso   1.00
C2870  C     0.00763   0.63469   0.07351   0.00000  Uiso   1.00
H2871  H     0.01220   0.61360   0.07000   0.00000  Uiso   1.00
C2872  C     0.01009   0.66669   0.04395   0.00000  Uiso   1.00
H2873  H     0.01640   0.66660   0.02060   0.00000  Uiso   1.00
C2874  C     0.99512   0.69660   0.08036   0.00000  Uiso   1.00
H2875  H     0.99080   0.71800   0.08300   0.00000  Uiso   1.00
C2876  C     0.94588   0.79754   0.05284   0.00000  Uiso   1.00
C2877  C     0.92700   0.73834   0.03848   0.00000  Uiso   1.00
H2878  H     0.92780   0.74020   0.05800   0.00000  Uiso   1.00
C2879  C     0.89873   0.73073   0.04423   0.00000  Uiso   1.00
H2880  H     0.88040   0.72740   0.06720   0.00000  Uiso   1.00
C2881  C     0.89688   0.72790   0.01574   0.00000  Uiso   1.00
H2882  H     0.87760   0.72240   0.01900   0.00000  Uiso   1.00
C2883  C     0.92434   0.73356   0.98240   0.00000  Uiso   1.00
C2884  C     0.95238   0.74094   0.97880   0.00000  Uiso   1.00
H2885  H     0.97110   0.74430   0.95610   0.00000  Uiso   1.00
C2886  C     0.92319   0.73249   0.95083   0.00000  Uiso   1.00
N2887  N     0.98103   0.46985   0.30469   0.00000  Uiso   1.00
N2888  N     0.97210   0.76114   0.20960   0.00000  Uiso   1.00
N2889  N     0.98804   0.54290   0.26206   0.00000  Uiso   1.00
N2890  N     0.96902   0.67072   0.21004   0.00000  Uiso   1.00
N2891  N     0.97458   0.70038   0.14774   0.00000  Uiso   1.00
N2892  N     0.98316   0.63724   0.17498   0.00000  Uiso   1.00
N2893  N     0.00392   0.69724   0.04732   0.00000  Uiso   1.00
N2894  N     0.96698   0.77938   0.03550   0.00000  Uiso   1.00
N2895  N     0.95427   0.74355   0.00623   0.00000  Uiso   1.00
N2896  N     0.89281   0.73233   0.95357   0.00000  Uiso   1.00
S2897  S     0.96534   0.45100   0.37861   0.00000  Uiso   1.00
S2898  S     0.91623   0.82331   0.07723   0.00000  Uiso   1.00
C2914  C     0.56058   0.18630   0.79344   0.00000  Uiso   1.00
H2915  H     0.53970   0.18770   0.81430   0.00000  Uiso   1.00
C2916  C     0.59260   0.16044   0.79806   0.00000  Uiso   1.00
H2917  H     0.59360   0.14460   0.82160   0.00000  Uiso   1.00
C2918  C     0.62404   0.15752   0.76774   0.00000  Uiso   1.00
H2919  H     0.64650   0.13950   0.77010   0.00000  Uiso   1.00
C2920  C     0.62086   0.18226   0.73410   0.00000  Uiso   1.00
C2921  C     0.58719   0.20773   0.73221   0.00000  Uiso   1.00
H2922  H     0.58540   0.22460   0.70920   0.00000  Uiso   1.00
C2923  C     0.72878   0.33598   0.46166   0.00000  Uiso   1.00
C2924  C     0.70598   0.23466   0.57476   0.00000  Uiso   1.00
H2925  H     0.72520   0.21240   0.57520   0.00000  Uiso   1.00
C2926  C     0.67795   0.23785   0.60685   0.00000  Uiso   1.00
C2927  C     0.64931   0.27093   0.60615   0.00000  Uiso   1.00
H2928  H     0.62940   0.27380   0.62760   0.00000  Uiso   1.00
C2929  C     0.65085   0.29901   0.57371   0.00000  Uiso   1.00
H2930  H     0.63230   0.32190   0.57230   0.00000  Uiso   1.00
C2931  C     0.68006   0.29336   0.54286   0.00000  Uiso   1.00
H2932  H     0.68070   0.31290   0.52070   0.00000  Uiso   1.00
C2933  C     0.67751   0.20609   0.64029   0.00000  Uiso   1.00
C2934  C     0.70265   0.14671   0.66815   0.00000  Uiso   1.00
C2935  C     0.65130   0.18024   0.70000   0.00000  Uiso   1.00
C2936  C     0.73056   0.11142   0.66620   0.00000  Uiso   1.00
C2937  C     0.75958   0.10752   0.63442   0.00000  Uiso   1.00
H2938  H     0.76230   0.12790   0.61310   0.00000  Uiso   1.00
C2939  C     0.78417   0.07351   0.63469   0.00000  Uiso   1.00
H2940  H     0.80420   0.07000   0.61360   0.00000  Uiso   1.00
C2941  C     0.77927   0.04395   0.66669   0.00000  Uiso   1.00
H2942  H     0.79640   0.02060   0.66660   0.00000  Uiso   1.00
C2943  C     0.72792   0.08036   0.69660   0.00000  Uiso   1.00
H2944  H     0.70820   0.08300   0.71800   0.00000  Uiso   1.00
C2945  C     0.70374   0.05284   0.79754   0.00000  Uiso   1.00
C2946  C     0.79618   0.03848   0.73834   0.00000  Uiso   1.00
H2947  H     0.77400   0.05800   0.74020   0.00000  Uiso   1.00
C2948  C     0.82631   0.04423   0.73073   0.00000  Uiso   1.00
H2949  H     0.82500   0.06720   0.72740   0.00000  Uiso   1.00
C2950  C     0.85948   0.01574   0.72790   0.00000  Uiso   1.00
H2951  H     0.88100   0.01900   0.72240   0.00000  Uiso   1.00
C2952  C     0.85970   0.98240   0.73356   0.00000  Uiso   1.00
C2953  C     0.82788   0.97880   0.74094   0.00000  Uiso   1.00
H2954  H     0.82850   0.95610   0.74430   0.00000  Uiso   1.00
C2955  C     0.89349   0.95083   0.73249   0.00000  Uiso   1.00
N2956  N     0.74443   0.30469   0.46985   0.00000  Uiso   1.00
N2957  N     0.55716   0.20960   0.76114   0.00000  Uiso   1.00
N2958  N     0.70700   0.26206   0.54290   0.00000  Uiso   1.00
N2959  N     0.65022   0.21004   0.67072   0.00000  Uiso   1.00
N2960  N     0.67730   0.14774   0.70038   0.00000  Uiso   1.00
N2961  N     0.70462   0.17498   0.63724   0.00000  Uiso   1.00
N2962  N     0.75152   0.04732   0.69724   0.00000  Uiso   1.00
N2963  N     0.71814   0.03550   0.77938   0.00000  Uiso   1.00
N2964  N     0.79595   0.00623   0.74355   0.00000  Uiso   1.00
N2965  N     0.92129   0.95357   0.73233   0.00000  Uiso   1.00
S2966  S     0.70506   0.37861   0.45100   0.00000  Uiso   1.00
S2967  S     0.68323   0.07723   0.82331   0.00000  Uiso   1.00
C2983  C     0.79344   0.95968   0.56058   0.00000  Uiso   1.00
H2984  H     0.81430   0.95830   0.53970   0.00000  Uiso   1.00
C2985  C     0.79806   0.94890   0.59260   0.00000  Uiso   1.00
H2986  H     0.82160   0.94020   0.59360   0.00000  Uiso   1.00
C2987  C     0.76774   0.95070   0.62404   0.00000  Uiso   1.00
H2988  H     0.77010   0.94390   0.64650   0.00000  Uiso   1.00
C2989  C     0.73410   0.96278   0.62086   0.00000  Uiso   1.00
C2990  C     0.73221   0.97287   0.58719   0.00000  Uiso   1.00
H2991  H     0.70920   0.98080   0.58540   0.00000  Uiso   1.00
C2992  C     0.46166   0.97358   0.72878   0.00000  Uiso   1.00
C2993  C     0.57476   0.98460   0.70598   0.00000  Uiso   1.00
H2994  H     0.57520   0.98720   0.72520   0.00000  Uiso   1.00
C2995  C     0.60685   0.97735   0.67795   0.00000  Uiso   1.00
C2996  C     0.60615   0.97361   0.64931   0.00000  Uiso   1.00
H2997  H     0.62760   0.96920   0.62940   0.00000  Uiso   1.00
C2998  C     0.57371   0.97643   0.65085   0.00000  Uiso   1.00
H2999  H     0.57230   0.97350   0.63230   0.00000  Uiso   1.00
C3000  C     0.54286   0.98372   0.68006   0.00000  Uiso   1.00
H3001  H     0.52070   0.98570   0.68070   0.00000  Uiso   1.00
C3002  C     0.64029   0.97611   0.67751   0.00000  Uiso   1.00
C3003  C     0.66815   0.98249   0.70265   0.00000  Uiso   1.00
C3004  C     0.70000   0.96846   0.65130   0.00000  Uiso   1.00
C3005  C     0.66620   0.99182   0.73056   0.00000  Uiso   1.00
C3006  C     0.63442   0.99848   0.75958   0.00000  Uiso   1.00
H3007  H     0.61310   0.99670   0.76230   0.00000  Uiso   1.00
C3008  C     0.63469   0.00763   0.78417   0.00000  Uiso   1.00
H3009  H     0.61360   0.01220   0.80420   0.00000  Uiso   1.00
C3010  C     0.66669   0.01009   0.77927   0.00000  Uiso   1.00
H3011  H     0.66660   0.01640   0.79640   0.00000  Uiso   1.00
C3012  C     0.69660   0.99512   0.72792   0.00000  Uiso   1.00
H3013  H     0.71800   0.99080   0.70820   0.00000  Uiso   1.00
C3014  C     0.79754   0.94588   0.70374   0.00000  Uiso   1.00
C3015  C     0.73834   0.92700   0.79618   0.00000  Uiso   1.00
H3016  H     0.74020   0.92780   0.77400   0.00000  Uiso   1.00
C3017  C     0.73073   0.89873   0.82631   0.00000  Uiso   1.00
H3018  H     0.72740   0.88040   0.82500   0.00000  Uiso   1.00
C3019  C     0.72790   0.89688   0.85948   0.00000  Uiso   1.00
H3020  H     0.72240   0.87760   0.88100   0.00000  Uiso   1.00
C3021  C     0.73356   0.92434   0.85970   0.00000  Uiso   1.00
C3022  C     0.74094   0.95238   0.82788   0.00000  Uiso   1.00
H3023  H     0.74430   0.97110   0.82850   0.00000  Uiso   1.00
C3024  C     0.73249   0.92319   0.89349   0.00000  Uiso   1.00
N3025  N     0.46985   0.98103   0.74443   0.00000  Uiso   1.00
N3026  N     0.76114   0.97210   0.55716   0.00000  Uiso   1.00
N3027  N     0.54290   0.98804   0.70700   0.00000  Uiso   1.00
N3028  N     0.67072   0.96902   0.65022   0.00000  Uiso   1.00
N3029  N     0.70038   0.97458   0.67730   0.00000  Uiso   1.00
N3030  N     0.63724   0.98316   0.70462   0.00000  Uiso   1.00
N3031  N     0.69724   0.00392   0.75152   0.00000  Uiso   1.00
N3032  N     0.77938   0.96698   0.71814   0.00000  Uiso   1.00
N3033  N     0.74355   0.95427   0.79595   0.00000  Uiso   1.00
N3034  N     0.73233   0.89281   0.92129   0.00000  Uiso   1.00
S3035  S     0.45100   0.96534   0.70506   0.00000  Uiso   1.00
S3036  S     0.82331   0.91623   0.68323   0.00000  Uiso   1.00
C3052  C     0.79344   0.18630   0.95968   0.00000  Uiso   1.00
H3053  H     0.81430   0.18770   0.95830   0.00000  Uiso   1.00
C3054  C     0.79806   0.16044   0.94890   0.00000  Uiso   1.00
H3055  H     0.82160   0.14460   0.94020   0.00000  Uiso   1.00
C3056  C     0.76774   0.15752   0.95070   0.00000  Uiso   1.00
H3057  H     0.77010   0.13950   0.94390   0.00000  Uiso   1.00
C3058  C     0.73410   0.18226   0.96278   0.00000  Uiso   1.00
C3059  C     0.73221   0.20773   0.97287   0.00000  Uiso   1.00
H3060  H     0.70920   0.22460   0.98080   0.00000  Uiso   1.00
C3061  C     0.46166   0.33598   0.97358   0.00000  Uiso   1.00
C3062  C     0.57476   0.23466   0.98460   0.00000  Uiso   1.00
H3063  H     0.57520   0.21240   0.98720   0.00000  Uiso   1.00
C3064  C     0.60685   0.23785   0.97735   0.00000  Uiso   1.00
C3065  C     0.60615   0.27093   0.97361   0.00000  Uiso   1.00
H3066  H     0.62760   0.27380   0.96920   0.00000  Uiso   1.00
C3067  C     0.57371   0.29901   0.97643   0.00000  Uiso   1.00
H3068  H     0.57230   0.32190   0.97350   0.00000  Uiso   1.00
C3069  C     0.54286   0.29336   0.98372   0.00000  Uiso   1.00
H3070  H     0.52070   0.31290   0.98570   0.00000  Uiso   1.00
C3071  C     0.64029   0.20609   0.97611   0.00000  Uiso   1.00
C3072  C     0.66815   0.14671   0.98249   0.00000  Uiso   1.00
C3073  C     0.70000   0.18024   0.96846   0.00000  Uiso   1.00
C3074  C     0.66620   0.11142   0.99182   0.00000  Uiso   1.00
C3075  C     0.63442   0.10752   0.99848   0.00000  Uiso   1.00
H3076  H     0.61310   0.12790   0.99670   0.00000  Uiso   1.00
C3077  C     0.63469   0.07351   0.00763   0.00000  Uiso   1.00
H3078  H     0.61360   0.07000   0.01220   0.00000  Uiso   1.00
C3079  C     0.66669   0.04395   0.01009   0.00000  Uiso   1.00
H3080  H     0.66660   0.02060   0.01640   0.00000  Uiso   1.00
C3081  C     0.69660   0.08036   0.99512   0.00000  Uiso   1.00
H3082  H     0.71800   0.08300   0.99080   0.00000  Uiso   1.00
C3083  C     0.79754   0.05284   0.94588   0.00000  Uiso   1.00
C3084  C     0.73834   0.03848   0.92700   0.00000  Uiso   1.00
H3085  H     0.74020   0.05800   0.92780   0.00000  Uiso   1.00
C3086  C     0.73073   0.04423   0.89873   0.00000  Uiso   1.00
H3087  H     0.72740   0.06720   0.88040   0.00000  Uiso   1.00
C3088  C     0.72790   0.01574   0.89688   0.00000  Uiso   1.00
H3089  H     0.72240   0.01900   0.87760   0.00000  Uiso   1.00
C3090  C     0.73356   0.98240   0.92434   0.00000  Uiso   1.00
C3091  C     0.74094   0.97880   0.95238   0.00000  Uiso   1.00
H3092  H     0.74430   0.95610   0.97110   0.00000  Uiso   1.00
C3093  C     0.73249   0.95083   0.92319   0.00000  Uiso   1.00
N3094  N     0.46985   0.30469   0.98103   0.00000  Uiso   1.00
N3095  N     0.76114   0.20960   0.97210   0.00000  Uiso   1.00
N3096  N     0.54290   0.26206   0.98804   0.00000  Uiso   1.00
N3097  N     0.67072   0.21004   0.96902   0.00000  Uiso   1.00
N3098  N     0.70038   0.14774   0.97458   0.00000  Uiso   1.00
N3099  N     0.63724   0.17498   0.98316   0.00000  Uiso   1.00
N3100  N     0.69724   0.04732   0.00392   0.00000  Uiso   1.00
N3101  N     0.77938   0.03550   0.96698   0.00000  Uiso   1.00
N3102  N     0.74355   0.00623   0.95427   0.00000  Uiso   1.00
N3103  N     0.73233   0.95357   0.89281   0.00000  Uiso   1.00
S3104  S     0.45100   0.37861   0.96534   0.00000  Uiso   1.00
S3105  S     0.82331   0.07723   0.91623   0.00000  Uiso   1.00
C3121  C     0.56058   0.95968   0.18630   0.00000  Uiso   1.00
H3122  H     0.53970   0.95830   0.18770   0.00000  Uiso   1.00
C3123  C     0.59260   0.94890   0.16044   0.00000  Uiso   1.00
H3124  H     0.59360   0.94020   0.14460   0.00000  Uiso   1.00
C3125  C     0.62404   0.95070   0.15752   0.00000  Uiso   1.00
H3126  H     0.64650   0.94390   0.13950   0.00000  Uiso   1.00
C3127  C     0.62086   0.96278   0.18226   0.00000  Uiso   1.00
C3128  C     0.58719   0.97287   0.20773   0.00000  Uiso   1.00
H3129  H     0.58540   0.98080   0.22460   0.00000  Uiso   1.00
C3130  C     0.72878   0.97358   0.33598   0.00000  Uiso   1.00
C3131  C     0.70598   0.98460   0.23466   0.00000  Uiso   1.00
H3132  H     0.72520   0.98720   0.21240   0.00000  Uiso   1.00
C3133  C     0.67795   0.97735   0.23785   0.00000  Uiso   1.00
C3134  C     0.64931   0.97361   0.27093   0.00000  Uiso   1.00
H3135  H     0.62940   0.96920   0.27380   0.00000  Uiso   1.00
C3136  C     0.65085   0.97643   0.29901   0.00000  Uiso   1.00
H3137  H     0.63230   0.97350   0.32190   0.00000  Uiso   1.00
C3138  C     0.68006   0.98372   0.29336   0.00000  Uiso   1.00
H3139  H     0.68070   0.98570   0.31290   0.00000  Uiso   1.00
C3140  C     0.67751   0.97611   0.20609   0.00000  Uiso   1.00
C3141  C     0.70265   0.98249   0.14671   0.00000  Uiso   1.00
C3142  C     0.65130   0.96846   0.18024   0.00000  Uiso   1.00
C3143  C     0.73056   0.99182   0.11142   0.00000  Uiso   1.00
C3144  C     0.75958   0.99848   0.10752   0.00000  Uiso   1.00
H3145  H     0.76230   0.99670   0.12790   0.00000  Uiso   1.00
C3146  C     0.78417   0.00763   0.07351   0.00000  Uiso   1.00
H3147  H     0.80420   0.01220   0.07000   0.00000  Uiso   1.00
C3148  C     0.77927   0.01009   0.04395   0.00000  Uiso   1.00
H3149  H     0.79640   0.01640   0.02060   0.00000  Uiso   1.00
C3150  C     0.72792   0.99512   0.08036   0.00000  Uiso   1.00
H3151  H     0.70820   0.99080   0.08300   0.00000  Uiso   1.00
C3152  C     0.70374   0.94588   0.05284   0.00000  Uiso   1.00
C3153  C     0.79618   0.92700   0.03848   0.00000  Uiso   1.00
H3154  H     0.77400   0.92780   0.05800   0.00000  Uiso   1.00
C3155  C     0.82631   0.89873   0.04423   0.00000  Uiso   1.00
H3156  H     0.82500   0.88040   0.06720   0.00000  Uiso   1.00
C3157  C     0.85948   0.89688   0.01574   0.00000  Uiso   1.00
H3158  H     0.88100   0.87760   0.01900   0.00000  Uiso   1.00
C3159  C     0.85970   0.92434   0.98240   0.00000  Uiso   1.00
C3160  C     0.82788   0.95238   0.97880   0.00000  Uiso   1.00
H3161  H     0.82850   0.97110   0.95610   0.00000  Uiso   1.00
C3162  C     0.89349   0.92319   0.95083   0.00000  Uiso   1.00
N3163  N     0.74443   0.98103   0.30469   0.00000  Uiso   1.00
N3164  N     0.55716   0.97210   0.20960   0.00000  Uiso   1.00
N3165  N     0.70700   0.98804   0.26206   0.00000  Uiso   1.00
N3166  N     0.65022   0.96902   0.21004   0.00000  Uiso   1.00
N3167  N     0.67730   0.97458   0.14774   0.00000  Uiso   1.00
N3168  N     0.70462   0.98316   0.17498   0.00000  Uiso   1.00
N3169  N     0.75152   0.00392   0.04732   0.00000  Uiso   1.00
N3170  N     0.71814   0.96698   0.03550   0.00000  Uiso   1.00
N3171  N     0.79595   0.95427   0.00623   0.00000  Uiso   1.00
N3172  N     0.92129   0.89281   0.95357   0.00000  Uiso   1.00
S3173  S     0.70506   0.96534   0.37861   0.00000  Uiso   1.00
S3174  S     0.68323   0.91623   0.07723   0.00000  Uiso   1.00
C3190  C     0.95968   0.56058   0.79344   0.00000  Uiso   1.00
H3191  H     0.95830   0.53970   0.81430   0.00000  Uiso   1.00
C3192  C     0.94890   0.59260   0.79806   0.00000  Uiso   1.00
H3193  H     0.94020   0.59360   0.82160   0.00000  Uiso   1.00
C3194  C     0.95070   0.62404   0.76774   0.00000  Uiso   1.00
H3195  H     0.94390   0.64650   0.77010   0.00000  Uiso   1.00
C3196  C     0.96278   0.62086   0.73410   0.00000  Uiso   1.00
C3197  C     0.97287   0.58719   0.73221   0.00000  Uiso   1.00
H3198  H     0.98080   0.58540   0.70920   0.00000  Uiso   1.00
C3199  C     0.97358   0.72878   0.46166   0.00000  Uiso   1.00
C3200  C     0.98460   0.70598   0.57476   0.00000  Uiso   1.00
H3201  H     0.98720   0.72520   0.57520   0.00000  Uiso   1.00
C3202  C     0.97735   0.67795   0.60685   0.00000  Uiso   1.00
C3203  C     0.97361   0.64931   0.60615   0.00000  Uiso   1.00
H3204  H     0.96920   0.62940   0.62760   0.00000  Uiso   1.00
C3205  C     0.97643   0.65085   0.57371   0.00000  Uiso   1.00
H3206  H     0.97350   0.63230   0.57230   0.00000  Uiso   1.00
C3207  C     0.98372   0.68006   0.54286   0.00000  Uiso   1.00
H3208  H     0.98570   0.68070   0.52070   0.00000  Uiso   1.00
C3209  C     0.97611   0.67751   0.64029   0.00000  Uiso   1.00
C3210  C     0.98249   0.70265   0.66815   0.00000  Uiso   1.00
C3211  C     0.96846   0.65130   0.70000   0.00000  Uiso   1.00
C3212  C     0.99182   0.73056   0.66620   0.00000  Uiso   1.00
C3213  C     0.99848   0.75958   0.63442   0.00000  Uiso   1.00
H3214  H     0.99670   0.76230   0.61310   0.00000  Uiso   1.00
C3215  C     0.00763   0.78417   0.63469   0.00000  Uiso   1.00
H3216  H     0.01220   0.80420   0.61360   0.00000  Uiso   1.00
C3217  C     0.01009   0.77927   0.66669   0.00000  Uiso   1.00
H3218  H     0.01640   0.79640   0.66660   0.00000  Uiso   1.00
C3219  C     0.99512   0.72792   0.69660   0.00000  Uiso   1.00
H3220  H     0.99080   0.70820   0.71800   0.00000  Uiso   1.00
C3221  C     0.94588   0.70374   0.79754   0.00000  Uiso   1.00
C3222  C     0.92700   0.79618   0.73834   0.00000  Uiso   1.00
H3223  H     0.92780   0.77400   0.74020   0.00000  Uiso   1.00
C3224  C     0.89873   0.82631   0.73073   0.00000  Uiso   1.00
H3225  H     0.88040   0.82500   0.72740   0.00000  Uiso   1.00
C3226  C     0.89688   0.85948   0.72790   0.00000  Uiso   1.00
H3227  H     0.87760   0.88100   0.72240   0.00000  Uiso   1.00
C3228  C     0.92434   0.85970   0.73356   0.00000  Uiso   1.00
C3229  C     0.95238   0.82788   0.74094   0.00000  Uiso   1.00
H3230  H     0.97110   0.82850   0.74430   0.00000  Uiso   1.00
C3231  C     0.92319   0.89349   0.73249   0.00000  Uiso   1.00
N3232  N     0.98103   0.74443   0.46985   0.00000  Uiso   1.00
N3233  N     0.97210   0.55716   0.76114   0.00000  Uiso   1.00
N3234  N     0.98804   0.70700   0.54290   0.00000  Uiso   1.00
N3235  N     0.96902   0.65022   0.67072   0.00000  Uiso   1.00
N3236  N     0.97458   0.67730   0.70038   0.00000  Uiso   1.00
N3237  N     0.98316   0.70462   0.63724   0.00000  Uiso   1.00
N3238  N     0.00392   0.75152   0.69724   0.00000  Uiso   1.00
N3239  N     0.96698   0.71814   0.77938   0.00000  Uiso   1.00
N3240  N     0.95427   0.79595   0.74355   0.00000  Uiso   1.00
N3241  N     0.89281   0.92129   0.73233   0.00000  Uiso   1.00
S3242  S     0.96534   0.70506   0.45100   0.00000  Uiso   1.00
S3243  S     0.91623   0.68323   0.82331   0.00000  Uiso   1.00
C3259  C     0.18630   0.79344   0.56058   0.00000  Uiso   1.00
H3260  H     0.18770   0.81430   0.53970   0.00000  Uiso   1.00
C3261  C     0.16044   0.79806   0.59260   0.00000  Uiso   1.00
H3262  H     0.14460   0.82160   0.59360   0.00000  Uiso   1.00
C3263  C     0.15752   0.76774   0.62404   0.00000  Uiso   1.00
H3264  H     0.13950   0.77010   0.64650   0.00000  Uiso   1.00
C3265  C     0.18226   0.73410   0.62086   0.00000  Uiso   1.00
C3266  C     0.20773   0.73221   0.58719   0.00000  Uiso   1.00
H3267  H     0.22460   0.70920   0.58540   0.00000  Uiso   1.00
C3268  C     0.33598   0.46166   0.72878   0.00000  Uiso   1.00
C3269  C     0.23466   0.57476   0.70598   0.00000  Uiso   1.00
H3270  H     0.21240   0.57520   0.72520   0.00000  Uiso   1.00
C3271  C     0.23785   0.60685   0.67795   0.00000  Uiso   1.00
C3272  C     0.27093   0.60615   0.64931   0.00000  Uiso   1.00
H3273  H     0.27380   0.62760   0.62940   0.00000  Uiso   1.00
C3274  C     0.29901   0.57371   0.65085   0.00000  Uiso   1.00
H3275  H     0.32190   0.57230   0.63230   0.00000  Uiso   1.00
C3276  C     0.29336   0.54286   0.68006   0.00000  Uiso   1.00
H3277  H     0.31290   0.52070   0.68070   0.00000  Uiso   1.00
C3278  C     0.20609   0.64029   0.67751   0.00000  Uiso   1.00
C3279  C     0.14671   0.66815   0.70265   0.00000  Uiso   1.00
C3280  C     0.18024   0.70000   0.65130   0.00000  Uiso   1.00
C3281  C     0.11142   0.66620   0.73056   0.00000  Uiso   1.00
C3282  C     0.10752   0.63442   0.75958   0.00000  Uiso   1.00
H3283  H     0.12790   0.61310   0.76230   0.00000  Uiso   1.00
C3284  C     0.07351   0.63469   0.78417   0.00000  Uiso   1.00
H3285  H     0.07000   0.61360   0.80420   0.00000  Uiso   1.00
C3286  C     0.04395   0.66669   0.77927   0.00000  Uiso   1.00
H3287  H     0.02060   0.66660   0.79640   0.00000  Uiso   1.00
C3288  C     0.08036   0.69660   0.72792   0.00000  Uiso   1.00
H3289  H     0.08300   0.71800   0.70820   0.00000  Uiso   1.00
C3290  C     0.05284   0.79754   0.70374   0.00000  Uiso   1.00
C3291  C     0.03848   0.73834   0.79618   0.00000  Uiso   1.00
H3292  H     0.05800   0.74020   0.77400   0.00000  Uiso   1.00
C3293  C     0.04423   0.73073   0.82631   0.00000  Uiso   1.00
H3294  H     0.06720   0.72740   0.82500   0.00000  Uiso   1.00
C3295  C     0.01574   0.72790   0.85948   0.00000  Uiso   1.00
H3296  H     0.01900   0.72240   0.88100   0.00000  Uiso   1.00
C3297  C     0.98240   0.73356   0.85970   0.00000  Uiso   1.00
C3298  C     0.97880   0.74094   0.82788   0.00000  Uiso   1.00
H3299  H     0.95610   0.74430   0.82850   0.00000  Uiso   1.00
C3300  C     0.95083   0.73249   0.89349   0.00000  Uiso   1.00
N3301  N     0.30469   0.46985   0.74443   0.00000  Uiso   1.00
N3302  N     0.20960   0.76114   0.55716   0.00000  Uiso   1.00
N3303  N     0.26206   0.54290   0.70700   0.00000  Uiso   1.00
N3304  N     0.21004   0.67072   0.65022   0.00000  Uiso   1.00
N3305  N     0.14774   0.70038   0.67730   0.00000  Uiso   1.00
N3306  N     0.17498   0.63724   0.70462   0.00000  Uiso   1.00
N3307  N     0.04732   0.69724   0.75152   0.00000  Uiso   1.00
N3308  N     0.03550   0.77938   0.71814   0.00000  Uiso   1.00
N3309  N     0.00623   0.74355   0.79595   0.00000  Uiso   1.00
N3310  N     0.95357   0.73233   0.92129   0.00000  Uiso   1.00
S3311  S     0.37861   0.45100   0.70506   0.00000  Uiso   1.00
S3312  S     0.07723   0.82331   0.68323   0.00000  Uiso   1.00
Co3313 Co    0.25000   0.99356   0.75000   0.00000  Uiso   1.00
Co3314 Co    0.99356   0.25000   0.50644   0.00000  Uiso   1.00
Co3315 Co    0.75000   0.50644   0.25000   0.00000  Uiso   1.00
Co3316 Co    0.50644   0.75000   0.99356   0.00000  Uiso   1.00
Co3317 Co    0.75000   0.25000   0.99356   0.00000  Uiso   1.00
Co3318 Co    0.50644   0.99356   0.25000   0.00000  Uiso   1.00
Co3319 Co    0.25000   0.75000   0.50644   0.00000  Uiso   1.00
Co3320 Co    0.99356   0.50644   0.75000   0.00000  Uiso   1.00
Co3321 Co    0.99356   0.75000   0.25000   0.00000  Uiso   1.00
Co3322 Co    0.25000   0.50644   0.99356   0.00000  Uiso   1.00
Co3323 Co    0.50644   0.25000   0.75000   0.00000  Uiso   1.00
Co3324 Co    0.75000   0.99356   0.50644   0.00000  Uiso   1.00
Co3325 Co    0.75000   0.00644   0.25000   0.00000  Uiso   1.00
Co3326 Co    0.00644   0.75000   0.49356   0.00000  Uiso   1.00
Co3327 Co    0.25000   0.49356   0.75000   0.00000  Uiso   1.00
Co3328 Co    0.49356   0.25000   0.00644   0.00000  Uiso   1.00
Co3329 Co    0.25000   0.75000   0.00644   0.00000  Uiso   1.00
Co3330 Co    0.49356   0.00644   0.75000   0.00000  Uiso   1.00
Co3331 Co    0.75000   0.25000   0.49356   0.00000  Uiso   1.00
Co3332 Co    0.00644   0.49356   0.25000   0.00000  Uiso   1.00
Co3333 Co    0.00644   0.25000   0.75000   0.00000  Uiso   1.00
Co3334 Co    0.75000   0.49356   0.00644   0.00000  Uiso   1.00
Co3335 Co    0.49356   0.75000   0.25000   0.00000  Uiso   1.00
Co3336 Co    0.25000   0.00644   0.49356   0.00000  Uiso   1.00
Co3337 Co    0.24788   0.24788   0.50212   0.00000  Uiso   1.00
Co3338 Co    0.50212   0.50212   0.24788   0.00000  Uiso   1.00
Co3339 Co    0.50212   0.24788   0.24788   0.00000  Uiso   1.00
Co3340 Co    0.24788   0.50212   0.50212   0.00000  Uiso   1.00
Co3341 Co    0.24788   0.50212   0.24788   0.00000  Uiso   1.00
Co3342 Co    0.50212   0.24788   0.50212   0.00000  Uiso   1.00
Co3343 Co    0.25212   0.25212   0.99788   0.00000  Uiso   1.00
Co3344 Co    0.99788   0.99788   0.25212   0.00000  Uiso   1.00
Co3345 Co    0.99788   0.25212   0.99788   0.00000  Uiso   1.00
Co3346 Co    0.25212   0.99788   0.25212   0.00000  Uiso   1.00
Co3347 Co    0.25212   0.99788   0.99788   0.00000  Uiso   1.00
Co3348 Co    0.99788   0.25212   0.25212   0.00000  Uiso   1.00
Co3349 Co    0.75212   0.75212   0.49788   0.00000  Uiso   1.00
Co3350 Co    0.49788   0.49788   0.75212   0.00000  Uiso   1.00
Co3351 Co    0.49788   0.75212   0.75212   0.00000  Uiso   1.00
Co3352 Co    0.75212   0.49788   0.49788   0.00000  Uiso   1.00
Co3353 Co    0.75212   0.49788   0.75212   0.00000  Uiso   1.00
Co3354 Co    0.49788   0.75212   0.49788   0.00000  Uiso   1.00
Co3355 Co    0.74788   0.74788   0.00212   0.00000  Uiso   1.00
Co3356 Co    0.00212   0.00212   0.74788   0.00000  Uiso   1.00
Co3357 Co    0.00212   0.74788   0.00212   0.00000  Uiso   1.00
Co3358 Co    0.74788   0.00212   0.74788   0.00000  Uiso   1.00
Co3359 Co    0.74788   0.00212   0.00212   0.00000  Uiso   1.00
Co3360 Co    0.00212   0.74788   0.74788   0.00000  Uiso   1.00
loop_
_geom_bond_atom_site_label_1
_geom_bond_atom_site_label_2
_geom_bond_distance
_geom_bond_site_symmetry_2
_ccdc_geom_bond_type
C16    H17     0.948   .     S
C16    C18     1.371   .     S
C16    N59     1.341   .     D
C18    H19     0.951   .     S
C18    C20     1.404   .     D
C20    H21     0.951   .     S
C20    C22     1.396   .     S
C22    C23     1.392   .     D
C22    C37     1.477   .     S
C23    H24     0.950   .     S
C23    N59     1.337   .     S
C25    N58     1.176   .     D
C25    S68     1.621   .     D
C26    H27     0.946   .     S
C26    C28     1.388   .     D
C26    N60     1.351   .     S
C28    C29     1.407   .     S
C28    C35     1.478   .     S
C29    H30     0.953   .     S
C29    C31     1.378   .     D
C31    H32     0.950   .     S
C31    C33     1.393   .     S
C33    H34     0.949   .     S
C33    N60     1.330   .     D
C35    N61     1.335   .     S
C35    N63     1.345   .     D
C36    C38     1.473   .     S
C36    N62     1.338   .     D
C36    N63     1.344   .     S
C37    N61     1.339   .     D
C37    N62     1.348   .     S
C38    C39     1.401   .     S
C38    C45     1.399   .     D
C39    H40     0.951   .     S
C39    C41     1.376   .     D
C41    H42     0.950   .     S
C41    C43     1.407   .     S
C43    H44     0.950   .     S
C43    N64     1.341   .     D
C45    H46     0.946   .     S
C45    N64     1.331   .     S
C47    N65     1.148   .     D
C47    S69     1.621   .     D
C48    H49     0.949   .     S
C48    C50     1.358   .     D
C48    N66     1.363   .     S
C50    H51     0.948   .     S
C50    C52     1.405   .     S
C52    H53     0.948   .     S
C52    C54     1.396   .     D
C54    C55     1.384   .     S
C54    C57     1.482   .     S
C55    H56     0.949   .     S
C55    N66     1.353   .     D
C57    N67     1.322   .     S
C57    N412    1.358   .     D
N58    Co3313  2.084   .     S
N59    Co3333  2.217   .     S
N60    Co3313  2.212   1_545 S
N64    Co3337  2.178   .     S
N65    Co3337  2.083   .     S
N66    Co3337  2.181   .     S
N67    C816    1.358   .     D
C85    H86     0.948   .     S
C85    C87     1.371   .     S
C85    N128    1.341   .     D
C87    H88     0.951   .     S
C87    C89     1.404   .     D
C89    H90     0.951   .     S
C89    C91     1.396   .     S
C91    C92     1.392   .     D
C91    C106    1.477   .     S
C92    H93     0.950   .     S
C92    N128    1.337   .     S
C94    N127    1.176   .     D
C94    S137    1.621   .     D
C95    H96     0.946   .     S
C95    C97     1.388   .     D
C95    N129    1.351   .     S
C97    C98     1.407   .     S
C97    C104    1.478   .     S
C98    H99     0.953   .     S
C98    C100    1.378   .     D
C100   H101    0.950   .     S
C100   C102    1.393   .     S
C102   H103    0.949   .     S
C102   N129    1.330   .     D
C104   N130    1.335   .     D
C104   N132    1.345   .     S
C105   C107    1.473   .     S
C105   N131    1.338   .     S
C105   N132    1.344   .     D
C106   N130    1.339   .     S
C106   N131    1.348   .     D
C107   C108    1.401   .     S
C107   C114    1.399   .     D
C108   H109    0.951   .     S
C108   C110    1.376   .     D
C110   H111    0.950   .     S
C110   C112    1.407   .     S
C112   H113    0.950   .     S
C112   N133    1.341   .     D
C114   H115    0.946   .     S
C114   N133    1.331   .     S
C116   N134    1.148   .     D
C116   S138    1.621   .     D
C117   H118    0.949   .     S
C117   C119    1.358   .     D
C117   N135    1.363   .     S
C119   H120    0.948   .     S
C119   C121    1.405   .     S
C121   H122    0.948   .     S
C121   C123    1.396   .     D
C123   C124    1.384   .     S
C123   C126    1.482   .     S
C124   H125    0.949   .     S
C124   N135    1.353   .     D
C126   N136    1.322   .     S
C126   N550    1.358   .     D
N127   Co3314  2.084   .     S
N128   Co3336  2.217   .     S
N129   Co3314  2.212   1_455 S
N133   Co3337  2.178   .     S
N134   Co3337  2.083   .     S
N135   Co3337  2.181   .     S
N136   C609    1.358   .     D
C154   H155    0.948   .     S
C154   C156    1.371   .     D
C154   N197    1.341   .     S
C156   H157    0.951   .     S
C156   C158    1.404   .     S
C158   H159    0.951   .     S
C158   C160    1.396   .     D
C160   C161    1.392   .     S
C160   C175    1.477   .     S
C161   H162    0.950   .     S
C161   N197    1.337   .     D
C163   N196    1.176   .     D
C163   S206    1.621   .     D
C164   H165    0.946   .     S
C164   C166    1.388   .     D
C164   N198    1.351   .     S
C166   C167    1.407   .     S
C166   C173    1.478   .     S
C167   H168    0.953   .     S
C167   C169    1.378   .     D
C169   H170    0.950   .     S
C169   C171    1.393   .     S
C171   H172    0.949   .     S
C171   N198    1.330   .     D
C173   N199    1.335   .     D
C173   N201    1.345   .     S
C174   C176    1.473   .     S
C174   N200    1.338   .     S
C174   N201    1.344   .     D
C175   N199    1.339   .     S
C175   N200    1.348   .     D
C176   C177    1.401   .     S
C176   C183    1.399   .     D
C177   H178    0.951   .     S
C177   C179    1.376   .     D
C179   H180    0.950   .     S
C179   C181    1.407   .     S
C181   H182    0.950   .     S
C181   N202    1.341   .     D
C183   H184    0.946   .     S
C183   N202    1.331   .     S
C185   N203    1.148   .     D
C185   S207    1.621   .     D
C186   H187    0.949   .     S
C186   C188    1.358   .     D
C186   N204    1.363   .     S
C188   H189    0.948   .     S
C188   C190    1.405   .     S
C190   H191    0.948   .     S
C190   C192    1.396   .     D
C192   C193    1.384   .     S
C192   C195    1.482   .     S
C193   H194    0.949   .     S
C193   N204    1.353   .     D
C195   N205    1.322   .     S
C195   N481    1.358   .     D
N196   Co3315  2.084   .     S
N197   Co3334  2.217   .     S
N198   Co3315  2.212   .     S
N202   Co3338  2.178   .     S
N203   Co3338  2.083   .     S
N204   Co3338  2.181   .     S
N205   C747    1.358   .     D
C223   H224    0.948   .     S
C223   C225    1.371   .     S
C223   N266    1.341   .     D
C225   H226    0.951   .     S
C225   C227    1.404   .     D
C227   H228    0.951   .     S
C227   C229    1.396   .     S
C229   C230    1.392   .     D
C229   C244    1.477   .     S
C230   H231    0.950   .     S
C230   N266    1.337   .     S
C232   N265    1.176   .     D
C232   S275    1.622   .     D
C233   H234    0.946   .     S
C233   C235    1.388   .     D
C233   N267    1.351   .     S
C235   C236    1.407   .     S
C235   C242    1.478   .     S
C236   H237    0.953   .     S
C236   C238    1.378   .     D
C238   H239    0.950   .     S
C238   C240    1.393   .     S
C240   H241    0.949   .     S
C240   N267    1.330   .     D
C242   N268    1.335   .     D
C242   N270    1.345   .     S
C243   C245    1.473   .     S
C243   N269    1.338   .     S
C243   N270    1.344   .     D
C244   N268    1.339   .     S
C244   N269    1.348   .     D
C245   C246    1.401   .     S
C245   C252    1.399   .     D
C246   H247    0.951   .     S
C246   C248    1.376   .     D
C248   H249    0.950   .     S
C248   C250    1.407   .     S
C250   H251    0.950   .     S
C250   N271    1.341   .     D
C252   H253    0.946   .     S
C252   N271    1.331   .     S
C254   N272    1.148   .     D
C254   S276    1.621   .     D
C255   H256    0.949   .     S
C255   C257    1.358   .     D
C255   N273    1.363   .     S
C257   H258    0.948   .     S
C257   C259    1.405   .     S
C259   H260    0.948   .     S
C259   C261    1.396   .     D
C261   C262    1.384   .     S
C261   C264    1.482   .     S
C262   H263    0.949   .     S
C262   N273    1.353   .     D
C264   N274    1.322   .     S
C264   N343    1.358   .     D
N265   Co3316  2.084   .     S
N266   Co3335  2.217   .     S
N267   Co3316  2.212   1_554 D
N271   Co3338  2.178   .     S
N272   Co3338  2.083   .     S
N273   Co3338  2.181   .     S
N274   C678    1.358   .     D
C292   H293    0.948   .     S
C292   C294    1.371   .     S
C292   N335    1.341   .     D
C294   H295    0.951   .     S
C294   C296    1.404   .     D
C296   H297    0.951   .     S
C296   C298    1.396   .     S
C298   C299    1.392   .     D
C298   C313    1.477   .     S
C299   H300    0.950   .     S
C299   N335    1.337   .     S
C301   N334    1.176   .     D
C301   S344    1.621   .     D
C302   H303    0.946   .     S
C302   C304    1.388   .     D
C302   N336    1.351   .     S
C304   C305    1.407   .     S
C304   C311    1.478   .     S
C305   H306    0.953   .     S
C305   C307    1.378   .     D
C307   H308    0.950   .     S
C307   C309    1.393   .     S
C309   H310    0.949   .     S
C309   N336    1.330   .     D
C311   N337    1.335   .     S
C311   N339    1.345   .     D
C312   C314    1.473   .     S
C312   N338    1.338   .     D
C312   N339    1.344   .     S
C313   N337    1.339   .     D
C313   N338    1.348   .     S
C314   C315    1.401   .     S
C314   C321    1.399   .     D
C315   H316    0.951   .     S
C315   C317    1.376   .     D
C317   H318    0.950   .     S
C317   C319    1.407   .     S
C319   H320    0.950   .     S
C319   N340    1.341   .     D
C321   H322    0.946   .     S
C321   N340    1.331   .     S
C323   N341    1.148   .     D
C323   S345    1.621   .     D
C324   H325    0.949   .     S
C324   C326    1.358   .     D
C324   N342    1.363   .     S
C326   H327    0.948   .     S
C326   C328    1.405   .     S
C328   H329    0.948   .     S
C328   C330    1.396   .     D
C330   C331    1.384   .     S
C330   C333    1.482   .     S
C331   H332    0.949   .     S
C331   N342    1.353   .     D
C333   N343    1.322   .     S
C333   N688    1.358   .     D
N334   Co3317  2.084   .     S
N335   Co3325  2.217   .     S
N336   Co3317  2.212   1_554 S
N340   Co3339  2.178   .     S
N341   Co3339  2.083   .     S
N342   Co3339  2.181   .     S
C361   H362    0.948   .     S
C361   C363    1.371   .     D
C361   N404    1.341   .     S
C363   H364    0.951   .     S
C363   C365    1.404   .     S
C365   H366    0.951   .     S
C365   C367    1.396   .     D
C367   C368    1.392   .     S
C367   C382    1.477   .     S
C368   H369    0.950   .     S
C368   N404    1.337   .     D
C370   N403    1.176   .     D
C370   S413    1.621   .     D
C371   H372    0.946   .     S
C371   C373    1.388   .     D
C371   N405    1.351   .     S
C373   C374    1.407   .     S
C373   C380    1.478   .     S
C374   H375    0.953   .     S
C374   C376    1.378   .     D
C376   H377    0.950   .     S
C376   C378    1.393   .     S
C378   H379    0.949   .     S
C378   N405    1.330   .     D
C380   N406    1.335   .     D
C380   N408    1.345   .     S
C381   C383    1.473   .     S
C381   N407    1.338   .     S
C381   N408    1.344   .     D
C382   N406    1.339   .     S
C382   N407    1.348   .     D
C383   C384    1.401   .     S
C383   C390    1.399   .     D
C384   H385    0.951   .     S
C384   C386    1.376   .     D
C386   H387    0.950   .     S
C386   C388    1.407   .     S
C388   H389    0.950   .     S
C388   N409    1.341   .     D
C390   H391    0.946   .     S
C390   N409    1.331   .     S
C392   N410    1.148   .     D
C392   S414    1.621   .     D
C393   H394    0.949   .     S
C393   C395    1.358   .     D
C393   N411    1.363   .     S
C395   H396    0.948   .     S
C395   C397    1.405   .     S
C397   H398    0.948   .     S
C397   C399    1.396   .     D
C399   C400    1.384   .     S
C399   C402    1.482   .     S
C400   H401    0.949   .     S
C400   N411    1.353   .     D
C402   N412    1.322   .     S
C402   N826    1.358   .     D
N403   Co3318  2.084   .     S
N404   Co3328  2.217   .     S
N405   Co3318  2.212   1_545 D
N409   Co3339  2.178   .     S
N410   Co3339  2.083   .     S
N411   Co3339  2.181   .     S
C430   H431    0.948   .     S
C430   C432    1.371   .     D
C430   N473    1.341   .     S
C432   H433    0.951   .     S
C432   C434    1.404   .     S
C434   H435    0.951   .     S
C434   C436    1.396   .     D
C436   C437    1.392   .     S
C436   C451    1.477   .     S
C437   H438    0.950   .     S
C437   N473    1.337   .     D
C439   N472    1.176   .     D
C439   S482    1.621   .     D
C440   H441    0.946   .     S
C440   C442    1.388   .     D
C440   N474    1.351   .     S
C442   C443    1.407   .     S
C442   C449    1.478   .     S
C443   H444    0.953   .     S
C443   C445    1.378   .     D
C445   H446    0.950   .     S
C445   C447    1.393   .     S
C447   H448    0.949   .     S
C447   N474    1.330   .     D
C449   N475    1.335   .     D
C449   N477    1.345   .     S
C450   C452    1.473   .     S
C450   N476    1.338   .     S
C450   N477    1.344   .     D
C451   N475    1.339   .     S
C451   N476    1.348   .     D
C452   C453    1.401   .     S
C452   C459    1.399   .     D
C453   H454    0.951   .     S
C453   C455    1.376   .     D
C455   H456    0.950   .     S
C455   C457    1.407   .     S
C457   H458    0.950   .     S
C457   N478    1.341   .     D
C459   H460    0.946   .     S
C459   N478    1.331   .     S
C461   N479    1.148   .     D
C461   S483    1.621   .     D
C462   H463    0.949   .     S
C462   C464    1.358   .     D
C462   N480    1.363   .     S
C464   H465    0.948   .     S
C464   C466    1.405   .     S
C466   H467    0.948   .     S
C466   C468    1.396   .     D
C468   C469    1.384   .     S
C468   C471    1.482   .     S
C469   H470    0.949   .     S
C469   N480    1.353   .     D
C471   N481    1.322   .     S
C471   N757    1.358   .     D
N472   Co3319  2.084   .     S
N473   Co3326  2.217   .     S
N474   Co3319  2.212   .     S
N478   Co3340  2.178   .     S
N479   Co3340  2.083   .     S
N480   Co3340  2.181   .     S
C499   H500    0.948   .     S
C499   C501    1.371   .     S
C499   N542    1.341   .     D
C501   H502    0.951   .     S
C501   C503    1.404   .     D
C503   H504    0.951   .     S
C503   C505    1.396   .     S
C505   C506    1.392   .     D
C505   C520    1.477   .     S
C506   H507    0.950   .     S
C506   N542    1.337   .     S
C508   N541    1.176   .     D
C508   S551    1.622   .     D
C509   H510    0.946   .     S
C509   C511    1.388   .     D
C509   N543    1.351   .     S
C511   C512    1.407   .     S
C511   C518    1.478   .     S
C512   H513    0.953   .     S
C512   C514    1.378   .     D
C514   H515    0.950   .     S
C514   C516    1.393   .     S
C516   H517    0.949   .     S
C516   N543    1.330   .     D
C518   N544    1.335   .     D
C518   N546    1.345   .     S
C519   C521    1.473   .     S
C519   N545    1.338   .     S
C519   N546    1.344   .     D
C520   N544    1.339   .     S
C520   N545    1.348   .     D
C521   C522    1.401   .     S
C521   C528    1.399   .     D
C522   H523    0.951   .     S
C522   C524    1.376   .     D
C524   H525    0.950   .     S
C524   C526    1.407   .     S
C526   H527    0.950   .     S
C526   N547    1.341   .     D
C528   H529    0.946   .     S
C528   N547    1.331   .     S
C530   N548    1.148   .     D
C530   S552    1.621   .     D
C531   H532    0.949   .     S
C531   C533    1.358   .     D
C531   N549    1.363   .     S
C533   H534    0.948   .     S
C533   C535    1.405   .     S
C535   H536    0.948   .     S
C535   C537    1.396   .     D
C537   C538    1.384   .     S
C537   C540    1.482   .     S
C538   H539    0.949   .     S
C538   N549    1.353   .     D
C540   N550    1.322   .     S
C540   N619    1.358   .     D
N541   Co3320  2.084   .     S
N542   Co3327  2.217   .     S
N543   Co3320  2.212   1_455 S
N547   Co3340  2.178   .     S
N548   Co3340  2.083   .     S
N549   Co3340  2.181   .     S
C568   H569    0.948   .     S
C568   C570    1.371   .     S
C568   N611    1.341   .     D
C570   H571    0.951   .     S
C570   C572    1.404   .     D
C572   H573    0.951   .     S
C572   C574    1.396   .     S
C574   C575    1.392   .     D
C574   C589    1.477   .     S
C575   H576    0.950   .     S
C575   N611    1.337   .     S
C577   N610    1.176   .     D
C577   S620    1.621   .     D
C578   H579    0.946   .     S
C578   C580    1.388   .     D
C578   N612    1.351   .     S
C580   C581    1.407   .     S
C580   C587    1.478   .     S
C581   H582    0.953   .     S
C581   C583    1.378   .     D
C583   H584    0.950   .     S
C583   C585    1.393   .     S
C585   H586    0.949   .     S
C585   N612    1.330   .     D
C587   N613    1.335   .     D
C587   N615    1.345   .     S
C588   C590    1.473   .     S
C588   N614    1.338   .     S
C588   N615    1.344   .     D
C589   N613    1.339   .     S
C589   N614    1.348   .     D
C590   C591    1.401   .     S
C590   C597    1.399   .     D
C591   H592    0.951   .     S
C591   C593    1.376   .     D
C593   H594    0.950   .     S
C593   C595    1.407   .     S
C595   H596    0.950   .     S
C595   N616    1.341   .     D
C597   H598    0.946   .     S
C597   N616    1.331   .     S
C599   N617    1.148   .     D
C599   S621    1.621   .     D
C600   H601    0.949   .     S
C600   C602    1.358   .     D
C600   N618    1.363   .     S
C602   H603    0.948   .     S
C602   C604    1.405   .     S
C604   H605    0.948   .     S
C604   C606    1.396   .     D
C606   C607    1.384   .     S
C606   C609    1.482   .     S
C607   H608    0.949   .     S
C607   N618    1.353   .     D
C609   N619    1.322   .     S
N610   Co3321  2.084   .     S
N611   Co3329  2.217   .     S
N612   Co3321  2.212   1_455 S
N616   Co3341  2.178   .     S
N617   Co3341  2.083   .     S
N618   Co3341  2.181   .     S
C637   H638    0.948   .     S
C637   C639    1.371   .     S
C637   N680    1.341   .     D
C639   H640    0.951   .     S
C639   C641    1.404   .     D
C641   H642    0.951   .     S
C641   C643    1.396   .     S
C643   C644    1.392   .     D
C643   C658    1.477   .     S
C644   H645    0.950   .     S
C644   N680    1.337   .     S
C646   N679    1.176   .     D
C646   S689    1.621   .     D
C647   H648    0.946   .     S
C647   C649    1.388   .     D
C647   N681    1.351   .     S
C649   C650    1.407   .     S
C649   C656    1.478   .     S
C650   H651    0.953   .     S
C650   C652    1.378   .     D
C652   H653    0.950   .     S
C652   C654    1.393   .     S
C654   H655    0.949   .     S
C654   N681    1.330   .     D
C656   N682    1.335   .     S
C656   N684    1.345   .     D
C657   C659    1.473   .     S
C657   N683    1.338   .     D
C657   N684    1.344   .     S
C658   N682    1.339   .     D
C658   N683    1.348   .     S
C659   C660    1.401   .     S
C659   C666    1.399   .     D
C660   H661    0.951   .     S
C660   C662    1.376   .     D
C662   H663    0.950   .     S
C662   C664    1.407   .     S
C664   H665    0.950   .     S
C664   N685    1.341   .     D
C666   H667    0.946   .     S
C666   N685    1.331   .     S
C668   N686    1.148   .     D
C668   S690    1.621   .     D
C669   H670    0.949   .     S
C669   C671    1.358   .     S
C669   N687    1.363   .     D
C671   H672    0.948   .     S
C671   C673    1.405   .     D
C673   H674    0.948   .     S
C673   C675    1.396   .     S
C675   C676    1.384   .     D
C675   C678    1.482   .     S
C676   H677    0.949   .     S
C676   N687    1.353   .     S
C678   N688    1.322   .     S
N679   Co3322  2.084   .     S
N680   Co3332  2.217   .     S
N681   Co3322  2.212   1_554 D
N685   Co3341  2.178   .     S
N686   Co3341  2.083   .     S
N687   Co3341  2.181   .     S
C706   H707    0.948   .     S
C706   C708    1.371   .     D
C706   N749    1.341   .     S
C708   H709    0.951   .     S
C708   C710    1.404   .     S
C710   H711    0.951   .     S
C710   C712    1.396   .     D
C712   C713    1.392   .     S
C712   C727    1.477   .     S
C713   H714    0.950   .     S
C713   N749    1.337   .     D
C715   N748    1.176   .     D
C715   S758    1.621   .     D
C716   H717    0.946   .     S
C716   C718    1.388   .     D
C716   N750    1.351   .     S
C718   C719    1.407   .     S
C718   C725    1.478   .     S
C719   H720    0.953   .     S
C719   C721    1.378   .     D
C721   H722    0.950   .     S
C721   C723    1.393   .     S
C723   H724    0.949   .     S
C723   N750    1.330   .     D
C725   N751    1.335   .     D
C725   N753    1.345   .     S
C726   C728    1.473   .     S
C726   N752    1.338   .     S
C726   N753    1.344   .     D
C727   N751    1.339   .     S
C727   N752    1.348   .     D
C728   C729    1.401   .     S
C728   C735    1.399   .     D
C729   H730    0.951   .     S
C729   C731    1.376   .     D
C731   H732    0.950   .     S
C731   C733    1.407   .     S
C733   H734    0.950   .     S
C733   N754    1.341   .     D
C735   H736    0.946   .     S
C735   N754    1.331   .     S
C737   N755    1.148   .     D
C737   S759    1.621   .     D
C738   H739    0.949   .     S
C738   C740    1.358   .     D
C738   N756    1.363   .     S
C740   H741    0.948   .     S
C740   C742    1.405   .     S
C742   H743    0.948   .     S
C742   C744    1.396   .     D
C744   C745    1.384   .     S
C744   C747    1.482   .     S
C745   H746    0.949   .     S
C745   N756    1.353   .     D
C747   N757    1.322   .     S
N748   Co3323  2.084   .     S
N749   Co3330  2.217   .     S
N750   Co3323  2.212   .     S
N754   Co3342  2.178   .     S
N755   Co3342  2.083   .     S
N756   Co3342  2.181   .     S
C775   H776    0.948   .     S
C775   C777    1.371   .     D
C775   N818    1.341   .     S
C777   H778    0.951   .     S
C777   C779    1.404   .     S
C779   H780    0.951   .     S
C779   C781    1.396   .     D
C781   C782    1.392   .     S
C781   C796    1.477   .     S
C782   H783    0.950   .     S
C782   N818    1.337   .     D
C784   N817    1.176   .     D
C784   S827    1.622   .     D
C785   H786    0.946   .     S
C785   C787    1.388   .     D
C785   N819    1.351   .     S
C787   C788    1.407   .     S
C787   C794    1.478   .     S
C788   H789    0.953   .     S
C788   C790    1.378   .     D
C790   H791    0.950   .     S
C790   C792    1.393   .     S
C792   H793    0.949   .     S
C792   N819    1.330   .     D
C794   N820    1.335   .     D
C794   N822    1.345   .     S
C795   C797    1.473   .     S
C795   N821    1.338   .     S
C795   N822    1.344   .     D
C796   N820    1.339   .     S
C796   N821    1.348   .     D
C797   C798    1.401   .     S
C797   C804    1.399   .     D
C798   H799    0.951   .     S
C798   C800    1.376   .     D
C800   H801    0.950   .     S
C800   C802    1.407   .     S
C802   H803    0.950   .     S
C802   N823    1.341   .     D
C804   H805    0.946   .     S
C804   N823    1.331   .     S
C806   N824    1.148   .     D
C806   S828    1.621   .     D
C807   H808    0.949   .     S
C807   C809    1.358   .     D
C807   N825    1.363   .     S
C809   H810    0.948   .     S
C809   C811    1.405   .     S
C811   H812    0.948   .     S
C811   C813    1.396   .     D
C813   C814    1.384   .     S
C813   C816    1.482   .     S
C814   H815    0.949   .     S
C814   N825    1.353   .     D
C816   N826    1.322   .     S
N817   Co3324  2.084   .     S
N818   Co3331  2.217   .     S
N819   Co3324  2.212   1_545 S
N823   Co3342  2.178   .     S
N824   Co3342  2.083   .     S
N825   Co3342  2.181   .     S
C844   H845    0.948   .     S
C844   C846    1.371   .     S
C844   N887    1.341   .     D
C846   H847    0.951   .     S
C846   C848    1.404   .     D
C848   H849    0.951   .     S
C848   C850    1.396   .     S
C850   C851    1.392   .     D
C850   C865    1.477   .     S
C851   H852    0.950   .     S
C851   N887    1.337   .     S
C853   N886    1.176   .     D
C853   S896    1.621   .     D
C854   H855    0.946   .     S
C854   C856    1.388   .     D
C854   N888    1.351   .     S
C856   C857    1.407   .     S
C856   C863    1.478   .     S
C857   H858    0.953   .     S
C857   C859    1.378   .     D
C859   H860    0.950   .     S
C859   C861    1.393   .     S
C861   H862    0.949   .     S
C861   N888    1.330   .     D
C863   N889    1.335   .     S
C863   N891    1.345   .     D
C864   C866    1.473   .     S
C864   N890    1.338   .     D
C864   N891    1.344   .     S
C865   N889    1.339   .     D
C865   N890    1.348   .     S
C866   C867    1.401   .     S
C866   C873    1.399   .     D
C867   H868    0.951   .     S
C867   C869    1.376   1_554 S
C869   H870    0.950   .     S
C869   C871    1.407   .     S
C869   C867    1.376   1_556 S
C871   H872    0.950   .     S
C871   N892    1.341   .     D
C873   H874    0.946   .     S
C873   N892    1.331   1_554 D
C875   N893    1.148   .     D
C875   S897    1.621   .     D
C876   H877    0.949   .     S
C876   C878    1.358   .     D
C876   N894    1.363   .     S
C878   H879    0.948   .     S
C878   C880    1.405   .     S
C880   H881    0.948   .     S
C880   C882    1.396   .     D
C882   C883    1.384   .     S
C882   C885    1.482   .     S
C883   H884    0.949   .     S
C883   N894    1.353   .     D
C885   N895    1.322   .     S
C885   N1240   1.358   .     D
N886   Co3322  2.084   1_554 D
N887   Co3328  2.217   .     S
N888   Co3322  2.212   1_554 S
N892   Co3343  2.178   .     S
N892   C873    1.331   1_556 D
N893   Co3343  2.083   1_554 S
N894   Co3343  2.181   1_554 S
N895   C1644   1.358   .     D
C913   H914    0.948   .     S
C913   C915    1.371   .     D
C913   N956    1.341   .     S
C915   H916    0.951   .     S
C915   C917    1.404   .     S
C917   H918    0.951   .     S
C917   C919    1.396   .     D
C919   C920    1.392   .     S
C919   C934    1.477   .     S
C920   H921    0.950   .     S
C920   N956    1.337   .     D
C922   N955    1.176   .     D
C922   S965    1.621   .     D
C923   H924    0.946   .     S
C923   C925    1.388   .     D
C923   N957    1.351   .     S
C925   C926    1.407   .     S
C925   C932    1.478   .     S
C926   H927    0.953   .     S
C926   C928    1.378   .     D
C928   H929    0.950   .     S
C928   C930    1.393   .     S
C930   H931    0.949   .     S
C930   N957    1.330   .     D
C932   N958    1.335   .     D
C932   N960    1.345   .     S
C933   C935    1.473   .     S
C933   N959    1.338   .     S
C933   N960    1.344   .     D
C934   N958    1.339   .     S
C934   N959    1.348   .     D
C935   C936    1.401   .     S
C935   C942    1.399   .     D
C936   H937    0.951   .     S
C936   C938    1.376   .     D
C938   H939    0.950   .     S
C938   C940    1.407   .     S
C940   H941    0.950   .     S
C940   N961    1.341   .     D
C942   H943    0.946   .     S
C942   N961    1.331   .     S
C944   N962    1.148   .     D
C944   S966    1.621   .     D
C945   H946    0.949   .     S
C945   C947    1.358   .     D
C945   N963    1.363   .     S
C947   H948    0.948   .     S
C947   C949    1.405   .     S
C949   H950    0.948   .     S
C949   C951    1.396   1_556 S
C951   C952    1.384   .     S
C951   C954    1.482   .     S
C951   C949    1.396   1_554 S
C952   H953    0.949   .     S
C952   N963    1.353   1_554 D
C954   N964    1.322   .     S
C954   N1378   1.358   .     D
N955   Co3323  2.084   .     S
N956   Co3327  2.217   .     S
N957   Co3323  2.212   .     S
N961   Co3343  2.178   .     S
N962   Co3343  2.083   .     S
N963   Co3343  2.181   .     S
N963   C952    1.353   1_556 D
N964   C1437   1.358   .     D
C982   H983    0.948   .     S
C982   C984    1.371   .     D
C982   N1025   1.341   .     S
C984   H985    0.951   .     S
C984   C986    1.404   .     S
C986   H987    0.951   .     S
C986   C988    1.396   .     D
C988   C989    1.392   .     S
C988   C1003   1.477   .     S
C989   H990    0.950   .     S
C989   N1025   1.337   .     D
C991   N1024   1.176   .     D
C991   S1034   1.622   .     D
C992   H993    0.946   .     S
C992   C994    1.388   .     D
C992   N1026   1.351   .     S
C994   C995    1.407   .     S
C994   C1001   1.478   .     S
C995   H996    0.953   .     S
C995   C997    1.378   .     D
C997   H998    0.950   .     S
C997   C999    1.393   .     S
C999   H1000   0.949   .     S
C999   N1026   1.330   .     D
C1001  N1027   1.335   .     D
C1001  N1029   1.345   .     S
C1002  C1004   1.473   .     S
C1002  N1028   1.338   .     S
C1002  N1029   1.344   .     D
C1003  N1027   1.339   .     S
C1003  N1028   1.348   .     D
C1004  C1005   1.401   .     S
C1004  C1011   1.399   .     D
C1005  H1006   0.951   .     S
C1005  C1007   1.376   1_545 S
C1007  H1008   0.950   .     S
C1007  C1009   1.407   .     S
C1007  C1005   1.376   1_565 S
C1009  H1010   0.950   .     S
C1009  N1030   1.341   .     D
C1011  H1012   0.946   .     S
C1011  N1030   1.331   1_545 D
C1013  N1031   1.148   .     D
C1013  S1035   1.621   .     D
C1014  H1015   0.949   .     S
C1014  C1016   1.358   .     D
C1014  N1032   1.363   .     S
C1016  H1017   0.948   .     S
C1016  C1018   1.405   .     S
C1018  H1019   0.948   .     S
C1018  C1020   1.396   1_655 S
C1020  C1021   1.384   .     S
C1020  C1023   1.482   .     S
C1020  C1018   1.396   1_455 S
C1021  H1022   0.949   .     S
C1021  N1032   1.353   1_455 S
C1023  N1033   1.322   .     S
C1023  N1309   1.358   .     D
N1024  Co3324  2.084   1_545 D
N1025  Co3325  2.217   .     S
N1026  Co3324  2.212   1_545 S
N1030  Co3344  2.178   .     S
N1030  C1011   1.331   1_565 D
N1031  Co3344  2.083   1_545 S
N1032  C1021   1.353   1_655 S
N1032  Co3344  2.181   1_545 D
N1033  C1575   1.358   .     D
C1051  H1052   0.948   .     S
C1051  C1053   1.371   .     S
C1051  N1094   1.341   .     D
C1053  H1054   0.951   .     S
C1053  C1055   1.404   .     D
C1055  H1056   0.951   .     S
C1055  C1057   1.396   .     S
C1057  C1058   1.392   .     D
C1057  C1072   1.477   .     S
C1058  H1059   0.950   .     S
C1058  N1094   1.337   .     S
C1060  N1093   1.176   .     D
C1060  S1103   1.621   .     D
C1061  H1062   0.946   .     S
C1061  C1063   1.388   .     D
C1061  N1095   1.351   .     S
C1063  C1064   1.407   .     S
C1063  C1070   1.478   .     S
C1064  H1065   0.953   .     S
C1064  C1066   1.378   .     D
C1066  H1067   0.950   .     S
C1066  C1068   1.393   .     S
C1068  H1069   0.949   .     S
C1068  N1095   1.330   .     D
C1070  N1096   1.335   .     D
C1070  N1098   1.345   .     S
C1071  C1073   1.473   .     S
C1071  N1097   1.338   .     S
C1071  N1098   1.344   .     D
C1072  N1096   1.339   .     S
C1072  N1097   1.348   .     D
C1073  C1074   1.401   .     S
C1073  C1080   1.399   .     D
C1074  H1075   0.951   .     S
C1074  C1076   1.376   1_455 S
C1076  H1077   0.950   .     S
C1076  C1078   1.407   .     S
C1076  C1074   1.376   1_655 S
C1078  H1079   0.950   .     S
C1078  N1099   1.341   .     D
C1080  H1081   0.946   .     S
C1080  N1099   1.331   1_455 S
C1082  N1100   1.148   .     D
C1082  S1104   1.621   .     D
C1083  H1084   0.949   .     S
C1083  C1085   1.358   .     D
C1083  N1101   1.363   .     S
C1085  H1086   0.948   .     S
C1085  C1087   1.405   .     S
C1087  H1088   0.948   .     S
C1087  C1089   1.396   1_565 S
C1089  C1090   1.384   .     S
C1089  C1092   1.482   .     S
C1089  C1087   1.396   1_545 S
C1090  H1091   0.949   .     S
C1090  N1101   1.353   1_545 D
C1092  N1102   1.322   .     S
C1092  N1171   1.358   .     D
N1093  Co3321  2.084   1_455 S
N1094  Co3326  2.217   .     S
N1095  Co3321  2.212   1_455 S
N1099  Co3344  2.178   .     S
N1099  C1080   1.331   1_655 S
N1100  Co3344  2.083   1_455 D
N1101  C1090   1.353   1_565 D
N1101  Co3344  2.181   1_455 D
N1102  C1506   1.358   .     D
C1120  H1121   0.948   .     S
C1120  C1122   1.371   .     S
C1120  N1163   1.341   .     D
C1122  H1123   0.951   .     S
C1122  C1124   1.404   .     D
C1124  H1125   0.951   .     S
C1124  C1126   1.396   .     S
C1126  C1127   1.392   .     D
C1126  C1141   1.477   .     S
C1127  H1128   0.950   .     S
C1127  N1163   1.337   .     S
C1129  N1162   1.176   .     D
C1129  S1172   1.621   .     D
C1130  H1131   0.946   .     S
C1130  C1132   1.388   .     D
C1130  N1164   1.351   .     S
C1132  C1133   1.407   .     S
C1132  C1139   1.478   .     S
C1133  H1134   0.953   .     S
C1133  C1135   1.378   .     D
C1135  H1136   0.950   .     S
C1135  C1137   1.393   .     S
C1137  H1138   0.949   .     S
C1137  N1164   1.330   .     D
C1139  N1165   1.335   .     S
C1139  N1167   1.345   .     D
C1140  C1142   1.473   .     S
C1140  N1166   1.338   .     D
C1140  N1167   1.344   .     S
C1141  N1165   1.339   .     D
C1141  N1166   1.348   .     S
C1142  C1143   1.401   .     S
C1142  C1149   1.399   .     D
C1143  H1144   0.951   .     S
C1143  C1145   1.376   1_554 S
C1145  H1146   0.950   .     S
C1145  C1147   1.407   .     S
C1145  C1143   1.376   1_556 S
C1147  H1148   0.950   .     S
C1147  N1168   1.341   .     D
C1149  H1150   0.946   .     S
C1149  N1168   1.331   1_554 S
C1151  N1169   1.148   .     D
C1151  S1173   1.621   .     D
C1152  H1153   0.949   .     S
C1152  C1154   1.358   .     S
C1152  N1170   1.363   .     D
C1154  H1155   0.948   .     S
C1154  C1156   1.405   .     D
C1156  H1157   0.948   .     S
C1156  C1158   1.396   1_655 S
C1158  C1159   1.384   .     D
C1158  C1161   1.482   .     S
C1158  C1156   1.396   1_455 S
C1159  H1160   0.949   .     S
C1159  N1170   1.353   1_455 S
C1161  N1171   1.322   .     S
C1161  N1516   1.358   .     D
N1162  Co3317  2.084   1_554 S
N1163  Co3334  2.217   .     S
N1164  Co3317  2.212   1_554 S
N1168  Co3345  2.178   .     S
N1168  C1149   1.331   1_556 S
N1169  Co3345  2.083   1_554 S
N1170  C1159   1.353   1_655 S
N1170  Co3345  2.181   1_554 S
C1189  H1190   0.948   .     S
C1189  C1191   1.371   .     S
C1189  N1232   1.341   .     D
C1191  H1192   0.951   .     S
C1191  C1193   1.404   .     D
C1193  H1194   0.951   .     S
C1193  C1195   1.396   .     S
C1195  C1196   1.392   .     D
C1195  C1210   1.477   .     S
C1196  H1197   0.950   .     S
C1196  N1232   1.337   .     S
C1198  N1231   1.176   .     D
C1198  S1241   1.622   .     D
C1199  H1200   0.946   .     S
C1199  C1201   1.388   .     D
C1199  N1233   1.351   .     S
C1201  C1202   1.407   .     S
C1201  C1208   1.478   .     S
C1202  H1203   0.953   .     S
C1202  C1204   1.378   .     D
C1204  H1205   0.950   .     S
C1204  C1206   1.393   .     S
C1206  H1207   0.949   .     S
C1206  N1233   1.330   .     D
C1208  N1234   1.335   .     S
C1208  N1236   1.345   .     D
C1209  C1211   1.473   .     S
C1209  N1235   1.338   .     D
C1209  N1236   1.344   .     S
C1210  N1234   1.339   .     D
C1210  N1235   1.348   .     S
C1211  C1212   1.401   .     S
C1211  C1218   1.399   .     D
C1212  H1213   0.951   .     S
C1212  C1214   1.376   1_455 S
C1214  H1215   0.950   .     S
C1214  C1216   1.407   .     S
C1214  C1212   1.376   1_655 S
C1216  H1217   0.950   .     S
C1216  N1237   1.341   .     D
C1218  H1219   0.946   .     S
C1218  N1237   1.331   1_455 S
C1220  N1238   1.148   .     D
C1220  S1242   1.621   .     D
C1221  H1222   0.949   .     S
C1221  C1223   1.358   .     D
C1221  N1239   1.363   .     S
C1223  H1224   0.948   .     S
C1223  C1225   1.405   .     S
C1225  H1226   0.948   .     S
C1225  C1227   1.396   1_556 S
C1227  C1228   1.384   .     S
C1227  C1230   1.482   .     S
C1227  C1225   1.396   1_554 S
C1228  H1229   0.949   .     S
C1228  N1239   1.353   1_554 S
C1230  N1240   1.322   .     S
C1230  N1654   1.358   .     D
N1231  Co3320  2.084   1_455 S
N1232  Co3333  2.217   .     S
N1233  Co3320  2.212   1_455 D
N1237  Co3345  2.178   .     S
N1237  C1218   1.331   1_655 S
N1238  Co3345  2.083   1_455 D
N1239  C1228   1.353   1_556 S
N1239  Co3345  2.181   1_455 S
C1258  H1259   0.948   .     S
C1258  C1260   1.371   .     D
C1258  N1301   1.341   .     S
C1260  H1261   0.951   .     S
C1260  C1262   1.404   .     S
C1262  H1263   0.951   .     S
C1262  C1264   1.396   .     D
C1264  C1265   1.392   .     S
C1264  C1279   1.477   .     S
C1265  H1266   0.950   .     S
C1265  N1301   1.337   .     D
C1267  N1300   1.176   .     D
C1267  S1310   1.621   .     D
C1268  H1269   0.946   .     S
C1268  C1270   1.388   .     D
C1268  N1302   1.351   .     S
C1270  C1271   1.407   .     S
C1270  C1277   1.478   .     S
C1271  H1272   0.953   .     S
C1271  C1273   1.378   .     D
C1273  H1274   0.950   .     S
C1273  C1275   1.393   .     S
C1275  H1276   0.949   .     S
C1275  N1302   1.330   .     D
C1277  N1303   1.335   .     D
C1277  N1305   1.345   .     S
C1278  C1280   1.473   .     S
C1278  N1304   1.338   .     S
C1278  N1305   1.344   .     D
C1279  N1303   1.339   .     S
C1279  N1304   1.348   .     D
C1280  C1281   1.401   .     S
C1280  C1287   1.399   .     D
C1281  H1282   0.951   .     S
C1281  C1283   1.376   .     D
C1283  H1284   0.950   .     S
C1283  C1285   1.407   .     S
C1285  H1286   0.950   .     S
C1285  N1306   1.341   .     D
C1287  H1288   0.946   .     S
C1287  N1306   1.331   .     S
C1289  N1307   1.148   .     D
C1289  S1311   1.621   .     D
C1290  H1291   0.949   .     S
C1290  C1292   1.358   .     D
C1290  N1308   1.363   .     S
C1292  H1293   0.948   .     S
C1292  C1294   1.405   .     S
C1294  H1295   0.948   .     S
C1294  C1296   1.396   1_565 D
C1296  C1297   1.384   .     S
C1296  C1299   1.482   .     S
C1296  C1294   1.396   1_545 D
C1297  H1298   0.949   .     S
C1297  N1308   1.353   1_545 S
C1299  N1309   1.322   .     S
C1299  N1585   1.358   .     D
N1300  Co3319  2.084   .     S
N1301  Co3335  2.217   .     S
N1302  Co3319  2.212   .     S
N1306  Co3346  2.178   .     S
N1307  Co3346  2.083   .     S
N1308  Co3346  2.181   .     S
N1308  C1297   1.353   1_565 S
C1327  H1328   0.948   .     S
C1327  C1329   1.371   .     S
C1327  N1370   1.341   .     D
C1329  H1330   0.951   .     S
C1329  C1331   1.404   .     D
C1331  H1332   0.951   .     S
C1331  C1333   1.396   .     S
C1333  C1334   1.392   .     D
C1333  C1348   1.477   .     S
C1334  H1335   0.950   .     S
C1334  N1370   1.337   .     S
C1336  N1369   1.176   .     D
C1336  S1379   1.621   .     D
C1337  H1338   0.946   .     S
C1337  C1339   1.388   .     D
C1337  N1371   1.351   .     S
C1339  C1340   1.407   .     S
C1339  C1346   1.478   .     S
C1340  H1341   0.953   .     S
C1340  C1342   1.378   .     D
C1342  H1343   0.950   .     S
C1342  C1344   1.393   .     S
C1344  H1345   0.949   .     S
C1344  N1371   1.330   .     D
C1346  N1372   1.335   .     D
C1346  N1374   1.345   .     S
C1347  C1349   1.473   .     S
C1347  N1373   1.338   .     S
C1347  N1374   1.344   .     D
C1348  N1372   1.339   .     S
C1348  N1373   1.348   .     D
C1349  C1350   1.401   .     S
C1349  C1356   1.399   .     D
C1350  H1351   0.951   .     S
C1350  C1352   1.376   1_545 D
C1352  H1353   0.950   .     S
C1352  C1354   1.407   .     S
C1352  C1350   1.376   1_565 D
C1354  H1355   0.950   .     S
C1354  N1375   1.341   .     D
C1356  H1357   0.946   .     S
C1356  N1375   1.331   1_545 S
C1358  N1376   1.148   .     D
C1358  S1380   1.621   .     D
C1359  H1360   0.949   .     S
C1359  C1361   1.358   .     D
C1359  N1377   1.363   .     S
C1361  H1362   0.948   .     S
C1361  C1363   1.405   .     S
C1363  H1364   0.948   .     S
C1363  C1365   1.396   .     D
C1365  C1366   1.384   .     S
C1365  C1368   1.482   .     S
C1366  H1367   0.949   .     S
C1366  N1377   1.353   .     D
C1368  N1378   1.322   .     S
C1368  N1447   1.358   .     D
N1369  Co3318  2.084   1_545 D
N1370  Co3336  2.217   .     S
N1371  Co3318  2.212   1_545 S
N1375  Co3346  2.178   .     S
N1375  C1356   1.331   1_565 S
N1376  Co3346  2.083   1_545 S
N1377  Co3346  2.181   1_545 S
C1396  H1397   0.948   .     S
C1396  C1398   1.371   .     D
C1396  N1439   1.341   .     S
C1398  H1399   0.951   .     S
C1398  C1400   1.404   .     S
C1400  H1401   0.951   .     S
C1400  C1402   1.396   .     D
C1402  C1403   1.392   .     S
C1402  C1417   1.477   .     S
C1403  H1404   0.950   .     S
C1403  N1439   1.337   .     D
C1405  N1438   1.176   .     D
C1405  S1448   1.622   .     D
C1406  H1407   0.946   .     S
C1406  C1408   1.388   .     D
C1406  N1440   1.351   .     S
C1408  C1409   1.407   .     S
C1408  C1415   1.478   .     S
C1409  H1410   0.953   .     S
C1409  C1411   1.378   .     D
C1411  H1412   0.950   .     S
C1411  C1413   1.393   .     S
C1413  H1414   0.949   .     S
C1413  N1440   1.330   .     D
C1415  N1441   1.335   .     D
C1415  N1443   1.345   .     S
C1416  C1418   1.473   .     S
C1416  N1442   1.338   .     S
C1416  N1443   1.344   .     D
C1417  N1441   1.339   .     S
C1417  N1442   1.348   .     D
C1418  C1419   1.401   .     S
C1418  C1425   1.399   .     D
C1419  H1420   0.951   .     S
C1419  C1421   1.376   1_554 D
C1421  H1422   0.950   .     S
C1421  C1423   1.407   .     S
C1421  C1419   1.376   1_556 D
C1423  H1424   0.950   .     S
C1423  N1444   1.341   .     D
C1425  H1426   0.946   .     S
C1425  N1444   1.331   1_554 S
C1427  N1445   1.148   .     D
C1427  S1449   1.621   .     D
C1428  H1429   0.949   .     S
C1428  C1430   1.358   .     S
C1428  N1446   1.363   .     D
C1430  H1431   0.948   .     S
C1430  C1432   1.405   .     D
C1432  H1433   0.948   .     S
C1432  C1434   1.396   1_565 S
C1434  C1435   1.384   .     D
C1434  C1437   1.482   .     S
C1434  C1432   1.396   1_545 S
C1435  H1436   0.949   .     S
C1435  N1446   1.353   1_545 D
C1437  N1447   1.322   .     S
N1438  Co3316  2.084   1_554 S
N1439  Co3329  2.217   .     S
N1440  Co3316  2.212   1_554 S
N1444  Co3347  2.178   .     S
N1444  C1425   1.331   1_556 S
N1445  Co3347  2.083   1_554 D
N1446  C1435   1.353   1_565 D
N1446  Co3347  2.181   1_554 D
C1465  H1466   0.948   .     S
C1465  C1467   1.371   .     D
C1465  N1508   1.341   .     S
C1467  H1468   0.951   .     S
C1467  C1469   1.404   .     S
C1469  H1470   0.951   .     S
C1469  C1471   1.396   .     D
C1471  C1472   1.392   .     S
C1471  C1486   1.477   .     S
C1472  H1473   0.950   .     S
C1472  N1508   1.337   .     D
C1474  N1507   1.176   .     D
C1474  S1517   1.621   .     D
C1475  H1476   0.946   .     S
C1475  C1477   1.388   .     D
C1475  N1509   1.351   .     S
C1477  C1478   1.407   .     S
C1477  C1484   1.478   .     S
C1478  H1479   0.953   .     S
C1478  C1480   1.378   .     D
C1480  H1481   0.950   .     S
C1480  C1482   1.393   .     S
C1482  H1483   0.949   .     S
C1482  N1509   1.330   .     D
C1484  N1510   1.335   .     D
C1484  N1512   1.345   .     S
C1485  C1487   1.473   .     S
C1485  N1511   1.338   .     S
C1485  N1512   1.344   .     D
C1486  N1510   1.339   .     S
C1486  N1511   1.348   .     D
C1487  C1488   1.401   .     S
C1487  C1494   1.399   .     D
C1488  H1489   0.951   .     S
C1488  C1490   1.376   1_545 S
C1490  H1491   0.950   .     S
C1490  C1492   1.407   .     S
C1490  C1488   1.376   1_565 S
C1492  H1493   0.950   .     S
C1492  N1513   1.341   .     D
C1494  H1495   0.946   .     S
C1494  N1513   1.331   1_545 S
C1496  N1514   1.148   .     D
C1496  S1518   1.621   .     D
C1497  H1498   0.949   .     S
C1497  C1499   1.358   .     D
C1497  N1515   1.363   .     S
C1499  H1500   0.948   .     S
C1499  C1501   1.405   .     S
C1501  H1502   0.948   .     S
C1501  C1503   1.396   1_556 D
C1503  C1504   1.384   .     S
C1503  C1506   1.482   .     S
C1503  C1501   1.396   1_554 D
C1504  H1505   0.949   .     S
C1504  N1515   1.353   1_554 S
C1506  N1516   1.322   .     S
N1507  Co3313  2.084   1_545 S
N1508  Co3330  2.217   .     S
N1509  Co3313  2.212   1_545 D
N1513  Co3347  2.178   .     S
N1513  C1494   1.331   1_565 S
N1514  Co3347  2.083   1_545 S
N1515  C1504   1.353   1_556 S
N1515  Co3347  2.181   1_545 D
C1534  H1535   0.948   .     S
C1534  C1536   1.371   .     D
C1534  N1577   1.341   .     S
C1536  H1537   0.951   .     S
C1536  C1538   1.404   .     S
C1538  H1539   0.951   .     S
C1538  C1540   1.396   .     D
C1540  C1541   1.392   .     S
C1540  C1555   1.477   .     S
C1541  H1542   0.950   .     S
C1541  N1577   1.337   .     D
C1543  N1576   1.176   .     D
C1543  S1586   1.621   .     D
C1544  H1545   0.946   .     S
C1544  C1546   1.388   .     D
C1544  N1578   1.351   .     S
C1546  C1547   1.407   .     S
C1546  C1553   1.478   .     S
C1547  H1548   0.953   .     S
C1547  C1549   1.378   .     D
C1549  H1550   0.950   .     S
C1549  C1551   1.393   .     S
C1551  H1552   0.949   .     S
C1551  N1578   1.330   .     D
C1553  N1579   1.335   .     D
C1553  N1581   1.345   .     S
C1554  C1556   1.473   .     S
C1554  N1580   1.338   .     S
C1554  N1581   1.344   .     D
C1555  N1579   1.339   .     S
C1555  N1580   1.348   .     D
C1556  C1557   1.401   .     S
C1556  C1563   1.399   .     D
C1557  H1558   0.951   .     S
C1557  C1559   1.376   1_455 S
C1559  H1560   0.950   .     S
C1559  C1561   1.407   .     S
C1559  C1557   1.376   1_655 S
C1561  H1562   0.950   .     S
C1561  N1582   1.341   .     D
C1563  H1564   0.946   .     S
C1563  N1582   1.331   1_455 S
C1565  N1583   1.148   .     D
C1565  S1587   1.621   .     D
C1566  H1567   0.949   .     S
C1566  C1568   1.358   .     D
C1566  N1584   1.363   .     S
C1568  H1569   0.948   .     S
C1568  C1570   1.405   .     S
C1570  H1571   0.948   .     S
C1570  C1572   1.396   .     D
C1572  C1573   1.384   .     S
C1572  C1575   1.482   .     S
C1573  H1574   0.949   .     S
C1573  N1584   1.353   .     D
C1575  N1585   1.322   .     S
N1576  Co3314  2.084   1_455 S
N1577  Co3332  2.217   .     S
N1578  Co3314  2.212   1_455 S
N1582  Co3348  2.178   .     S
N1582  C1563   1.331   1_655 S
N1583  Co3348  2.083   1_455 D
N1584  Co3348  2.181   1_455 S
C1603  H1604   0.948   .     S
C1603  C1605   1.371   .     D
C1603  N1646   1.341   .     S
C1605  H1606   0.951   .     S
C1605  C1607   1.404   .     S
C1607  H1608   0.951   .     S
C1607  C1609   1.396   .     D
C1609  C1610   1.392   .     S
C1609  C1624   1.477   .     S
C1610  H1611   0.950   .     S
C1610  N1646   1.337   .     D
C1612  N1645   1.176   .     D
C1612  S1655   1.621   .     D
C1613  H1614   0.946   .     S
C1613  C1615   1.388   .     D
C1613  N1647   1.351   .     S
C1615  C1616   1.407   .     S
C1615  C1622   1.478   .     S
C1616  H1617   0.953   .     S
C1616  C1618   1.378   .     D
C1618  H1619   0.950   .     S
C1618  C1620   1.393   .     S
C1620  H1621   0.949   .     S
C1620  N1647   1.330   .     D
C1622  N1648   1.335   .     D
C1622  N1650   1.345   .     S
C1623  C1625   1.473   .     S
C1623  N1649   1.338   .     S
C1623  N1650   1.344   .     D
C1624  N1648   1.339   .     S
C1624  N1649   1.348   .     D
C1625  C1626   1.401   .     S
C1625  C1632   1.399   .     D
C1626  H1627   0.951   .     S
C1626  C1628   1.376   .     D
C1628  H1629   0.950   .     S
C1628  C1630   1.407   .     S
C1630  H1631   0.950   .     S
C1630  N1651   1.341   .     D
C1632  H1633   0.946   .     S
C1632  N1651   1.331   .     S
C1634  N1652   1.148   .     D
C1634  S1656   1.621   .     D
C1635  H1636   0.949   .     S
C1635  C1637   1.358   .     D
C1635  N1653   1.363   .     S
C1637  H1638   0.948   .     S
C1637  C1639   1.405   .     S
C1639  H1640   0.948   .     S
C1639  C1641   1.396   1_655 S
C1641  C1642   1.384   .     S
C1641  C1644   1.482   .     S
C1641  C1639   1.396   1_455 S
C1642  H1643   0.949   .     S
C1642  N1653   1.353   1_455 D
C1644  N1654   1.322   .     S
N1645  Co3315  2.084   .     S
N1646  Co3331  2.217   .     S
N1647  Co3315  2.212   .     S
N1651  Co3348  2.178   .     S
N1652  Co3348  2.083   .     S
N1653  Co3348  2.181   .     S
N1653  C1642   1.353   1_655 D
C1672  H1673   0.948   .     S
C1672  C1674   1.371   .     D
C1672  N1715   1.341   .     S
C1674  H1675   0.951   .     S
C1674  C1676   1.404   .     S
C1676  H1677   0.951   .     S
C1676  C1678   1.396   .     D
C1678  C1679   1.392   .     S
C1678  C1693   1.477   .     S
C1679  H1680   0.950   .     S
C1679  N1715   1.337   .     D
C1681  N1714   1.176   .     D
C1681  S1724   1.621   .     D
C1682  H1683   0.946   .     S
C1682  C1684   1.388   .     D
C1682  N1716   1.351   .     S
C1684  C1685   1.407   .     S
C1684  C1691   1.478   .     S
C1685  H1686   0.953   .     S
C1685  C1687   1.378   .     D
C1687  H1688   0.950   .     S
C1687  C1689   1.393   .     S
C1689  H1690   0.949   .     S
C1689  N1716   1.330   .     D
C1691  N1717   1.335   .     D
C1691  N1719   1.345   .     S
C1692  C1694   1.473   .     S
C1692  N1718   1.338   .     S
C1692  N1719   1.344   .     D
C1693  N1717   1.339   .     S
C1693  N1718   1.348   .     D
C1694  C1695   1.401   .     S
C1694  C1701   1.399   .     D
C1695  H1696   0.951   .     S
C1695  C1697   1.376   .     D
C1697  H1698   0.950   .     S
C1697  C1699   1.407   .     S
C1699  H1700   0.950   .     S
C1699  N1720   1.341   .     D
C1701  H1702   0.946   .     S
C1701  N1720   1.331   .     S
C1703  N1721   1.148   .     D
C1703  S1725   1.621   .     D
C1704  H1705   0.949   .     S
C1704  C1706   1.358   .     D
C1704  N1722   1.363   .     S
C1706  H1707   0.948   .     S
C1706  C1708   1.405   .     S
C1708  H1709   0.948   .     S
C1708  C1710   1.396   .     D
C1710  C1711   1.384   .     S
C1710  C1713   1.482   .     S
C1711  H1712   0.949   .     S
C1711  N1722   1.353   .     D
C1713  N1723   1.322   .     S
C1713  N2068   1.358   .     D
N1714  Co3325  2.084   .     S
N1715  Co3321  2.217   .     S
N1716  Co3325  2.212   1_565 D
N1720  Co3349  2.178   .     S
N1721  Co3349  2.083   .     S
N1722  Co3349  2.181   .     S
N1723  C2472   1.358   .     D
C1741  H1742   0.948   .     S
C1741  C1743   1.371   .     S
C1741  N1784   1.341   .     D
C1743  H1744   0.951   .     S
C1743  C1745   1.404   .     D
C1745  H1746   0.951   .     S
C1745  C1747   1.396   .     S
C1747  C1748   1.392   .     D
C1747  C1762   1.477   .     S
C1748  H1749   0.950   .     S
C1748  N1784   1.337   .     S
C1750  N1783   1.176   .     D
C1750  S1793   1.621   .     D
C1751  H1752   0.946   .     S
C1751  C1753   1.388   .     D
C1751  N1785   1.351   .     S
C1753  C1754   1.407   .     S
C1753  C1760   1.478   .     S
C1754  H1755   0.953   .     S
C1754  C1756   1.378   .     D
C1756  H1757   0.950   .     S
C1756  C1758   1.393   .     S
C1758  H1759   0.949   .     S
C1758  N1785   1.330   .     D
C1760  N1786   1.335   .     S
C1760  N1788   1.345   .     D
C1761  C1763   1.473   .     S
C1761  N1787   1.338   .     D
C1761  N1788   1.344   .     S
C1762  N1786   1.339   .     D
C1762  N1787   1.348   .     S
C1763  C1764   1.401   .     S
C1763  C1770   1.399   .     D
C1764  H1765   0.951   .     S
C1764  C1766   1.376   .     D
C1766  H1767   0.950   .     S
C1766  C1768   1.407   .     S
C1768  H1769   0.950   .     S
C1768  N1789   1.341   .     D
C1770  H1771   0.946   .     S
C1770  N1789   1.331   .     S
C1772  N1790   1.148   .     D
C1772  S1794   1.621   .     D
C1773  H1774   0.949   .     S
C1773  C1775   1.358   .     D
C1773  N1791   1.363   .     S
C1775  H1776   0.948   .     S
C1775  C1777   1.405   .     S
C1777  H1778   0.948   .     S
C1777  C1779   1.396   .     D
C1779  C1780   1.384   .     S
C1779  C1782   1.482   .     S
C1780  H1781   0.949   .     S
C1780  N1791   1.353   .     D
C1782  N1792   1.322   .     D
C1782  N2206   1.358   .     S
N1783  Co3326  2.084   .     S
N1784  Co3324  2.217   .     S
N1785  Co3326  2.212   1_655 S
N1789  Co3349  2.178   .     S
N1790  Co3349  2.083   .     S
N1791  Co3349  2.181   .     S
N1792  C2265   1.358   .     S
C1810  H1811   0.948   .     S
C1810  C1812   1.371   .     S
C1810  N1853   1.341   .     D
C1812  H1813   0.951   .     S
C1812  C1814   1.404   .     D
C1814  H1815   0.951   .     S
C1814  C1816   1.396   .     S
C1816  C1817   1.392   .     D
C1816  C1831   1.477   .     S
C1817  H1818   0.950   .     S
C1817  N1853   1.337   .     S
C1819  N1852   1.176   .     D
C1819  S1862   1.621   .     D
C1820  H1821   0.946   .     S
C1820  C1822   1.388   .     D
C1820  N1854   1.351   .     S
C1822  C1823   1.407   .     S
C1822  C1829   1.478   .     S
C1823  H1824   0.953   .     S
C1823  C1825   1.378   .     D
C1825  H1826   0.950   .     S
C1825  C1827   1.393   .     S
C1827  H1828   0.949   .     S
C1827  N1854   1.330   .     D
C1829  N1855   1.335   .     S
C1829  N1857   1.345   .     D
C1830  C1832   1.473   .     S
C1830  N1856   1.338   .     D
C1830  N1857   1.344   .     S
C1831  N1855   1.339   .     D
C1831  N1856   1.348   .     S
C1832  C1833   1.401   .     S
C1832  C1839   1.399   .     D
C1833  H1834   0.951   .     S
C1833  C1835   1.376   .     D
C1835  H1836   0.950   .     S
C1835  C1837   1.407   .     S
C1837  H1838   0.950   .     S
C1837  N1858   1.341   .     D
C1839  H1840   0.946   .     S
C1839  N1858   1.331   .     S
C1841  N1859   1.148   .     D
C1841  S1863   1.621   .     D
C1842  H1843   0.949   .     S
C1842  C1844   1.358   .     D
C1842  N1860   1.363   .     S
C1844  H1845   0.948   .     S
C1844  C1846   1.405   .     S
C1846  H1847   0.948   .     S
C1846  C1848   1.396   .     D
C1848  C1849   1.384   .     S
C1848  C1851   1.482   .     S
C1849  H1850   0.949   .     S
C1849  N1860   1.353   .     D
C1851  N1861   1.322   .     D
C1851  N2137   1.358   .     S
N1852  Co3327  2.084   .     S
N1853  Co3322  2.217   .     S
N1854  Co3327  2.212   .     S
N1858  Co3350  2.178   .     S
N1859  Co3350  2.083   .     S
N1860  Co3350  2.181   .     S
N1861  C2403   1.358   .     S
C1879  H1880   0.948   .     S
C1879  C1881   1.371   .     D
C1879  N1922   1.341   .     S
C1881  H1882   0.951   .     S
C1881  C1883   1.404   .     S
C1883  H1884   0.951   .     S
C1883  C1885   1.396   .     D
C1885  C1886   1.392   .     S
C1885  C1900   1.477   .     S
C1886  H1887   0.950   .     S
C1886  N1922   1.337   .     D
C1888  N1921   1.176   .     D
C1888  S1931   1.622   .     D
C1889  H1890   0.946   .     S
C1889  C1891   1.388   .     D
C1889  N1923   1.351   .     S
C1891  C1892   1.407   .     S
C1891  C1898   1.478   .     S
C1892  H1893   0.953   .     S
C1892  C1894   1.378   .     D
C1894  H1895   0.950   .     S
C1894  C1896   1.393   .     S
C1896  H1897   0.949   .     S
C1896  N1923   1.330   .     D
C1898  N1924   1.335   .     D
C1898  N1926   1.345   .     S
C1899  C1901   1.473   .     S
C1899  N1925   1.338   .     S
C1899  N1926   1.344   .     D
C1900  N1924   1.339   .     S
C1900  N1925   1.348   .     D
C1901  C1902   1.401   .     S
C1901  C1908   1.399   .     D
C1902  H1903   0.951   .     S
C1902  C1904   1.376   .     D
C1904  H1905   0.950   .     S
C1904  C1906   1.407   .     S
C1906  H1907   0.950   .     S
C1906  N1927   1.341   .     D
C1908  H1909   0.946   .     S
C1908  N1927   1.331   .     S
C1910  N1928   1.148   .     D
C1910  S1932   1.621   .     D
C1911  H1912   0.949   .     S
C1911  C1913   1.358   .     D
C1911  N1929   1.363   .     S
C1913  H1914   0.948   .     S
C1913  C1915   1.405   .     S
C1915  H1916   0.948   .     S
C1915  C1917   1.396   .     D
C1917  C1918   1.384   .     S
C1917  C1920   1.482   .     S
C1918  H1919   0.949   .     S
C1918  N1929   1.353   .     D
C1920  N1930   1.322   .     D
C1920  N1999   1.358   .     S
N1921  Co3328  2.084   .     S
N1922  Co3323  2.217   .     S
N1923  Co3328  2.212   1_556 S
N1927  Co3350  2.178   .     S
N1928  Co3350  2.083   .     S
N1929  Co3350  2.181   .     S
N1930  C2334   1.358   .     S
C1948  H1949   0.948   .     S
C1948  C1950   1.371   .     D
C1948  N1991   1.341   .     S
C1950  H1951   0.951   .     S
C1950  C1952   1.404   .     S
C1952  H1953   0.951   .     S
C1952  C1954   1.396   .     D
C1954  C1955   1.392   .     S
C1954  C1969   1.477   .     S
C1955  H1956   0.950   .     S
C1955  N1991   1.337   .     D
C1957  N1990   1.176   .     D
C1957  S2000   1.621   .     D
C1958  H1959   0.946   .     S
C1958  C1960   1.388   .     D
C1958  N1992   1.351   .     S
C1960  C1961   1.407   .     S
C1960  C1967   1.478   .     S
C1961  H1962   0.953   .     S
C1961  C1963   1.378   .     D
C1963  H1964   0.950   .     S
C1963  C1965   1.393   .     S
C1965  H1966   0.949   .     S
C1965  N1992   1.330   .     D
C1967  N1993   1.335   .     D
C1967  N1995   1.345   .     S
C1968  C1970   1.473   .     S
C1968  N1994   1.338   .     S
C1968  N1995   1.344   .     D
C1969  N1993   1.339   .     S
C1969  N1994   1.348   .     D
C1970  C1971   1.401   .     S
C1970  C1977   1.399   .     D
C1971  H1972   0.951   .     S
C1971  C1973   1.376   .     D
C1973  H1974   0.950   .     S
C1973  C1975   1.407   .     S
C1975  H1976   0.950   .     S
C1975  N1996   1.341   .     D
C1977  H1978   0.946   .     S
C1977  N1996   1.331   .     S
C1979  N1997   1.148   .     D
C1979  S2001   1.621   .     D
C1980  H1981   0.949   .     S
C1980  C1982   1.358   .     S
C1980  N1998   1.363   .     D
C1982  H1983   0.948   .     S
C1982  C1984   1.405   .     D
C1984  H1985   0.948   .     S
C1984  C1986   1.396   .     S
C1986  C1987   1.384   .     D
C1986  C1989   1.482   .     S
C1987  H1988   0.949   .     S
C1987  N1998   1.353   .     S
C1989  N1999   1.322   .     D
C1989  N2344   1.358   .     S
N1990  Co3329  2.084   .     S
N1991  Co3313  2.217   .     S
N1992  Co3329  2.212   1_556 S
N1996  Co3351  2.178   .     S
N1997  Co3351  2.083   .     S
N1998  Co3351  2.181   .     S
C2017  H2018   0.948   .     S
C2017  C2019   1.371   .     S
C2017  N2060   1.341   .     D
C2019  H2020   0.951   .     S
C2019  C2021   1.404   .     D
C2021  H2022   0.951   .     S
C2021  C2023   1.396   .     S
C2023  C2024   1.392   .     D
C2023  C2038   1.477   .     S
C2024  H2025   0.950   .     S
C2024  N2060   1.337   .     S
C2026  N2059   1.176   .     D
C2026  S2069   1.621   .     D
C2027  H2028   0.946   .     S
C2027  C2029   1.388   .     D
C2027  N2061   1.351   .     S
C2029  C2030   1.407   .     S
C2029  C2036   1.478   .     S
C2030  H2031   0.953   .     S
C2030  C2032   1.378   .     D
C2032  H2033   0.950   .     S
C2032  C2034   1.393   .     S
C2034  H2035   0.949   .     S
C2034  N2061   1.330   .     D
C2036  N2062   1.335   .     S
C2036  N2064   1.345   .     D
C2037  C2039   1.473   .     S
C2037  N2063   1.338   .     D
C2037  N2064   1.344   .     S
C2038  N2062   1.339   .     D
C2038  N2063   1.348   .     S
C2039  C2040   1.401   .     S
C2039  C2046   1.399   .     D
C2040  H2041   0.951   .     S
C2040  C2042   1.376   .     D
C2042  H2043   0.950   .     S
C2042  C2044   1.407   .     S
C2044  H2045   0.950   .     S
C2044  N2065   1.341   .     D
C2046  H2047   0.946   .     S
C2046  N2065   1.331   .     S
C2048  N2066   1.148   .     D
C2048  S2070   1.621   .     D
C2049  H2050   0.949   .     S
C2049  C2051   1.358   .     D
C2049  N2067   1.363   .     S
C2051  H2052   0.948   .     S
C2051  C2053   1.405   .     S
C2053  H2054   0.948   .     S
C2053  C2055   1.396   .     D
C2055  C2056   1.384   .     S
C2055  C2058   1.482   .     S
C2056  H2057   0.949   .     S
C2056  N2067   1.353   .     D
C2058  N2068   1.322   .     S
C2058  N2482   1.358   .     D
N2059  Co3330  2.084   .     S
N2060  Co3316  2.217   .     S
N2061  Co3330  2.212   1_565 S
N2065  Co3351  2.178   .     S
N2066  Co3351  2.083   .     S
N2067  Co3351  2.181   .     S
C2086  H2087   0.948   .     S
C2086  C2088   1.371   .     S
C2086  N2129   1.341   .     D
C2088  H2089   0.951   .     S
C2088  C2090   1.404   .     D
C2090  H2091   0.951   .     S
C2090  C2092   1.396   .     S
C2092  C2093   1.392   .     D
C2092  C2107   1.477   .     S
C2093  H2094   0.950   .     S
C2093  N2129   1.337   .     S
C2095  N2128   1.176   .     D
C2095  S2138   1.621   .     D
C2096  H2097   0.946   .     S
C2096  C2098   1.388   .     D
C2096  N2130   1.351   .     S
C2098  C2099   1.407   .     S
C2098  C2105   1.478   .     S
C2099  H2100   0.953   .     S
C2099  C2101   1.378   .     D
C2101  H2102   0.950   .     S
C2101  C2103   1.393   .     S
C2103  H2104   0.949   .     S
C2103  N2130   1.330   .     D
C2105  N2131   1.335   .     S
C2105  N2133   1.345   .     D
C2106  C2108   1.473   .     S
C2106  N2132   1.338   .     D
C2106  N2133   1.344   .     S
C2107  N2131   1.339   .     D
C2107  N2132   1.348   .     S
C2108  C2109   1.401   .     S
C2108  C2115   1.399   .     D
C2109  H2110   0.951   .     S
C2109  C2111   1.376   .     D
C2111  H2112   0.950   .     S
C2111  C2113   1.407   .     S
C2113  H2114   0.950   .     S
C2113  N2134   1.341   .     D
C2115  H2116   0.946   .     S
C2115  N2134   1.331   .     S
C2117  N2135   1.148   .     D
C2117  S2139   1.621   .     D
C2118  H2119   0.949   .     S
C2118  C2120   1.358   .     S
C2118  N2136   1.363   .     D
C2120  H2121   0.948   .     S
C2120  C2122   1.405   .     D
C2122  H2123   0.948   .     S
C2122  C2124   1.396   .     S
C2124  C2125   1.384   .     D
C2124  C2127   1.482   .     S
C2125  H2126   0.949   .     S
C2125  N2136   1.353   .     S
C2127  N2137   1.322   .     D
C2127  N2413   1.358   .     S
N2128  Co3331  2.084   .     S
N2129  Co3314  2.217   .     S
N2130  Co3331  2.212   .     S
N2134  Co3352  2.178   .     S
N2135  Co3352  2.083   .     S
N2136  Co3352  2.181   .     S
C2155  H2156   0.948   .     S
C2155  C2157   1.371   .     D
C2155  N2198   1.341   .     S
C2157  H2158   0.951   .     S
C2157  C2159   1.404   .     S
C2159  H2160   0.951   .     S
C2159  C2161   1.396   .     D
C2161  C2162   1.392   .     S
C2161  C2176   1.477   .     S
C2162  H2163   0.950   .     S
C2162  N2198   1.337   .     D
C2164  N2197   1.176   .     D
C2164  S2207   1.622   .     D
C2165  H2166   0.946   .     S
C2165  C2167   1.388   .     D
C2165  N2199   1.351   .     S
C2167  C2168   1.407   .     S
C2167  C2174   1.478   .     S
C2168  H2169   0.953   .     S
C2168  C2170   1.378   .     D
C2170  H2171   0.950   .     S
C2170  C2172   1.393   .     S
C2172  H2173   0.949   .     S
C2172  N2199   1.330   .     D
C2174  N2200   1.335   .     D
C2174  N2202   1.345   .     S
C2175  C2177   1.473   .     S
C2175  N2201   1.338   .     S
C2175  N2202   1.344   .     D
C2176  N2200   1.339   .     S
C2176  N2201   1.348   .     D
C2177  C2178   1.401   .     S
C2177  C2184   1.399   .     D
C2178  H2179   0.951   .     S
C2178  C2180   1.376   .     D
C2180  H2181   0.950   .     S
C2180  C2182   1.407   .     S
C2182  H2183   0.950   .     S
C2182  N2203   1.341   .     D
C2184  H2185   0.946   .     S
C2184  N2203   1.331   .     S
C2186  N2204   1.148   .     D
C2186  S2208   1.621   .     D
C2187  H2188   0.949   .     S
C2187  C2189   1.358   .     S
C2187  N2205   1.363   .     D
C2189  H2190   0.948   .     S
C2189  C2191   1.405   .     D
C2191  H2192   0.948   .     S
C2191  C2193   1.396   .     S
C2193  C2194   1.384   .     D
C2193  C2196   1.482   .     S
C2194  H2195   0.949   .     S
C2194  N2205   1.353   .     S
C2196  N2206   1.322   .     D
C2196  N2275   1.358   .     S
N2197  Co3332  2.084   .     S
N2198  Co3315  2.217   .     S
N2199  Co3332  2.212   1_655 S
N2203  Co3352  2.178   .     S
N2204  Co3352  2.083   .     S
N2205  Co3352  2.181   .     S
C2224  H2225   0.948   .     S
C2224  C2226   1.371   .     S
C2224  N2267   1.341   .     D
C2226  H2227   0.951   .     S
C2226  C2228   1.404   .     D
C2228  H2229   0.951   .     S
C2228  C2230   1.396   .     S
C2230  C2231   1.392   .     D
C2230  C2245   1.477   .     S
C2231  H2232   0.950   .     S
C2231  N2267   1.337   .     S
C2233  N2266   1.176   .     D
C2233  S2276   1.621   .     D
C2234  H2235   0.946   .     S
C2234  C2236   1.388   .     D
C2234  N2268   1.351   .     S
C2236  C2237   1.407   .     S
C2236  C2243   1.478   .     S
C2237  H2238   0.953   .     S
C2237  C2239   1.378   .     D
C2239  H2240   0.950   .     S
C2239  C2241   1.393   .     S
C2241  H2242   0.949   .     S
C2241  N2268   1.330   .     D
C2243  N2269   1.335   .     S
C2243  N2271   1.345   .     D
C2244  C2246   1.473   .     S
C2244  N2270   1.338   .     D
C2244  N2271   1.344   .     S
C2245  N2269   1.339   .     D
C2245  N2270   1.348   .     S
C2246  C2247   1.401   .     S
C2246  C2253   1.399   .     D
C2247  H2248   0.951   .     S
C2247  C2249   1.376   .     D
C2249  H2250   0.950   .     S
C2249  C2251   1.407   .     S
C2251  H2252   0.950   .     S
C2251  N2272   1.341   .     D
C2253  H2254   0.946   .     S
C2253  N2272   1.331   .     S
C2255  N2273   1.148   .     D
C2255  S2277   1.621   .     D
C2256  H2257   0.949   .     S
C2256  C2258   1.358   .     D
C2256  N2274   1.363   .     S
C2258  H2259   0.948   .     S
C2258  C2260   1.405   .     S
C2260  H2261   0.948   .     S
C2260  C2262   1.396   .     D
C2262  C2263   1.384   .     S
C2262  C2265   1.482   .     S
C2263  H2264   0.949   .     S
C2263  N2274   1.353   .     D
C2265  N2275   1.322   .     D
N2266  Co3333  2.084   .     S
N2267  Co3317  2.217   .     S
N2268  Co3333  2.212   1_655 D
N2272  Co3353  2.178   .     S
N2273  Co3353  2.083   .     S
N2274  Co3353  2.181   .     S
C2293  H2294   0.948   .     S
C2293  C2295   1.371   .     S
C2293  N2336   1.341   .     D
C2295  H2296   0.951   .     S
C2295  C2297   1.404   .     D
C2297  H2298   0.951   .     S
C2297  C2299   1.396   .     S
C2299  C2300   1.392   .     D
C2299  C2314   1.477   .     S
C2300  H2301   0.950   .     S
C2300  N2336   1.337   .     S
C2302  N2335   1.176   .     D
C2302  S2345   1.621   .     D
C2303  H2304   0.946   .     S
C2303  C2305   1.388   .     D
C2303  N2337   1.351   .     S
C2305  C2306   1.407   .     S
C2305  C2312   1.478   .     S
C2306  H2307   0.953   .     S
C2306  C2308   1.378   .     D
C2308  H2309   0.950   .     S
C2308  C2310   1.393   .     S
C2310  H2311   0.949   .     S
C2310  N2337   1.330   .     D
C2312  N2338   1.335   .     D
C2312  N2340   1.345   .     S
C2313  C2315   1.473   .     S
C2313  N2339   1.338   .     S
C2313  N2340   1.344   .     D
C2314  N2338   1.339   .     S
C2314  N2339   1.348   .     D
C2315  C2316   1.401   .     S
C2315  C2322   1.399   .     D
C2316  H2317   0.951   .     S
C2316  C2318   1.376   .     D
C2318  H2319   0.950   .     S
C2318  C2320   1.407   .     S
C2320  H2321   0.950   .     S
C2320  N2341   1.341   .     D
C2322  H2323   0.946   .     S
C2322  N2341   1.331   .     S
C2324  N2342   1.148   .     D
C2324  S2346   1.621   .     D
C2325  H2326   0.949   .     S
C2325  C2327   1.358   .     D
C2325  N2343   1.363   .     S
C2327  H2328   0.948   .     S
C2327  C2329   1.405   .     S
C2329  H2330   0.948   .     S
C2329  C2331   1.396   .     D
C2331  C2332   1.384   .     S
C2331  C2334   1.482   .     S
C2332  H2333   0.949   .     S
C2332  N2343   1.353   .     D
C2334  N2344   1.322   .     D
N2335  Co3334  2.084   .     S
N2336  Co3320  2.217   .     S
N2337  Co3334  2.212   1_556 S
N2341  Co3353  2.178   .     S
N2342  Co3353  2.083   .     S
N2343  Co3353  2.181   .     S
C2362  H2363   0.948   .     S
C2362  C2364   1.371   .     S
C2362  N2405   1.341   .     D
C2364  H2365   0.951   .     S
C2364  C2366   1.404   .     D
C2366  H2367   0.951   .     S
C2366  C2368   1.396   .     S
C2368  C2369   1.392   .     D
C2368  C2383   1.477   .     S
C2369  H2370   0.950   .     S
C2369  N2405   1.337   .     S
C2371  N2404   1.176   .     D
C2371  S2414   1.621   .     D
C2372  H2373   0.946   .     S
C2372  C2374   1.388   .     D
C2372  N2406   1.351   .     S
C2374  C2375   1.407   .     S
C2374  C2381   1.478   .     S
C2375  H2376   0.953   .     S
C2375  C2377   1.378   .     D
C2377  H2378   0.950   .     S
C2377  C2379   1.393   .     S
C2379  H2380   0.949   .     S
C2379  N2406   1.330   .     D
C2381  N2407   1.335   .     S
C2381  N2409   1.345   .     D
C2382  C2384   1.473   .     S
C2382  N2408   1.338   .     D
C2382  N2409   1.344   .     S
C2383  N2407   1.339   .     D
C2383  N2408   1.348   .     S
C2384  C2385   1.401   .     S
C2384  C2391   1.399   .     D
C2385  H2386   0.951   .     S
C2385  C2387   1.376   .     D
C2387  H2388   0.950   .     S
C2387  C2389   1.407   .     S
C2389  H2390   0.950   .     S
C2389  N2410   1.341   .     D
C2391  H2392   0.946   .     S
C2391  N2410   1.331   .     S
C2393  N2411   1.148   .     D
C2393  S2415   1.621   .     D
C2394  H2395   0.949   .     S
C2394  C2396   1.358   .     D
C2394  N2412   1.363   .     S
C2396  H2397   0.948   .     S
C2396  C2398   1.405   .     S
C2398  H2399   0.948   .     S
C2398  C2400   1.396   .     D
C2400  C2401   1.384   .     S
C2400  C2403   1.482   .     S
C2401  H2402   0.949   .     S
C2401  N2412   1.353   .     D
C2403  N2413   1.322   .     D
N2404  Co3335  2.084   .     S
N2405  Co3318  2.217   .     S
N2406  Co3335  2.212   .     S
N2410  Co3354  2.178   .     S
N2411  Co3354  2.083   .     S
N2412  Co3354  2.181   .     S
C2431  H2432   0.948   .     S
C2431  C2433   1.371   .     S
C2431  N2474   1.341   .     D
C2433  H2434   0.951   .     S
C2433  C2435   1.404   .     D
C2435  H2436   0.951   .     S
C2435  C2437   1.396   .     S
C2437  C2438   1.392   .     D
C2437  C2452   1.477   .     S
C2438  H2439   0.950   .     S
C2438  N2474   1.337   .     S
C2440  N2473   1.176   .     D
C2440  S2483   1.622   .     D
C2441  H2442   0.946   .     S
C2441  C2443   1.388   .     D
C2441  N2475   1.351   .     S
C2443  C2444   1.407   .     S
C2443  C2450   1.478   .     S
C2444  H2445   0.953   .     S
C2444  C2446   1.378   .     D
C2446  H2447   0.950   .     S
C2446  C2448   1.393   .     S
C2448  H2449   0.949   .     S
C2448  N2475   1.330   .     D
C2450  N2476   1.335   .     S
C2450  N2478   1.345   .     D
C2451  C2453   1.473   .     S
C2451  N2477   1.338   .     D
C2451  N2478   1.344   .     S
C2452  N2476   1.339   .     D
C2452  N2477   1.348   .     S
C2453  C2454   1.401   .     S
C2453  C2460   1.399   .     D
C2454  H2455   0.951   .     S
C2454  C2456   1.376   .     D
C2456  H2457   0.950   .     S
C2456  C2458   1.407   .     S
C2458  H2459   0.950   .     S
C2458  N2479   1.341   .     D
C2460  H2461   0.946   .     S
C2460  N2479   1.331   .     S
C2462  N2480   1.148   .     D
C2462  S2484   1.621   .     D
C2463  H2464   0.949   .     S
C2463  C2465   1.358   .     D
C2463  N2481   1.363   .     S
C2465  H2466   0.948   .     S
C2465  C2467   1.405   .     S
C2467  H2468   0.948   .     S
C2467  C2469   1.396   .     D
C2469  C2470   1.384   .     S
C2469  C2472   1.482   .     S
C2470  H2471   0.949   .     S
C2470  N2481   1.353   .     D
C2472  N2482   1.322   .     S
N2473  Co3336  2.084   .     S
N2474  Co3319  2.217   .     S
N2475  Co3336  2.212   1_565 D
N2479  Co3354  2.178   .     S
N2480  Co3354  2.083   .     S
N2481  Co3354  2.181   .     S
C2500  H2501   0.948   .     S
C2500  C2502   1.371   .     D
C2500  N2543   1.341   .     S
C2502  H2503   0.951   .     S
C2502  C2504   1.404   .     S
C2504  H2505   0.951   .     S
C2504  C2506   1.396   .     D
C2506  C2507   1.392   .     S
C2506  C2521   1.477   .     S
C2507  H2508   0.950   .     S
C2507  N2543   1.337   .     D
C2509  N2542   1.176   .     D
C2509  S2552   1.621   .     D
C2510  H2511   0.946   .     S
C2510  C2512   1.388   .     D
C2510  N2544   1.351   .     S
C2512  C2513   1.407   .     S
C2512  C2519   1.478   .     S
C2513  H2514   0.953   .     S
C2513  C2515   1.378   .     D
C2515  H2516   0.950   .     S
C2515  C2517   1.393   .     S
C2517  H2518   0.949   .     S
C2517  N2544   1.330   .     D
C2519  N2545   1.335   .     D
C2519  N2547   1.345   .     S
C2520  C2522   1.473   .     S
C2520  N2546   1.338   .     S
C2520  N2547   1.344   .     D
C2521  N2545   1.339   .     S
C2521  N2546   1.348   .     D
C2522  C2523   1.401   .     S
C2522  C2529   1.399   .     D
C2523  H2524   0.951   .     S
C2523  C2525   1.376   1_556 S
C2525  H2526   0.950   .     S
C2525  C2527   1.407   .     S
C2525  C2523   1.376   1_554 S
C2527  H2528   0.950   .     S
C2527  N2548   1.341   .     D
C2529  H2530   0.946   .     S
C2529  N2548   1.331   1_556 S
C2531  N2549   1.148   .     D
C2531  S2553   1.621   .     D
C2532  H2533   0.949   .     S
C2532  C2534   1.358   .     D
C2532  N2550   1.363   .     S
C2534  H2535   0.948   .     S
C2534  C2536   1.405   .     S
C2536  H2537   0.948   .     S
C2536  C2538   1.396   .     D
C2538  C2539   1.384   .     S
C2538  C2541   1.482   .     S
C2539  H2540   0.949   .     S
C2539  N2550   1.353   .     D
C2541  N2551   1.322   .     S
C2541  N2896   1.358   .     D
N2542  Co3334  2.084   1_556 S
N2543  Co3316  2.217   .     S
N2544  Co3334  2.212   1_556 D
N2548  Co3355  2.178   .     S
N2548  C2529   1.331   1_554 S
N2549  Co3355  2.083   1_556 S
N2550  Co3355  2.181   1_556 S
N2551  C3300   1.358   .     D
C2569  H2570   0.948   .     S
C2569  C2571   1.371   .     D
C2569  N2612   1.341   .     S
C2571  H2572   0.951   .     S
C2571  C2573   1.404   .     S
C2573  H2574   0.951   .     S
C2573  C2575   1.396   .     D
C2575  C2576   1.392   .     S
C2575  C2590   1.477   .     S
C2576  H2577   0.950   .     S
C2576  N2612   1.337   .     D
C2578  N2611   1.176   .     D
C2578  S2621   1.621   .     D
C2579  H2580   0.946   .     S
C2579  C2581   1.388   .     D
C2579  N2613   1.351   .     S
C2581  C2582   1.407   .     S
C2581  C2588   1.478   .     S
C2582  H2583   0.953   .     S
C2582  C2584   1.378   .     D
C2584  H2585   0.950   .     S
C2584  C2586   1.393   .     S
C2586  H2587   0.949   .     S
C2586  N2613   1.330   .     D
C2588  N2614   1.335   .     D
C2588  N2616   1.345   .     S
C2589  C2591   1.473   .     S
C2589  N2615   1.338   .     S
C2589  N2616   1.344   .     D
C2590  N2614   1.339   .     S
C2590  N2615   1.348   .     D
C2591  C2592   1.401   .     S
C2591  C2598   1.399   .     D
C2592  H2593   0.951   .     S
C2592  C2594   1.376   .     D
C2594  H2595   0.950   .     S
C2594  C2596   1.407   .     S
C2596  H2597   0.950   .     S
C2596  N2617   1.341   .     D
C2598  H2599   0.946   .     S
C2598  N2617   1.331   .     S
C2600  N2618   1.148   .     D
C2600  S2622   1.621   .     D
C2601  H2602   0.949   .     S
C2601  C2603   1.358   .     D
C2601  N2619   1.363   .     S
C2603  H2604   0.948   .     S
C2603  C2605   1.405   .     S
C2605  H2606   0.948   .     S
C2605  C2607   1.396   1_554 D
C2607  C2608   1.384   .     S
C2607  C2610   1.482   .     S
C2607  C2605   1.396   1_556 D
C2608  H2609   0.949   .     S
C2608  N2619   1.353   1_556 D
C2610  N2620   1.322   .     S
C2610  N3034   1.358   .     D
N2611  Co3335  2.084   .     S
N2612  Co3315  2.217   .     S
N2613  Co3335  2.212   .     S
N2617  Co3355  2.178   .     S
N2618  Co3355  2.083   .     S
N2619  Co3355  2.181   .     S
N2619  C2608   1.353   1_554 D
N2620  C3093   1.358   .     D
C2638  H2639   0.948   .     S
C2638  C2640   1.371   .     S
C2638  N2681   1.341   .     D
C2640  H2641   0.951   .     S
C2640  C2642   1.404   .     D
C2642  H2643   0.951   .     S
C2642  C2644   1.396   .     S
C2644  C2645   1.392   .     D
C2644  C2659   1.477   .     S
C2645  H2646   0.950   .     S
C2645  N2681   1.337   .     S
C2647  N2680   1.176   .     D
C2647  S2690   1.622   .     D
C2648  H2649   0.946   .     S
C2648  C2650   1.388   .     D
C2648  N2682   1.351   .     S
C2650  C2651   1.407   .     S
C2650  C2657   1.478   .     S
C2651  H2652   0.953   .     S
C2651  C2653   1.378   .     D
C2653  H2654   0.950   .     S
C2653  C2655   1.393   .     S
C2655  H2656   0.949   .     S
C2655  N2682   1.330   .     D
C2657  N2683   1.335   .     S
C2657  N2685   1.345   .     D
C2658  C2660   1.473   .     S
C2658  N2684   1.338   .     D
C2658  N2685   1.344   .     S
C2659  N2683   1.339   .     D
C2659  N2684   1.348   .     S
C2660  C2661   1.401   .     S
C2660  C2667   1.399   .     D
C2661  H2662   0.951   .     S
C2661  C2663   1.376   1_565 D
C2663  H2664   0.950   .     S
C2663  C2665   1.407   .     S
C2663  C2661   1.376   1_545 D
C2665  H2666   0.950   .     S
C2665  N2686   1.341   .     D
C2667  H2668   0.946   .     S
C2667  N2686   1.331   1_565 S
C2669  N2687   1.148   .     D
C2669  S2691   1.621   .     D
C2670  H2671   0.949   .     S
C2670  C2672   1.358   .     D
C2670  N2688   1.363   .     S
C2672  H2673   0.948   .     S
C2672  C2674   1.405   .     S
C2674  H2675   0.948   .     S
C2674  C2676   1.396   1_455 S
C2676  C2677   1.384   .     S
C2676  C2679   1.482   .     S
C2676  C2674   1.396   1_655 S
C2677  H2678   0.949   .     S
C2677  N2688   1.353   1_655 D
C2679  N2689   1.322   .     S
C2679  N2965   1.358   .     D
N2680  Co3336  2.084   1_565 S
N2681  Co3313  2.217   .     S
N2682  Co3336  2.212   1_565 S
N2686  Co3356  2.178   .     S
N2686  C2667   1.331   1_545 S
N2687  Co3356  2.083   1_565 D
N2688  C2677   1.353   1_455 D
N2688  Co3356  2.181   1_565 S
N2689  C3231   1.358   .     D
C2707  H2708   0.948   .     S
C2707  C2709   1.371   .     D
C2707  N2750   1.341   .     S
C2709  H2710   0.951   .     S
C2709  C2711   1.404   .     S
C2711  H2712   0.951   .     S
C2711  C2713   1.396   .     D
C2713  C2714   1.392   .     S
C2713  C2728   1.477   .     S
C2714  H2715   0.950   .     S
C2714  N2750   1.337   .     D
C2716  N2749   1.176   .     D
C2716  S2759   1.621   .     D
C2717  H2718   0.946   .     S
C2717  C2719   1.388   .     D
C2717  N2751   1.351   .     S
C2719  C2720   1.407   .     S
C2719  C2726   1.478   .     S
C2720  H2721   0.953   .     S
C2720  C2722   1.378   .     D
C2722  H2723   0.950   .     S
C2722  C2724   1.393   .     S
C2724  H2725   0.949   .     S
C2724  N2751   1.330   .     D
C2726  N2752   1.335   .     D
C2726  N2754   1.345   .     S
C2727  C2729   1.473   .     S
C2727  N2753   1.338   .     S
C2727  N2754   1.344   .     D
C2728  N2752   1.339   .     S
C2728  N2753   1.348   .     D
C2729  C2730   1.401   .     S
C2729  C2736   1.399   .     D
C2730  H2731   0.951   .     S
C2730  C2732   1.376   1_655 S
C2732  H2733   0.950   .     S
C2732  C2734   1.407   .     S
C2732  C2730   1.376   1_455 S
C2734  H2735   0.950   .     S
C2734  N2755   1.341   .     D
C2736  H2737   0.946   .     S
C2736  N2755   1.331   1_655 D
C2738  N2756   1.148   .     D
C2738  S2760   1.621   .     D
C2739  H2740   0.949   .     S
C2739  C2741   1.358   .     D
C2739  N2757   1.363   .     S
C2741  H2742   0.948   .     S
C2741  C2743   1.405   .     S
C2743  H2744   0.948   .     S
C2743  C2745   1.396   1_545 S
C2745  C2746   1.384   .     S
C2745  C2748   1.482   .     S
C2745  C2743   1.396   1_565 S
C2746  H2747   0.949   .     S
C2746  N2757   1.353   1_565 S
C2748  N2758   1.322   .     S
C2748  N2827   1.358   .     D
N2749  Co3333  2.084   1_655 D
N2750  Co3314  2.217   .     S
N2751  Co3333  2.212   1_655 S
N2755  Co3356  2.178   .     S
N2755  C2736   1.331   1_455 D
N2756  Co3356  2.083   1_655 S
N2757  C2746   1.353   1_545 S
N2757  Co3356  2.181   1_655 S
N2758  C3162   1.358   .     D
C2776  H2777   0.948   .     S
C2776  C2778   1.371   .     D
C2776  N2819   1.341   .     S
C2778  H2779   0.951   .     S
C2778  C2780   1.404   .     S
C2780  H2781   0.951   .     S
C2780  C2782   1.396   .     D
C2782  C2783   1.392   .     S
C2782  C2797   1.477   .     S
C2783  H2784   0.950   .     S
C2783  N2819   1.337   .     D
C2785  N2818   1.176   .     D
C2785  S2828   1.621   .     D
C2786  H2787   0.946   .     S
C2786  C2788   1.388   .     D
C2786  N2820   1.351   .     S
C2788  C2789   1.407   .     S
C2788  C2795   1.478   .     S
C2789  H2790   0.953   .     S
C2789  C2791   1.378   .     D
C2791  H2792   0.950   .     S
C2791  C2793   1.393   .     S
C2793  H2794   0.949   .     S
C2793  N2820   1.330   .     D
C2795  N2821   1.335   .     D
C2795  N2823   1.345   .     S
C2796  C2798   1.473   .     S
C2796  N2822   1.338   .     S
C2796  N2823   1.344   .     D
C2797  N2821   1.339   .     S
C2797  N2822   1.348   .     D
C2798  C2799   1.401   .     S
C2798  C2805   1.399   .     D
C2799  H2800   0.951   .     S
C2799  C2801   1.376   1_556 D
C2801  H2802   0.950   .     S
C2801  C2803   1.407   .     S
C2801  C2799   1.376   1_554 D
C2803  H2804   0.950   .     S
C2803  N2824   1.341   .     D
C2805  H2806   0.946   .     S
C2805  N2824   1.331   1_556 S
C2807  N2825   1.148   .     D
C2807  S2829   1.621   .     D
C2808  H2809   0.949   .     S
C2808  C2810   1.358   .     D
C2808  N2826   1.363   .     S
C2810  H2811   0.948   .     S
C2810  C2812   1.405   .     S
C2812  H2813   0.948   .     S
C2812  C2814   1.396   1_455 D
C2814  C2815   1.384   .     S
C2814  C2817   1.482   .     S
C2814  C2812   1.396   1_655 D
C2815  H2816   0.949   .     S
C2815  N2826   1.353   1_655 S
C2817  N2827   1.322   .     S
C2817  N3172   1.358   .     D
N2818  Co3329  2.084   1_556 D
N2819  Co3322  2.217   .     S
N2820  Co3329  2.212   1_556 S
N2824  Co3357  2.178   .     S
N2824  C2805   1.331   1_554 S
N2825  Co3357  2.083   1_556 S
N2826  C2815   1.353   1_455 S
N2826  Co3357  2.181   1_556 D
C2845  H2846   0.948   .     S
C2845  C2847   1.371   .     S
C2845  N2888   1.341   .     D
C2847  H2848   0.951   .     S
C2847  C2849   1.404   .     D
C2849  H2850   0.951   .     S
C2849  C2851   1.396   .     S
C2851  C2852   1.392   .     D
C2851  C2866   1.477   .     S
C2852  H2853   0.950   .     S
C2852  N2888   1.337   .     S
C2854  N2887   1.176   .     D
C2854  S2897   1.622   .     D
C2855  H2856   0.946   .     S
C2855  C2857   1.388   .     D
C2855  N2889   1.351   .     S
C2857  C2858   1.407   .     S
C2857  C2864   1.478   .     S
C2858  H2859   0.953   .     S
C2858  C2860   1.378   .     D
C2860  H2861   0.950   .     S
C2860  C2862   1.393   .     S
C2862  H2863   0.949   .     S
C2862  N2889   1.330   .     D
C2864  N2890   1.335   .     D
C2864  N2892   1.345   .     S
C2865  C2867   1.473   .     S
C2865  N2891   1.338   .     S
C2865  N2892   1.344   .     D
C2866  N2890   1.339   .     S
C2866  N2891   1.348   .     D
C2867  C2868   1.401   .     S
C2867  C2874   1.399   .     D
C2868  H2869   0.951   .     S
C2868  C2870   1.376   1_655 S
C2870  H2871   0.950   .     S
C2870  C2872   1.407   .     S
C2870  C2868   1.376   1_455 S
C2872  H2873   0.950   .     S
C2872  N2893   1.341   .     D
C2874  H2875   0.946   .     S
C2874  N2893   1.331   1_655 S
C2876  N2894   1.148   .     D
C2876  S2898   1.621   .     D
C2877  H2878   0.949   .     S
C2877  C2879   1.358   .     D
C2877  N2895   1.363   .     S
C2879  H2880   0.948   .     S
C2879  C2881   1.405   .     S
C2881  H2882   0.948   .     S
C2881  C2883   1.396   1_554 D
C2883  C2884   1.384   .     S
C2883  C2886   1.482   .     S
C2883  C2881   1.396   1_556 D
C2884  H2885   0.949   .     S
C2884  N2895   1.353   1_556 D
C2886  N2896   1.322   .     S
C2886  N3310   1.358   .     D
N2887  Co3332  2.084   1_655 S
N2888  Co3321  2.217   .     S
N2889  Co3332  2.212   1_655 S
N2893  Co3357  2.178   .     S
N2893  C2874   1.331   1_455 S
N2894  Co3357  2.083   1_655 S
N2895  C2884   1.353   1_554 D
N2895  Co3357  2.181   1_655 S
C2914  H2915   0.948   .     S
C2914  C2916   1.371   .     D
C2914  N2957   1.341   .     S
C2916  H2917   0.951   .     S
C2916  C2918   1.404   .     S
C2918  H2919   0.951   .     S
C2918  C2920   1.396   .     D
C2920  C2921   1.392   .     S
C2920  C2935   1.477   .     S
C2921  H2922   0.950   .     S
C2921  N2957   1.337   .     D
C2923  N2956   1.176   .     D
C2923  S2966   1.621   .     D
C2924  H2925   0.946   .     S
C2924  C2926   1.388   .     D
C2924  N2958   1.351   .     S
C2926  C2927   1.407   .     S
C2926  C2933   1.478   .     S
C2927  H2928   0.953   .     S
C2927  C2929   1.378   .     D
C2929  H2930   0.950   .     S
C2929  C2931   1.393   .     S
C2931  H2932   0.949   .     S
C2931  N2958   1.330   .     D
C2933  N2959   1.335   .     D
C2933  N2961   1.345   .     S
C2934  C2936   1.473   .     S
C2934  N2960   1.338   .     S
C2934  N2961   1.344   .     D
C2935  N2959   1.339   .     S
C2935  N2960   1.348   .     D
C2936  C2937   1.401   .     S
C2936  C2943   1.399   .     D
C2937  H2938   0.951   .     S
C2937  C2939   1.376   .     D
C2939  H2940   0.950   .     S
C2939  C2941   1.407   .     S
C2941  H2942   0.950   .     S
C2941  N2962   1.341   .     D
C2943  H2944   0.946   .     S
C2943  N2962   1.331   .     S
C2945  N2963   1.148   .     D
C2945  S2967   1.621   .     D
C2946  H2947   0.949   .     S
C2946  C2948   1.358   .     D
C2946  N2964   1.363   .     S
C2948  H2949   0.948   .     S
C2948  C2950   1.405   .     S
C2950  H2951   0.948   .     S
C2950  C2952   1.396   1_545 D
C2952  C2953   1.384   .     S
C2952  C2955   1.482   .     S
C2952  C2950   1.396   1_565 D
C2953  H2954   0.949   .     S
C2953  N2964   1.353   1_565 S
C2955  N2965   1.322   .     S
C2955  N3241   1.358   .     D
N2956  Co3331  2.084   .     S
N2957  Co3323  2.217   .     S
N2958  Co3331  2.212   .     S
N2962  Co3358  2.178   .     S
N2963  Co3358  2.083   .     S
N2964  Co3358  2.181   .     S
N2964  C2953   1.353   1_545 S
C2983  H2984   0.948   .     S
C2983  C2985   1.371   .     D
C2983  N3026   1.341   .     S
C2985  H2986   0.951   .     S
C2985  C2987   1.404   .     S
C2987  H2988   0.951   .     S
C2987  C2989   1.396   .     D
C2989  C2990   1.392   .     S
C2989  C3004   1.477   .     S
C2990  H2991   0.950   .     S
C2990  N3026   1.337   .     D
C2992  N3025   1.176   .     D
C2992  S3035   1.621   .     D
C2993  H2994   0.946   .     S
C2993  C2995   1.388   .     D
C2993  N3027   1.351   .     S
C2995  C2996   1.407   .     S
C2995  C3002   1.478   .     S
C2996  H2997   0.953   .     S
C2996  C2998   1.378   .     D
C2998  H2999   0.950   .     S
C2998  C3000   1.393   .     S
C3000  H3001   0.949   .     S
C3000  N3027   1.330   .     D
C3002  N3028   1.335   .     D
C3002  N3030   1.345   .     S
C3003  C3005   1.473   .     S
C3003  N3029   1.338   .     S
C3003  N3030   1.344   .     D
C3004  N3028   1.339   .     S
C3004  N3029   1.348   .     D
C3005  C3006   1.401   .     S
C3005  C3012   1.399   .     D
C3006  H3007   0.951   .     S
C3006  C3008   1.376   1_565 S
C3008  H3009   0.950   .     S
C3008  C3010   1.407   .     S
C3008  C3006   1.376   1_545 S
C3010  H3011   0.950   .     S
C3010  N3031   1.341   .     D
C3012  H3013   0.946   .     S
C3012  N3031   1.331   1_565 S
C3014  N3032   1.148   .     D
C3014  S3036   1.621   .     D
C3015  H3016   0.949   .     S
C3015  C3017   1.358   .     D
C3015  N3033   1.363   .     S
C3017  H3018   0.948   .     S
C3017  C3019   1.405   .     S
C3019  H3020   0.948   .     S
C3019  C3021   1.396   .     D
C3021  C3022   1.384   .     S
C3021  C3024   1.482   .     S
C3022  H3023   0.949   .     S
C3022  N3033   1.353   .     D
C3024  N3034   1.322   .     S
C3024  N3103   1.358   .     D
N3025  Co3330  2.084   1_565 S
N3026  Co3324  2.217   .     S
N3027  Co3330  2.212   1_565 D
N3031  Co3358  2.178   .     S
N3031  C3012   1.331   1_545 S
N3032  Co3358  2.083   1_565 S
N3033  Co3358  2.181   1_565 S
C3052  H3053   0.948   .     S
C3052  C3054   1.371   .     D
C3052  N3095   1.341   .     S
C3054  H3055   0.951   .     S
C3054  C3056   1.404   .     S
C3056  H3057   0.951   .     S
C3056  C3058   1.396   .     D
C3058  C3059   1.392   .     S
C3058  C3073   1.477   .     S
C3059  H3060   0.950   .     S
C3059  N3095   1.337   .     D
C3061  N3094   1.176   .     D
C3061  S3104   1.622   .     D
C3062  H3063   0.946   .     S
C3062  C3064   1.388   .     D
C3062  N3096   1.351   .     S
C3064  C3065   1.407   .     S
C3064  C3071   1.478   .     S
C3065  H3066   0.953   .     S
C3065  C3067   1.378   .     D
C3067  H3068   0.950   .     S
C3067  C3069   1.393   .     S
C3069  H3070   0.949   .     S
C3069  N3096   1.330   .     D
C3071  N3097   1.335   .     D
C3071  N3099   1.345   .     S
C3072  C3074   1.473   .     S
C3072  N3098   1.338   .     S
C3072  N3099   1.344   .     D
C3073  N3097   1.339   .     S
C3073  N3098   1.348   .     D
C3074  C3075   1.401   .     S
C3074  C3081   1.399   .     D
C3075  H3076   0.951   .     S
C3075  C3077   1.376   1_556 D
C3077  H3078   0.950   .     S
C3077  C3079   1.407   .     S
C3077  C3075   1.376   1_554 D
C3079  H3080   0.950   .     S
C3079  N3100   1.341   .     D
C3081  H3082   0.946   .     S
C3081  N3100   1.331   1_556 S
C3083  N3101   1.148   .     D
C3083  S3105   1.621   .     D
C3084  H3085   0.949   .     S
C3084  C3086   1.358   .     D
C3084  N3102   1.363   .     S
C3086  H3087   0.948   .     S
C3086  C3088   1.405   .     S
C3088  H3089   0.948   .     S
C3088  C3090   1.396   1_545 D
C3090  C3091   1.384   .     S
C3090  C3093   1.482   .     S
C3090  C3088   1.396   1_565 D
C3091  H3092   0.949   .     S
C3091  N3102   1.353   1_565 S
C3093  N3103   1.322   .     S
N3094  Co3328  2.084   1_556 S
N3095  Co3317  2.217   .     S
N3096  Co3328  2.212   1_556 S
N3100  Co3359  2.178   .     S
N3100  C3081   1.331   1_554 S
N3101  Co3359  2.083   1_556 S
N3102  C3091   1.353   1_545 S
N3102  Co3359  2.181   1_556 S
C3121  H3122   0.948   .     S
C3121  C3123   1.371   .     D
C3121  N3164   1.341   .     S
C3123  H3124   0.951   .     S
C3123  C3125   1.404   .     S
C3125  H3126   0.951   .     S
C3125  C3127   1.396   .     D
C3127  C3128   1.392   .     S
C3127  C3142   1.477   .     S
C3128  H3129   0.950   .     S
C3128  N3164   1.337   .     D
C3130  N3163   1.176   .     D
C3130  S3173   1.621   .     D
C3131  H3132   0.946   .     S
C3131  C3133   1.388   .     D
C3131  N3165   1.351   .     S
C3133  C3134   1.407   .     S
C3133  C3140   1.478   .     S
C3134  H3135   0.953   .     S
C3134  C3136   1.378   .     D
C3136  H3137   0.950   .     S
C3136  C3138   1.393   .     S
C3138  H3139   0.949   .     S
C3138  N3165   1.330   .     D
C3140  N3166   1.335   .     D
C3140  N3168   1.345   .     S
C3141  C3143   1.473   .     S
C3141  N3167   1.338   .     S
C3141  N3168   1.344   .     D
C3142  N3166   1.339   .     S
C3142  N3167   1.348   .     D
C3143  C3144   1.401   .     S
C3143  C3150   1.399   .     D
C3144  H3145   0.951   .     S
C3144  C3146   1.376   1_565 D
C3146  H3147   0.950   .     S
C3146  C3148   1.407   .     S
C3146  C3144   1.376   1_545 D
C3148  H3149   0.950   .     S
C3148  N3169   1.341   .     D
C3150  H3151   0.946   .     S
C3150  N3169   1.331   1_565 S
C3152  N3170   1.148   .     D
C3152  S3174   1.621   .     D
C3153  H3154   0.949   .     S
C3153  C3155   1.358   .     D
C3153  N3171   1.363   .     S
C3155  H3156   0.948   .     S
C3155  C3157   1.405   .     S
C3157  H3158   0.948   .     S
C3157  C3159   1.396   1_554 S
C3159  C3160   1.384   .     S
C3159  C3162   1.482   .     S
C3159  C3157   1.396   1_556 S
C3160  H3161   0.949   .     S
C3160  N3171   1.353   1_556 D
C3162  N3172   1.322   .     S
N3163  Co3325  2.084   1_565 S
N3164  Co3318  2.217   .     S
N3165  Co3325  2.212   1_565 D
N3169  Co3359  2.178   .     S
N3169  C3150   1.331   1_545 S
N3170  Co3359  2.083   1_565 D
N3171  C3160   1.353   1_554 D
N3171  Co3359  2.181   1_565 D
C3190  H3191   0.948   .     S
C3190  C3192   1.371   .     D
C3190  N3233   1.341   .     S
C3192  H3193   0.951   .     S
C3192  C3194   1.404   .     S
C3194  H3195   0.951   .     S
C3194  C3196   1.396   .     D
C3196  C3197   1.392   .     S
C3196  C3211   1.477   .     S
C3197  H3198   0.950   .     S
C3197  N3233   1.337   .     D
C3199  N3232   1.176   .     D
C3199  S3242   1.621   .     D
C3200  H3201   0.946   .     S
C3200  C3202   1.388   .     D
C3200  N3234   1.351   .     S
C3202  C3203   1.407   .     S
C3202  C3209   1.478   .     S
C3203  H3204   0.953   .     S
C3203  C3205   1.378   .     D
C3205  H3206   0.950   .     S
C3205  C3207   1.393   .     S
C3207  H3208   0.949   .     S
C3207  N3234   1.330   .     D
C3209  N3235   1.335   .     D
C3209  N3237   1.345   .     S
C3210  C3212   1.473   .     S
C3210  N3236   1.338   .     S
C3210  N3237   1.344   .     D
C3211  N3235   1.339   .     S
C3211  N3236   1.348   .     D
C3212  C3213   1.401   .     S
C3212  C3219   1.399   .     D
C3213  H3214   0.951   .     S
C3213  C3215   1.376   1_655 S
C3215  H3216   0.950   .     S
C3215  C3217   1.407   .     S
C3215  C3213   1.376   1_455 S
C3217  H3218   0.950   .     S
C3217  N3238   1.341   .     D
C3219  H3220   0.946   .     S
C3219  N3238   1.331   1_655 S
C3221  N3239   1.148   .     D
C3221  S3243   1.621   .     D
C3222  H3223   0.949   .     S
C3222  C3224   1.358   .     S
C3222  N3240   1.363   .     D
C3224  H3225   0.948   .     S
C3224  C3226   1.405   .     D
C3226  H3227   0.948   .     S
C3226  C3228   1.396   .     S
C3228  C3229   1.384   .     D
C3228  C3231   1.482   .     S
C3229  H3230   0.949   .     S
C3229  N3240   1.353   .     S
C3231  N3241   1.322   .     S
N3232  Co3326  2.084   1_655 D
N3233  Co3320  2.217   .     S
N3234  Co3326  2.212   1_655 S
N3238  Co3360  2.178   .     S
N3238  C3219   1.331   1_455 S
N3239  Co3360  2.083   1_655 D
N3240  Co3360  2.181   1_655 D
C3259  H3260   0.948   .     S
C3259  C3261   1.371   .     D
C3259  N3302   1.341   .     S
C3261  H3262   0.951   .     S
C3261  C3263   1.404   .     S
C3263  H3264   0.951   .     S
C3263  C3265   1.396   .     D
C3265  C3266   1.392   .     S
C3265  C3280   1.477   .     S
C3266  H3267   0.950   .     S
C3266  N3302   1.337   .     D
C3268  N3301   1.176   .     D
C3268  S3311   1.621   .     D
C3269  H3270   0.946   .     S
C3269  C3271   1.388   .     D
C3269  N3303   1.351   .     S
C3271  C3272   1.407   .     S
C3271  C3278   1.478   .     S
C3272  H3273   0.953   .     S
C3272  C3274   1.378   .     D
C3274  H3275   0.950   .     S
C3274  C3276   1.393   .     S
C3276  H3277   0.949   .     S
C3276  N3303   1.330   .     D
C3278  N3304   1.335   .     D
C3278  N3306   1.345   .     S
C3279  C3281   1.473   .     S
C3279  N3305   1.338   .     S
C3279  N3306   1.344   .     D
C3280  N3304   1.339   .     S
C3280  N3305   1.348   .     D
C3281  C3282   1.401   .     S
C3281  C3288   1.399   .     D
C3282  H3283   0.951   .     S
C3282  C3284   1.376   .     D
C3284  H3285   0.950   .     S
C3284  C3286   1.407   .     S
C3286  H3287   0.950   .     S
C3286  N3307   1.341   .     D
C3288  H3289   0.946   .     S
C3288  N3307   1.331   .     S
C3290  N3308   1.148   .     D
C3290  S3312   1.621   .     D
C3291  H3292   0.949   .     S
C3291  C3293   1.358   .     D
C3291  N3309   1.363   .     S
C3293  H3294   0.948   .     S
C3293  C3295   1.405   .     S
C3295  H3296   0.948   .     S
C3295  C3297   1.396   1_455 S
C3297  C3298   1.384   .     S
C3297  C3300   1.482   .     S
C3297  C3295   1.396   1_655 S
C3298  H3299   0.949   .     S
C3298  N3309   1.353   1_655 S
C3300  N3310   1.322   .     S
N3301  Co3327  2.084   .     S
N3302  Co3319  2.217   .     S
N3303  Co3327  2.212   .     S
N3307  Co3360  2.178   .     S
N3308  Co3360  2.083   .     S
N3309  Co3360  2.181   .     S
N3309  C3298   1.353   1_455 S
Co3313 N60     2.212   1_565 S
Co3313 N1507   2.084   1_565 S
Co3313 N1509   2.212   1_565 D
Co3314 N129    2.212   1_655 S
Co3314 N1576   2.084   1_655 S
Co3314 N1578   2.212   1_655 S
Co3316 N267    2.212   1_556 D
Co3316 N1438   2.084   1_556 S
Co3316 N1440   2.212   1_556 S
Co3317 N336    2.212   1_556 S
Co3317 N1162   2.084   1_556 S
Co3317 N1164   2.212   1_556 S
Co3318 N405    2.212   1_565 D
Co3318 N1369   2.084   1_565 D
Co3318 N1371   2.212   1_565 S
Co3320 N543    2.212   1_655 S
Co3320 N1231   2.084   1_655 S
Co3320 N1233   2.212   1_655 D
Co3321 N612    2.212   1_655 S
Co3321 N1093   2.084   1_655 S
Co3321 N1095   2.212   1_655 S
Co3322 N681    2.212   1_556 D
Co3322 N886    2.084   1_556 D
Co3322 N888    2.212   1_556 S
Co3324 N819    2.212   1_565 S
Co3324 N1024   2.084   1_565 D
Co3324 N1026   2.212   1_565 S
Co3325 N1716   2.212   1_545 D
Co3325 N3163   2.084   1_545 S
Co3325 N3165   2.212   1_545 D
Co3326 N1785   2.212   1_455 S
Co3326 N3232   2.084   1_455 D
Co3326 N3234   2.212   1_455 S
Co3328 N1923   2.212   1_554 S
Co3328 N3094   2.084   1_554 S
Co3328 N3096   2.212   1_554 S
Co3329 N1992   2.212   1_554 S
Co3329 N2818   2.084   1_554 D
Co3329 N2820   2.212   1_554 S
Co3330 N2061   2.212   1_545 S
Co3330 N3025   2.084   1_545 S
Co3330 N3027   2.212   1_545 D
Co3332 N2199   2.212   1_455 S
Co3332 N2887   2.084   1_455 S
Co3332 N2889   2.212   1_455 S
Co3333 N2268   2.212   1_455 D
Co3333 N2749   2.084   1_455 D
Co3333 N2751   2.212   1_455 S
Co3334 N2337   2.212   1_554 S
Co3334 N2542   2.084   1_554 S
Co3334 N2544   2.212   1_554 D
Co3336 N2475   2.212   1_545 D
Co3336 N2680   2.084   1_545 S
Co3336 N2682   2.212   1_545 S
Co3343 N893    2.083   1_556 S
Co3343 N894    2.181   1_556 S
Co3344 N1031   2.083   1_565 S
Co3344 N1032   2.181   1_565 D
Co3344 N1100   2.083   1_655 D
Co3344 N1101   2.181   1_655 D
Co3345 N1169   2.083   1_556 S
Co3345 N1170   2.181   1_556 S
Co3345 N1238   2.083   1_655 D
Co3345 N1239   2.181   1_655 S
Co3346 N1376   2.083   1_565 S
Co3346 N1377   2.181   1_565 S
Co3347 N1445   2.083   1_556 D
Co3347 N1446   2.181   1_556 D
Co3347 N1514   2.083   1_565 S
Co3347 N1515   2.181   1_565 D
Co3348 N1583   2.083   1_655 D
Co3348 N1584   2.181   1_655 S
Co3355 N2549   2.083   1_554 S
Co3355 N2550   2.181   1_554 S
Co3356 N2687   2.083   1_545 D
Co3356 N2688   2.181   1_545 S
Co3356 N2756   2.083   1_455 S
Co3356 N2757   2.181   1_455 S
Co3357 N2825   2.083   1_554 S
Co3357 N2826   2.181   1_554 D
Co3357 N2894   2.083   1_455 S
Co3357 N2895   2.181   1_455 S
Co3358 N3032   2.083   1_545 S
Co3358 N3033   2.181   1_545 S
Co3359 N3101   2.083   1_554 S
Co3359 N3102   2.181   1_554 S
Co3359 N3170   2.083   1_545 D
Co3359 N3171   2.181   1_545 D
Co3360 N3239   2.083   1_455 D
Co3360 N3240   2.181   1_455 D
