data_image0
_cell_length_a       27.774
_cell_length_b       13.8933
_cell_length_c       44.585
_cell_angle_alpha    90
_cell_angle_beta     90
_cell_angle_gamma    90

_symmetry_space_group_name_H-M    "P 1"
_symmetry_int_tables_number       1

loop_
  _symmetry_equiv_pos_as_xyz
  'x, y, z'

loop_
  _atom_site_label
  _atom_site_occupancy
  _atom_site_fract_x
  _atom_site_fract_y
  _atom_site_fract_z
  _atom_site_thermal_displace_type
  _atom_site_B_iso_or_equiv
  _atom_site_type_symbol
  Zn1      1.0000 0.25844  0.32326  0.18005  Biso   1.000  Zn
  Zn2      1.0000 0.52501  0.62037  0.41474  Biso   1.000  Zn
  Zn3      1.0000 0.04854  0.64696  0.41340  Biso   1.000  Zn
  I1       1.0000 0.16846  0.32309  0.16770  Biso   1.000  I
  I2       1.0000 0.30023  0.16057  0.18576  Biso   1.000  I
  I3       1.0000 0.57558  0.70797  0.37588  Biso   1.000  I
  I4       1.0000 0.50552  0.69580  0.46582  Biso   1.000  I
  I5       1.0000 0.98311  0.56306  0.38314  Biso   1.000  I
  I6       1.0000 0.05705  0.82852  0.42067  Biso   1.000  I
  C1       1.0000 0.23180  0.43770  0.23299  Biso   1.000  C
  H1       1.0000 0.20140  0.43860  0.22320  Biso   1.000  H
  C2       1.0000 0.23560  0.47520  0.26143  Biso   1.000  C
  H2       1.0000 0.20790  0.49980  0.27130  Biso   1.000  H
  C3       1.0000 0.28020  0.47680  0.27561  Biso   1.000  C
  C4       1.0000 0.31960  0.44330  0.26000  Biso   1.000  C
  H3       1.0000 0.35090  0.44650  0.26850  Biso   1.000  H
  C5       1.0000 0.31260  0.40470  0.23170  Biso   1.000  C
  H4       1.0000 0.33960  0.38040  0.22110  Biso   1.000  H
  C6       1.0000 0.45950  0.56490  0.36444  Biso   1.000  C
  H5       1.0000 0.48910  0.55930  0.35390  Biso   1.000  H
  C7       1.0000 0.41760  0.54920  0.34930  Biso   1.000  C
  H6       1.0000 0.41860  0.53120  0.32880  Biso   1.000  H
  C8       1.0000 0.37320  0.55940  0.36376  Biso   1.000  C
  C9       1.0000 0.37520  0.58170  0.39400  Biso   1.000  C
  H7       1.0000 0.34620  0.58730  0.40520  Biso   1.000  H
  C10      1.0000 0.41880  0.59600  0.40824  Biso   1.000  C
  H8       1.0000 0.41890  0.61200  0.42900  Biso   1.000  H
  C11      1.0000 0.15530  0.61500  0.40908  Biso   1.000  C
  H9       1.0000 0.15500  0.63750  0.42920  Biso   1.000  H
  C12      1.0000 0.19870  0.59640  0.39592  Biso   1.000  C
  H10      1.0000 0.22770  0.60300  0.40710  Biso   1.000  H
  C13      1.0000 0.20020  0.56780  0.36629  Biso   1.000  C
  C14      1.0000 0.15630  0.55510  0.35135  Biso   1.000  C
  H11      1.0000 0.15550  0.53440  0.33100  Biso   1.000  H
  C15      1.0000 0.11450  0.57300  0.36660  Biso   1.000  C
  H12      1.0000 0.08480  0.56350  0.35640  Biso   1.000  H
  C16      1.0000 0.28430  0.50960  0.30744  Biso   1.000  C
  C17      1.0000 0.32760  0.54710  0.34845  Biso   1.000  C
  C18      1.0000 0.24570  0.55130  0.35017  Biso   1.000  C
  C19      1.0000 0.04410  0.49000  0.45870  Biso   1.000  C
  H13      1.0000 0.02950  0.45570  0.44270  Biso   1.000  H
  C20      1.0000 0.05580  0.44190  0.48510  Biso   1.000  C
  H14      1.0000 0.04930  0.37510  0.48700  Biso   1.000  H
  C21      1.0000 0.07660  0.49030  0.50806  Biso   1.000  C
  C22      1.0000 0.08390  0.58920  0.50540  Biso   1.000  C
  H15      1.0000 0.09700  0.62550  0.52150  Biso   1.000  H
  C23      1.0000 0.07170  0.63210  0.47900  Biso   1.000  C
  H16      1.0000 0.07660  0.69960  0.47720  Biso   1.000  H
  C24      1.0000 0.18890  0.63890  0.62400  Biso   1.000  C
  H17      1.0000 0.19270  0.70660  0.62220  Biso   1.000  H
  C25      1.0000 0.16670  0.59090  0.60090  Biso   1.000  C
  H18      1.0000 0.15720  0.62390  0.58320  Biso   1.000  H
  C26      1.0000 0.15850  0.49330  0.60404  Biso   1.000  C
  C27      1.0000 0.17290  0.44970  0.62950  Biso   1.000  C
  H19      1.0000 0.16720  0.38300  0.63260  Biso   1.000  H
  C28      1.0000 0.19640  0.50430  0.65119  Biso   1.000  C
  H20      1.0000 0.20650  0.47270  0.66900  Biso   1.000  H
  C29      1.0000 0.07360  0.06490  0.59980  Biso   1.000  C
  H21      1.0000 0.07610  0.03640  0.61910  Biso   1.000  H
  C30      1.0000 0.08920  0.15870  0.59580  Biso   1.000  C
  H22      1.0000 0.10250  0.19390  0.61210  Biso   1.000  H
  C31      1.0000 0.08510  0.20030  0.56790  Biso   1.000  C
  C32      1.0000 0.06530  0.14760  0.54440  Biso   1.000  C
  H23      1.0000 0.06180  0.17530  0.52500  Biso   1.000  H
  C33      1.0000 0.05120  0.05520  0.54980  Biso   1.000  C
  H24      1.0000 0.03800  0.01880  0.53380  Biso   1.000  H
  C34      1.0000 0.09280  0.43990  0.53560  Biso   1.000  C
  C35      1.0000 0.13240  0.43900  0.57956  Biso   1.000  C
  C36      1.0000 0.09880  0.30330  0.56310  Biso   1.000  C
  N1       1.0000 0.26930  0.40050  0.21880  Biso   1.000  N
  N2       1.0000 0.46070  0.58800  0.39394  Biso   1.000  N
  N3       1.0000 0.11330  0.60320  0.39507  Biso   1.000  N
  N4       1.0000 0.32760  0.52090  0.31940  Biso   1.000  N
  N5       1.0000 0.28750  0.56420  0.36446  Biso   1.000  N
  N6       1.0000 0.24240  0.52350  0.32123  Biso   1.000  N
  N7       1.0000 0.05330  0.58500  0.45551  Biso   1.000  N
  N8       1.0000 0.20560  0.59710  0.64862  Biso   1.000  N
  N9       1.0000 0.05500  0.01310  0.57710  Biso   1.000  N
  N10      1.0000 0.11820  0.49080  0.55616  Biso   1.000  N
  N11      1.0000 0.12440  0.34640  0.58441  Biso   1.000  N
  N12      1.0000 0.08160  0.34670  0.53802  Biso   1.000  N
  Zn4      1.0000 0.24156  0.67674  0.68005  Biso   1.000  Zn
  Zn5      1.0000 0.97499  0.37963  0.91474  Biso   1.000  Zn
  Zn6      1.0000 0.45146  0.35304  0.91340  Biso   1.000  Zn
  I7       1.0000 0.33154  0.67691  0.66770  Biso   1.000  I
  I8       1.0000 0.19977  0.83943  0.68576  Biso   1.000  I
  I9       1.0000 0.92442  0.29203  0.87588  Biso   1.000  I
  I10      1.0000 0.99448  0.30420  0.96582  Biso   1.000  I
  I11      1.0000 0.51689  0.43694  0.88314  Biso   1.000  I
  I12      1.0000 0.44295  0.17148  0.92067  Biso   1.000  I
  C37      1.0000 0.26820  0.56230  0.73299  Biso   1.000  C
  H25      1.0000 0.29860  0.56140  0.72320  Biso   1.000  H
  C38      1.0000 0.26440  0.52480  0.76143  Biso   1.000  C
  H26      1.0000 0.29210  0.50020  0.77130  Biso   1.000  H
  C39      1.0000 0.21980  0.52320  0.77561  Biso   1.000  C
  C40      1.0000 0.18040  0.55670  0.76000  Biso   1.000  C
  H27      1.0000 0.14910  0.55350  0.76850  Biso   1.000  H
  C41      1.0000 0.18740  0.59530  0.73170  Biso   1.000  C
  H28      1.0000 0.16040  0.61960  0.72110  Biso   1.000  H
  C42      1.0000 0.04050  0.43510  0.86444  Biso   1.000  C
  H29      1.0000 0.01090  0.44070  0.85390  Biso   1.000  H
  C43      1.0000 0.08240  0.45080  0.84930  Biso   1.000  C
  H30      1.0000 0.08140  0.46880  0.82880  Biso   1.000  H
  C44      1.0000 0.12680  0.44060  0.86376  Biso   1.000  C
  C45      1.0000 0.12480  0.41830  0.89400  Biso   1.000  C
  H31      1.0000 0.15380  0.41270  0.90520  Biso   1.000  H
  C46      1.0000 0.08120  0.40400  0.90824  Biso   1.000  C
  H32      1.0000 0.08110  0.38800  0.92900  Biso   1.000  H
  C47      1.0000 0.34470  0.38500  0.90908  Biso   1.000  C
  H33      1.0000 0.34500  0.36250  0.92920  Biso   1.000  H
  C48      1.0000 0.30130  0.40360  0.89592  Biso   1.000  C
  H34      1.0000 0.27230  0.39700  0.90710  Biso   1.000  H
  C49      1.0000 0.29980  0.43220  0.86629  Biso   1.000  C
  C50      1.0000 0.34370  0.44490  0.85135  Biso   1.000  C
  H35      1.0000 0.34450  0.46560  0.83100  Biso   1.000  H
  C51      1.0000 0.38550  0.42700  0.86660  Biso   1.000  C
  H36      1.0000 0.41520  0.43650  0.85640  Biso   1.000  H
  C52      1.0000 0.21570  0.49040  0.80744  Biso   1.000  C
  C53      1.0000 0.17240  0.45290  0.84845  Biso   1.000  C
  C54      1.0000 0.25430  0.44870  0.85017  Biso   1.000  C
  C55      1.0000 0.45590  0.51000  0.95870  Biso   1.000  C
  H37      1.0000 0.47050  0.54430  0.94270  Biso   1.000  H
  C56      1.0000 0.44420  0.55810  0.98510  Biso   1.000  C
  H38      1.0000 0.45070  0.62490  0.98700  Biso   1.000  H
  C57      1.0000 0.42340  0.50970  0.00806  Biso   1.000  C
  C58      1.0000 0.41610  0.41080  0.00540  Biso   1.000  C
  H39      1.0000 0.40300  0.37450  0.02150  Biso   1.000  H
  C59      1.0000 0.42830  0.36790  0.97900  Biso   1.000  C
  H40      1.0000 0.42340  0.30040  0.97720  Biso   1.000  H
  C60      1.0000 0.31110  0.36110  0.12400  Biso   1.000  C
  H41      1.0000 0.30730  0.29340  0.12220  Biso   1.000  H
  C61      1.0000 0.33330  0.40910  0.10090  Biso   1.000  C
  H42      1.0000 0.34280  0.37610  0.08320  Biso   1.000  H
  C62      1.0000 0.34150  0.50670  0.10404  Biso   1.000  C
  C63      1.0000 0.32710  0.55030  0.12950  Biso   1.000  C
  H43      1.0000 0.33280  0.61700  0.13260  Biso   1.000  H
  C64      1.0000 0.30360  0.49570  0.15119  Biso   1.000  C
  H44      1.0000 0.29350  0.52730  0.16900  Biso   1.000  H
  C65      1.0000 0.42640  0.93510  0.09980  Biso   1.000  C
  H45      1.0000 0.42390  0.96360  0.11910  Biso   1.000  H
  C66      1.0000 0.41080  0.84130  0.09580  Biso   1.000  C
  H46      1.0000 0.39750  0.80610  0.11210  Biso   1.000  H
  C67      1.0000 0.41490  0.79970  0.06790  Biso   1.000  C
  C68      1.0000 0.43470  0.85240  0.04440  Biso   1.000  C
  H47      1.0000 0.43820  0.82470  0.02500  Biso   1.000  H
  C69      1.0000 0.44880  0.94480  0.04980  Biso   1.000  C
  H48      1.0000 0.46200  0.98120  0.03380  Biso   1.000  H
  C70      1.0000 0.40720  0.56010  0.03560  Biso   1.000  C
  C71      1.0000 0.36760  0.56100  0.07956  Biso   1.000  C
  C72      1.0000 0.40120  0.69670  0.06310  Biso   1.000  C
  N13      1.0000 0.23070  0.59950  0.71880  Biso   1.000  N
  N14      1.0000 0.03930  0.41200  0.89394  Biso   1.000  N
  N15      1.0000 0.38670  0.39680  0.89507  Biso   1.000  N
  N16      1.0000 0.17240  0.47910  0.81940  Biso   1.000  N
  N17      1.0000 0.21250  0.43580  0.86446  Biso   1.000  N
  N18      1.0000 0.25760  0.47650  0.82123  Biso   1.000  N
  N19      1.0000 0.44670  0.41500  0.95551  Biso   1.000  N
  N20      1.0000 0.29440  0.40290  0.14862  Biso   1.000  N
  N21      1.0000 0.44500  0.98690  0.07710  Biso   1.000  N
  N22      1.0000 0.38180  0.50920  0.05616  Biso   1.000  N
  N23      1.0000 0.37560  0.65360  0.08441  Biso   1.000  N
  N24      1.0000 0.41840  0.65330  0.03802  Biso   1.000  N
  Zn7      1.0000 0.74156  0.82326  0.31995  Biso   1.000  Zn
  Zn8      1.0000 0.47499  0.12037  0.08526  Biso   1.000  Zn
  Zn9      1.0000 0.95146  0.14696  0.08660  Biso   1.000  Zn
  I13      1.0000 0.83154  0.82309  0.33230  Biso   1.000  I
  I14      1.0000 0.69977  0.66057  0.31424  Biso   1.000  I
  I15      1.0000 0.42442  0.20797  0.12412  Biso   1.000  I
  I16      1.0000 0.49448  0.19580  0.03418  Biso   1.000  I
  I17      1.0000 0.01689  0.06306  0.11686  Biso   1.000  I
  I18      1.0000 0.94295  0.32852  0.07933  Biso   1.000  I
  C73      1.0000 0.76820  0.93770  0.26701  Biso   1.000  C
  H49      1.0000 0.79860  0.93860  0.27680  Biso   1.000  H
  C74      1.0000 0.76440  0.97520  0.23857  Biso   1.000  C
  H50      1.0000 0.79210  0.99980  0.22870  Biso   1.000  H
  C75      1.0000 0.71980  0.97680  0.22439  Biso   1.000  C
  C76      1.0000 0.68040  0.94330  0.24000  Biso   1.000  C
  H51      1.0000 0.64910  0.94650  0.23150  Biso   1.000  H
  C77      1.0000 0.68740  0.90470  0.26830  Biso   1.000  C
  H52      1.0000 0.66040  0.88040  0.27890  Biso   1.000  H
  C78      1.0000 0.54050  0.06490  0.13556  Biso   1.000  C
  H53      1.0000 0.51090  0.05930  0.14610  Biso   1.000  H
  C79      1.0000 0.58240  0.04920  0.15070  Biso   1.000  C
  H54      1.0000 0.58140  0.03120  0.17120  Biso   1.000  H
  C80      1.0000 0.62680  0.05940  0.13624  Biso   1.000  C
  C81      1.0000 0.62480  0.08170  0.10600  Biso   1.000  C
  H55      1.0000 0.65380  0.08730  0.09480  Biso   1.000  H
  C82      1.0000 0.58120  0.09600  0.09176  Biso   1.000  C
  H56      1.0000 0.58110  0.11200  0.07100  Biso   1.000  H
  C83      1.0000 0.84470  0.11500  0.09092  Biso   1.000  C
  H57      1.0000 0.84500  0.13750  0.07080  Biso   1.000  H
  C84      1.0000 0.80130  0.09640  0.10408  Biso   1.000  C
  H58      1.0000 0.77230  0.10300  0.09290  Biso   1.000  H
  C85      1.0000 0.79980  0.06780  0.13371  Biso   1.000  C
  C86      1.0000 0.84370  0.05510  0.14865  Biso   1.000  C
  H59      1.0000 0.84450  0.03440  0.16900  Biso   1.000  H
  C87      1.0000 0.88550  0.07300  0.13340  Biso   1.000  C
  H60      1.0000 0.91520  0.06350  0.14360  Biso   1.000  H
  C88      1.0000 0.71570  0.00960  0.19256  Biso   1.000  C
  C89      1.0000 0.67240  0.04710  0.15155  Biso   1.000  C
  C90      1.0000 0.75430  0.05130  0.14983  Biso   1.000  C
  C91      1.0000 0.95590  0.99000  0.04130  Biso   1.000  C
  H61      1.0000 0.97050  0.95570  0.05730  Biso   1.000  H
  C92      1.0000 0.94420  0.94190  0.01490  Biso   1.000  C
  H62      1.0000 0.95070  0.87510  0.01300  Biso   1.000  H
  C93      1.0000 0.92340  0.99030  0.99194  Biso   1.000  C
  C94      1.0000 0.91610  0.08920  0.99460  Biso   1.000  C
  H63      1.0000 0.90300  0.12550  0.97850  Biso   1.000  H
  C95      1.0000 0.92830  0.13210  0.02100  Biso   1.000  C
  H64      1.0000 0.92340  0.19960  0.02280  Biso   1.000  H
  C96      1.0000 0.81110  0.13890  0.87600  Biso   1.000  C
  H65      1.0000 0.80730  0.20660  0.87780  Biso   1.000  H
  C97      1.0000 0.83330  0.09090  0.89910  Biso   1.000  C
  H66      1.0000 0.84280  0.12390  0.91680  Biso   1.000  H
  C98      1.0000 0.84150  0.99330  0.89596  Biso   1.000  C
  C99      1.0000 0.82710  0.94970  0.87050  Biso   1.000  C
  H67      1.0000 0.83280  0.88300  0.86740  Biso   1.000  H
  C100     1.0000 0.80360  0.00430  0.84881  Biso   1.000  C
  H68      1.0000 0.79350  0.97270  0.83100  Biso   1.000  H
  C101     1.0000 0.92640  0.56490  0.90020  Biso   1.000  C
  H69      1.0000 0.92390  0.53640  0.88090  Biso   1.000  H
  C102     1.0000 0.91080  0.65870  0.90420  Biso   1.000  C
  H70      1.0000 0.89750  0.69390  0.88790  Biso   1.000  H
  C103     1.0000 0.91490  0.70030  0.93210  Biso   1.000  C
  C104     1.0000 0.93470  0.64760  0.95560  Biso   1.000  C
  H71      1.0000 0.93820  0.67530  0.97500  Biso   1.000  H
  C105     1.0000 0.94880  0.55520  0.95020  Biso   1.000  C
  H72      1.0000 0.96200  0.51880  0.96620  Biso   1.000  H
  C106     1.0000 0.90720  0.93990  0.96440  Biso   1.000  C
  C107     1.0000 0.86760  0.93900  0.92044  Biso   1.000  C
  C108     1.0000 0.90120  0.80330  0.93690  Biso   1.000  C
  N25      1.0000 0.73070  0.90050  0.28120  Biso   1.000  N
  N26      1.0000 0.53930  0.08800  0.10606  Biso   1.000  N
  N27      1.0000 0.88670  0.10320  0.10493  Biso   1.000  N
  N28      1.0000 0.67240  0.02090  0.18060  Biso   1.000  N
  N29      1.0000 0.71250  0.06420  0.13554  Biso   1.000  N
  N30      1.0000 0.75760  0.02350  0.17877  Biso   1.000  N
  N31      1.0000 0.94670  0.08500  0.04449  Biso   1.000  N
  N32      1.0000 0.79440  0.09710  0.85138  Biso   1.000  N
  N33      1.0000 0.94500  0.51310  0.92290  Biso   1.000  N
  N34      1.0000 0.88180  0.99080  0.94384  Biso   1.000  N
  N35      1.0000 0.87560  0.84640  0.91559  Biso   1.000  N
  N36      1.0000 0.91840  0.84670  0.96198  Biso   1.000  N
  Zn10     1.0000 0.75844  0.17674  0.81995  Biso   1.000  Zn
  Zn11     1.0000 0.02501  0.87963  0.58526  Biso   1.000  Zn
  Zn12     1.0000 0.54854  0.85304  0.58660  Biso   1.000  Zn
  I19      1.0000 0.66846  0.17691  0.83230  Biso   1.000  I
  I20      1.0000 0.80023  0.33943  0.81424  Biso   1.000  I
  I21      1.0000 0.07558  0.79203  0.62412  Biso   1.000  I
  I22      1.0000 0.00552  0.80420  0.53418  Biso   1.000  I
  I23      1.0000 0.48311  0.93694  0.61686  Biso   1.000  I
  I24      1.0000 0.55705  0.67148  0.57933  Biso   1.000  I
  C109     1.0000 0.73180  0.06230  0.76701  Biso   1.000  C
  H73      1.0000 0.70140  0.06140  0.77680  Biso   1.000  H
  C110     1.0000 0.73560  0.02480  0.73857  Biso   1.000  C
  H74      1.0000 0.70790  0.00020  0.72870  Biso   1.000  H
  C111     1.0000 0.78020  0.02320  0.72439  Biso   1.000  C
  C112     1.0000 0.81960  0.05670  0.74000  Biso   1.000  C
  H75      1.0000 0.85090  0.05350  0.73150  Biso   1.000  H
  C113     1.0000 0.81260  0.09530  0.76830  Biso   1.000  C
  H76      1.0000 0.83960  0.11960  0.77890  Biso   1.000  H
  C114     1.0000 0.95950  0.93510  0.63556  Biso   1.000  C
  H77      1.0000 0.98910  0.94070  0.64610  Biso   1.000  H
  C115     1.0000 0.91760  0.95080  0.65070  Biso   1.000  C
  H78      1.0000 0.91860  0.96880  0.67120  Biso   1.000  H
  C116     1.0000 0.87320  0.94060  0.63624  Biso   1.000  C
  C117     1.0000 0.87520  0.91830  0.60600  Biso   1.000  C
  H79      1.0000 0.84620  0.91270  0.59480  Biso   1.000  H
  C118     1.0000 0.91880  0.90400  0.59176  Biso   1.000  C
  H80      1.0000 0.91890  0.88800  0.57100  Biso   1.000  H
  C119     1.0000 0.65530  0.88500  0.59092  Biso   1.000  C
  H81      1.0000 0.65500  0.86250  0.57080  Biso   1.000  H
  C120     1.0000 0.69870  0.90360  0.60408  Biso   1.000  C
  H82      1.0000 0.72770  0.89700  0.59290  Biso   1.000  H
  C121     1.0000 0.70020  0.93220  0.63371  Biso   1.000  C
  C122     1.0000 0.65630  0.94490  0.64865  Biso   1.000  C
  H83      1.0000 0.65550  0.96560  0.66900  Biso   1.000  H
  C123     1.0000 0.61450  0.92700  0.63340  Biso   1.000  C
  H84      1.0000 0.58480  0.93650  0.64360  Biso   1.000  H
  C124     1.0000 0.78430  0.99040  0.69256  Biso   1.000  C
  C125     1.0000 0.82760  0.95290  0.65155  Biso   1.000  C
  C126     1.0000 0.74570  0.94870  0.64983  Biso   1.000  C
  C127     1.0000 0.54410  0.01000  0.54130  Biso   1.000  C
  H85      1.0000 0.52950  0.04430  0.55730  Biso   1.000  H
  C128     1.0000 0.55580  0.05810  0.51490  Biso   1.000  C
  H86      1.0000 0.54930  0.12490  0.51300  Biso   1.000  H
  C129     1.0000 0.57660  0.00970  0.49194  Biso   1.000  C
  C130     1.0000 0.58390  0.91080  0.49460  Biso   1.000  C
  H87      1.0000 0.59700  0.87450  0.47850  Biso   1.000  H
  C131     1.0000 0.57170  0.86790  0.52100  Biso   1.000  C
  H88      1.0000 0.57660  0.80040  0.52280  Biso   1.000  H
  C132     1.0000 0.68890  0.86110  0.37600  Biso   1.000  C
  H89      1.0000 0.69270  0.79340  0.37780  Biso   1.000  H
  C133     1.0000 0.66670  0.90910  0.39910  Biso   1.000  C
  H90      1.0000 0.65720  0.87610  0.41680  Biso   1.000  H
  C134     1.0000 0.65850  0.00670  0.39596  Biso   1.000  C
  C135     1.0000 0.67290  0.05030  0.37050  Biso   1.000  C
  H91      1.0000 0.66720  0.11700  0.36740  Biso   1.000  H
  C136     1.0000 0.69640  0.99570  0.34881  Biso   1.000  C
  H92      1.0000 0.70650  0.02730  0.33100  Biso   1.000  H
  C137     1.0000 0.57360  0.43510  0.40020  Biso   1.000  C
  H93      1.0000 0.57610  0.46360  0.38090  Biso   1.000  H
  C138     1.0000 0.58920  0.34130  0.40420  Biso   1.000  C
  H94      1.0000 0.60250  0.30610  0.38790  Biso   1.000  H
  C139     1.0000 0.58510  0.29970  0.43210  Biso   1.000  C
  C140     1.0000 0.56530  0.35240  0.45560  Biso   1.000  C
  H95      1.0000 0.56180  0.32470  0.47500  Biso   1.000  H
  C141     1.0000 0.55120  0.44480  0.45020  Biso   1.000  C
  H96      1.0000 0.53800  0.48120  0.46620  Biso   1.000  H
  C142     1.0000 0.59280  0.06010  0.46440  Biso   1.000  C
  C143     1.0000 0.63240  0.06100  0.42044  Biso   1.000  C
  C144     1.0000 0.59880  0.19670  0.43690  Biso   1.000  C
  N37      1.0000 0.76930  0.09950  0.78120  Biso   1.000  N
  N38      1.0000 0.96070  0.91200  0.60606  Biso   1.000  N
  N39      1.0000 0.61330  0.89680  0.60493  Biso   1.000  N
  N40      1.0000 0.82760  0.97910  0.68060  Biso   1.000  N
  N41      1.0000 0.78750  0.93580  0.63554  Biso   1.000  N
  N42      1.0000 0.74240  0.97650  0.67877  Biso   1.000  N
  N43      1.0000 0.55330  0.91500  0.54449  Biso   1.000  N
  N44      1.0000 0.70560  0.90290  0.35138  Biso   1.000  N
  N45      1.0000 0.55500  0.48690  0.42290  Biso   1.000  N
  N46      1.0000 0.61820  0.00920  0.44384  Biso   1.000  N
  N47      1.0000 0.62440  0.15360  0.41559  Biso   1.000  N
  N48      1.0000 0.58160  0.15330  0.46198  Biso   1.000  N
  Zn13     1.0000 0.74156  0.67674  0.81995  Biso   1.000  Zn
  Zn14     1.0000 0.47499  0.37963  0.58526  Biso   1.000  Zn
  Zn15     1.0000 0.95146  0.35304  0.58660  Biso   1.000  Zn
  I25      1.0000 0.83154  0.67691  0.83230  Biso   1.000  I
  I26      1.0000 0.69977  0.83943  0.81424  Biso   1.000  I
  I27      1.0000 0.42442  0.29203  0.62412  Biso   1.000  I
  I28      1.0000 0.49448  0.30420  0.53418  Biso   1.000  I
  I29      1.0000 0.01689  0.43694  0.61686  Biso   1.000  I
  I30      1.0000 0.94295  0.17148  0.57933  Biso   1.000  I
  C145     1.0000 0.76820  0.56230  0.76701  Biso   1.000  C
  H97      1.0000 0.79860  0.56140  0.77680  Biso   1.000  H
  C146     1.0000 0.76440  0.52480  0.73857  Biso   1.000  C
  H98      1.0000 0.79210  0.50020  0.72870  Biso   1.000  H
  C147     1.0000 0.71980  0.52320  0.72439  Biso   1.000  C
  C148     1.0000 0.68040  0.55670  0.74000  Biso   1.000  C
  H99      1.0000 0.64910  0.55350  0.73150  Biso   1.000  H
  C149     1.0000 0.68740  0.59530  0.76830  Biso   1.000  C
  H100     1.0000 0.66040  0.61960  0.77890  Biso   1.000  H
  C150     1.0000 0.54050  0.43510  0.63556  Biso   1.000  C
  H101     1.0000 0.51090  0.44070  0.64610  Biso   1.000  H
  C151     1.0000 0.58240  0.45080  0.65070  Biso   1.000  C
  H102     1.0000 0.58140  0.46880  0.67120  Biso   1.000  H
  C152     1.0000 0.62680  0.44060  0.63624  Biso   1.000  C
  C153     1.0000 0.62480  0.41830  0.60600  Biso   1.000  C
  H103     1.0000 0.65380  0.41270  0.59480  Biso   1.000  H
  C154     1.0000 0.58120  0.40400  0.59176  Biso   1.000  C
  H104     1.0000 0.58110  0.38800  0.57100  Biso   1.000  H
  C155     1.0000 0.84470  0.38500  0.59092  Biso   1.000  C
  H105     1.0000 0.84500  0.36250  0.57080  Biso   1.000  H
  C156     1.0000 0.80130  0.40360  0.60408  Biso   1.000  C
  H106     1.0000 0.77230  0.39700  0.59290  Biso   1.000  H
  C157     1.0000 0.79980  0.43220  0.63371  Biso   1.000  C
  C158     1.0000 0.84370  0.44490  0.64865  Biso   1.000  C
  H107     1.0000 0.84450  0.46560  0.66900  Biso   1.000  H
  C159     1.0000 0.88550  0.42700  0.63340  Biso   1.000  C
  H108     1.0000 0.91520  0.43650  0.64360  Biso   1.000  H
  C160     1.0000 0.71570  0.49040  0.69256  Biso   1.000  C
  C161     1.0000 0.67240  0.45290  0.65155  Biso   1.000  C
  C162     1.0000 0.75430  0.44870  0.64983  Biso   1.000  C
  C163     1.0000 0.95590  0.51000  0.54130  Biso   1.000  C
  H109     1.0000 0.97050  0.54430  0.55730  Biso   1.000  H
  C164     1.0000 0.94420  0.55810  0.51490  Biso   1.000  C
  H110     1.0000 0.95070  0.62490  0.51300  Biso   1.000  H
  C165     1.0000 0.92340  0.50970  0.49194  Biso   1.000  C
  C166     1.0000 0.91610  0.41080  0.49460  Biso   1.000  C
  H111     1.0000 0.90300  0.37450  0.47850  Biso   1.000  H
  C167     1.0000 0.92830  0.36790  0.52100  Biso   1.000  C
  H112     1.0000 0.92340  0.30040  0.52280  Biso   1.000  H
  C168     1.0000 0.81110  0.36110  0.37600  Biso   1.000  C
  H113     1.0000 0.80730  0.29340  0.37780  Biso   1.000  H
  C169     1.0000 0.83330  0.40910  0.39910  Biso   1.000  C
  H114     1.0000 0.84280  0.37610  0.41680  Biso   1.000  H
  C170     1.0000 0.84150  0.50670  0.39596  Biso   1.000  C
  C171     1.0000 0.82710  0.55030  0.37050  Biso   1.000  C
  H115     1.0000 0.83280  0.61700  0.36740  Biso   1.000  H
  C172     1.0000 0.80360  0.49570  0.34881  Biso   1.000  C
  H116     1.0000 0.79350  0.52730  0.33100  Biso   1.000  H
  C173     1.0000 0.92640  0.93510  0.40020  Biso   1.000  C
  H117     1.0000 0.92390  0.96360  0.38090  Biso   1.000  H
  C174     1.0000 0.91080  0.84130  0.40420  Biso   1.000  C
  H118     1.0000 0.89750  0.80610  0.38790  Biso   1.000  H
  C175     1.0000 0.91490  0.79970  0.43210  Biso   1.000  C
  C176     1.0000 0.93470  0.85240  0.45560  Biso   1.000  C
  H119     1.0000 0.93820  0.82470  0.47500  Biso   1.000  H
  C177     1.0000 0.94880  0.94480  0.45020  Biso   1.000  C
  H120     1.0000 0.96200  0.98120  0.46620  Biso   1.000  H
  C178     1.0000 0.90720  0.56010  0.46440  Biso   1.000  C
  C179     1.0000 0.86760  0.56100  0.42044  Biso   1.000  C
  C180     1.0000 0.90120  0.69670  0.43690  Biso   1.000  C
  N49      1.0000 0.73070  0.59950  0.78120  Biso   1.000  N
  N50      1.0000 0.53930  0.41200  0.60606  Biso   1.000  N
  N51      1.0000 0.88670  0.39680  0.60493  Biso   1.000  N
  N52      1.0000 0.67240  0.47910  0.68060  Biso   1.000  N
  N53      1.0000 0.71250  0.43580  0.63554  Biso   1.000  N
  N54      1.0000 0.75760  0.47650  0.67877  Biso   1.000  N
  N55      1.0000 0.94670  0.41500  0.54449  Biso   1.000  N
  N56      1.0000 0.79440  0.40290  0.35138  Biso   1.000  N
  N57      1.0000 0.94500  0.98690  0.42290  Biso   1.000  N
  N58      1.0000 0.88180  0.50920  0.44384  Biso   1.000  N
  N59      1.0000 0.87560  0.65360  0.41559  Biso   1.000  N
  N60      1.0000 0.91840  0.65330  0.46198  Biso   1.000  N
  Zn16     1.0000 0.75844  0.32326  0.31995  Biso   1.000  Zn
  Zn17     1.0000 0.02501  0.62037  0.08526  Biso   1.000  Zn
  Zn18     1.0000 0.54854  0.64696  0.08660  Biso   1.000  Zn
  I31      1.0000 0.66846  0.32309  0.33230  Biso   1.000  I
  I32      1.0000 0.80023  0.16057  0.31424  Biso   1.000  I
  I33      1.0000 0.07558  0.70797  0.12412  Biso   1.000  I
  I34      1.0000 0.00552  0.69580  0.03418  Biso   1.000  I
  I35      1.0000 0.48311  0.56306  0.11686  Biso   1.000  I
  I36      1.0000 0.55705  0.82852  0.07933  Biso   1.000  I
  C181     1.0000 0.73180  0.43770  0.26701  Biso   1.000  C
  H121     1.0000 0.70140  0.43860  0.27680  Biso   1.000  H
  C182     1.0000 0.73560  0.47520  0.23857  Biso   1.000  C
  H122     1.0000 0.70790  0.49980  0.22870  Biso   1.000  H
  C183     1.0000 0.78020  0.47680  0.22439  Biso   1.000  C
  C184     1.0000 0.81960  0.44330  0.24000  Biso   1.000  C
  H123     1.0000 0.85090  0.44650  0.23150  Biso   1.000  H
  C185     1.0000 0.81260  0.40470  0.26830  Biso   1.000  C
  H124     1.0000 0.83960  0.38040  0.27890  Biso   1.000  H
  C186     1.0000 0.95950  0.56490  0.13556  Biso   1.000  C
  H125     1.0000 0.98910  0.55930  0.14610  Biso   1.000  H
  C187     1.0000 0.91760  0.54920  0.15070  Biso   1.000  C
  H126     1.0000 0.91860  0.53120  0.17120  Biso   1.000  H
  C188     1.0000 0.87320  0.55940  0.13624  Biso   1.000  C
  C189     1.0000 0.87520  0.58170  0.10600  Biso   1.000  C
  H127     1.0000 0.84620  0.58730  0.09480  Biso   1.000  H
  C190     1.0000 0.91880  0.59600  0.09176  Biso   1.000  C
  H128     1.0000 0.91890  0.61200  0.07100  Biso   1.000  H
  C191     1.0000 0.65530  0.61500  0.09092  Biso   1.000  C
  H129     1.0000 0.65500  0.63750  0.07080  Biso   1.000  H
  C192     1.0000 0.69870  0.59640  0.10408  Biso   1.000  C
  H130     1.0000 0.72770  0.60300  0.09290  Biso   1.000  H
  C193     1.0000 0.70020  0.56780  0.13371  Biso   1.000  C
  C194     1.0000 0.65630  0.55510  0.14865  Biso   1.000  C
  H131     1.0000 0.65550  0.53440  0.16900  Biso   1.000  H
  C195     1.0000 0.61450  0.57300  0.13340  Biso   1.000  C
  H132     1.0000 0.58480  0.56350  0.14360  Biso   1.000  H
  C196     1.0000 0.78430  0.50960  0.19256  Biso   1.000  C
  C197     1.0000 0.82760  0.54710  0.15155  Biso   1.000  C
  C198     1.0000 0.74570  0.55130  0.14983  Biso   1.000  C
  C199     1.0000 0.54410  0.49000  0.04130  Biso   1.000  C
  H133     1.0000 0.52950  0.45570  0.05730  Biso   1.000  H
  C200     1.0000 0.55580  0.44190  0.01490  Biso   1.000  C
  H134     1.0000 0.54930  0.37510  0.01300  Biso   1.000  H
  C201     1.0000 0.57660  0.49030  0.99194  Biso   1.000  C
  C202     1.0000 0.58390  0.58920  0.99460  Biso   1.000  C
  H135     1.0000 0.59700  0.62550  0.97850  Biso   1.000  H
  C203     1.0000 0.57170  0.63210  0.02100  Biso   1.000  C
  H136     1.0000 0.57660  0.69960  0.02280  Biso   1.000  H
  C204     1.0000 0.68890  0.63890  0.87600  Biso   1.000  C
  H137     1.0000 0.69270  0.70660  0.87780  Biso   1.000  H
  C205     1.0000 0.66670  0.59090  0.89910  Biso   1.000  C
  H138     1.0000 0.65720  0.62390  0.91680  Biso   1.000  H
  C206     1.0000 0.65850  0.49330  0.89596  Biso   1.000  C
  C207     1.0000 0.67290  0.44970  0.87050  Biso   1.000  C
  H139     1.0000 0.66720  0.38300  0.86740  Biso   1.000  H
  C208     1.0000 0.69640  0.50430  0.84881  Biso   1.000  C
  H140     1.0000 0.70650  0.47270  0.83100  Biso   1.000  H
  C209     1.0000 0.57360  0.06490  0.90020  Biso   1.000  C
  H141     1.0000 0.57610  0.03640  0.88090  Biso   1.000  H
  C210     1.0000 0.58920  0.15870  0.90420  Biso   1.000  C
  H142     1.0000 0.60250  0.19390  0.88790  Biso   1.000  H
  C211     1.0000 0.58510  0.20030  0.93210  Biso   1.000  C
  C212     1.0000 0.56530  0.14760  0.95560  Biso   1.000  C
  H143     1.0000 0.56180  0.17530  0.97500  Biso   1.000  H
  C213     1.0000 0.55120  0.05520  0.95020  Biso   1.000  C
  H144     1.0000 0.53800  0.01880  0.96620  Biso   1.000  H
  C214     1.0000 0.59280  0.43990  0.96440  Biso   1.000  C
  C215     1.0000 0.63240  0.43900  0.92044  Biso   1.000  C
  C216     1.0000 0.59880  0.30330  0.93690  Biso   1.000  C
  N61      1.0000 0.76930  0.40050  0.28120  Biso   1.000  N
  N62      1.0000 0.96070  0.58800  0.10606  Biso   1.000  N
  N63      1.0000 0.61330  0.60320  0.10493  Biso   1.000  N
  N64      1.0000 0.82760  0.52090  0.18060  Biso   1.000  N
  N65      1.0000 0.78750  0.56420  0.13554  Biso   1.000  N
  N66      1.0000 0.74240  0.52350  0.17877  Biso   1.000  N
  N67      1.0000 0.55330  0.58500  0.04449  Biso   1.000  N
  N68      1.0000 0.70560  0.59710  0.85138  Biso   1.000  N
  N69      1.0000 0.55500  0.01310  0.92290  Biso   1.000  N
  N70      1.0000 0.61820  0.49080  0.94384  Biso   1.000  N
  N71      1.0000 0.62440  0.34640  0.91559  Biso   1.000  N
  N72      1.0000 0.58160  0.34670  0.96198  Biso   1.000  N
  Zn19     1.0000 0.25844  0.17674  0.68005  Biso   1.000  Zn
  Zn20     1.0000 0.52501  0.87963  0.91474  Biso   1.000  Zn
  Zn21     1.0000 0.04854  0.85304  0.91340  Biso   1.000  Zn
  I37      1.0000 0.16846  0.17691  0.66770  Biso   1.000  I
  I38      1.0000 0.30023  0.33943  0.68576  Biso   1.000  I
  I39      1.0000 0.57558  0.79203  0.87588  Biso   1.000  I
  I40      1.0000 0.50552  0.80420  0.96582  Biso   1.000  I
  I41      1.0000 0.98311  0.93694  0.88314  Biso   1.000  I
  I42      1.0000 0.05705  0.67148  0.92067  Biso   1.000  I
  C217     1.0000 0.23180  0.06230  0.73299  Biso   1.000  C
  H145     1.0000 0.20140  0.06140  0.72320  Biso   1.000  H
  C218     1.0000 0.23560  0.02480  0.76143  Biso   1.000  C
  H146     1.0000 0.20790  0.00020  0.77130  Biso   1.000  H
  C219     1.0000 0.28020  0.02320  0.77561  Biso   1.000  C
  C220     1.0000 0.31960  0.05670  0.76000  Biso   1.000  C
  H147     1.0000 0.35090  0.05350  0.76850  Biso   1.000  H
  C221     1.0000 0.31260  0.09530  0.73170  Biso   1.000  C
  H148     1.0000 0.33960  0.11960  0.72110  Biso   1.000  H
  C222     1.0000 0.45950  0.93510  0.86444  Biso   1.000  C
  H149     1.0000 0.48910  0.94070  0.85390  Biso   1.000  H
  C223     1.0000 0.41760  0.95080  0.84930  Biso   1.000  C
  H150     1.0000 0.41860  0.96880  0.82880  Biso   1.000  H
  C224     1.0000 0.37320  0.94060  0.86376  Biso   1.000  C
  C225     1.0000 0.37520  0.91830  0.89400  Biso   1.000  C
  H151     1.0000 0.34620  0.91270  0.90520  Biso   1.000  H
  C226     1.0000 0.41880  0.90400  0.90824  Biso   1.000  C
  H152     1.0000 0.41890  0.88800  0.92900  Biso   1.000  H
  C227     1.0000 0.15530  0.88500  0.90908  Biso   1.000  C
  H153     1.0000 0.15500  0.86250  0.92920  Biso   1.000  H
  C228     1.0000 0.19870  0.90360  0.89592  Biso   1.000  C
  H154     1.0000 0.22770  0.89700  0.90710  Biso   1.000  H
  C229     1.0000 0.20020  0.93220  0.86629  Biso   1.000  C
  C230     1.0000 0.15630  0.94490  0.85135  Biso   1.000  C
  H155     1.0000 0.15550  0.96560  0.83100  Biso   1.000  H
  C231     1.0000 0.11450  0.92700  0.86660  Biso   1.000  C
  H156     1.0000 0.08480  0.93650  0.85640  Biso   1.000  H
  C232     1.0000 0.28430  0.99040  0.80744  Biso   1.000  C
  C233     1.0000 0.32760  0.95290  0.84845  Biso   1.000  C
  C234     1.0000 0.24570  0.94870  0.85017  Biso   1.000  C
  C235     1.0000 0.04410  0.01000  0.95870  Biso   1.000  C
  H157     1.0000 0.02950  0.04430  0.94270  Biso   1.000  H
  C236     1.0000 0.05580  0.05810  0.98510  Biso   1.000  C
  H158     1.0000 0.04930  0.12490  0.98700  Biso   1.000  H
  C237     1.0000 0.07660  0.00970  0.00806  Biso   1.000  C
  C238     1.0000 0.08390  0.91080  0.00540  Biso   1.000  C
  H159     1.0000 0.09700  0.87450  0.02150  Biso   1.000  H
  C239     1.0000 0.07170  0.86790  0.97900  Biso   1.000  C
  H160     1.0000 0.07660  0.80040  0.97720  Biso   1.000  H
  C240     1.0000 0.18890  0.86110  0.12400  Biso   1.000  C
  H161     1.0000 0.19270  0.79340  0.12220  Biso   1.000  H
  C241     1.0000 0.16670  0.90910  0.10090  Biso   1.000  C
  H162     1.0000 0.15720  0.87610  0.08320  Biso   1.000  H
  C242     1.0000 0.15850  0.00670  0.10404  Biso   1.000  C
  C243     1.0000 0.17290  0.05030  0.12950  Biso   1.000  C
  H163     1.0000 0.16720  0.11700  0.13260  Biso   1.000  H
  C244     1.0000 0.19640  0.99570  0.15119  Biso   1.000  C
  H164     1.0000 0.20650  0.02730  0.16900  Biso   1.000  H
  C245     1.0000 0.07360  0.43510  0.09980  Biso   1.000  C
  H165     1.0000 0.07610  0.46360  0.11910  Biso   1.000  H
  C246     1.0000 0.08920  0.34130  0.09580  Biso   1.000  C
  H166     1.0000 0.10250  0.30610  0.11210  Biso   1.000  H
  C247     1.0000 0.08510  0.29970  0.06790  Biso   1.000  C
  C248     1.0000 0.06530  0.35240  0.04440  Biso   1.000  C
  H167     1.0000 0.06180  0.32470  0.02500  Biso   1.000  H
  C249     1.0000 0.05120  0.44480  0.04980  Biso   1.000  C
  H168     1.0000 0.03800  0.48120  0.03380  Biso   1.000  H
  C250     1.0000 0.09280  0.06010  0.03560  Biso   1.000  C
  C251     1.0000 0.13240  0.06100  0.07956  Biso   1.000  C
  C252     1.0000 0.09880  0.19670  0.06310  Biso   1.000  C
  N73      1.0000 0.26930  0.09950  0.71880  Biso   1.000  N
  N74      1.0000 0.46070  0.91200  0.89394  Biso   1.000  N
  N75      1.0000 0.11330  0.89680  0.89507  Biso   1.000  N
  N76      1.0000 0.32760  0.97910  0.81940  Biso   1.000  N
  N77      1.0000 0.28750  0.93580  0.86446  Biso   1.000  N
  N78      1.0000 0.24240  0.97650  0.82123  Biso   1.000  N
  N79      1.0000 0.05330  0.91500  0.95551  Biso   1.000  N
  N80      1.0000 0.20560  0.90290  0.14862  Biso   1.000  N
  N81      1.0000 0.05500  0.48690  0.07710  Biso   1.000  N
  N82      1.0000 0.11820  0.00920  0.05616  Biso   1.000  N
  N83      1.0000 0.12440  0.15360  0.08441  Biso   1.000  N
  N84      1.0000 0.08160  0.15330  0.03802  Biso   1.000  N
  Zn22     1.0000 0.24156  0.82326  0.18005  Biso   1.000  Zn
  Zn23     1.0000 0.97499  0.12037  0.41474  Biso   1.000  Zn
  Zn24     1.0000 0.45146  0.14696  0.41340  Biso   1.000  Zn
  I43      1.0000 0.33154  0.82309  0.16770  Biso   1.000  I
  I44      1.0000 0.19977  0.66057  0.18576  Biso   1.000  I
  I45      1.0000 0.92442  0.20797  0.37588  Biso   1.000  I
  I46      1.0000 0.99448  0.19580  0.46582  Biso   1.000  I
  I47      1.0000 0.51689  0.06306  0.38314  Biso   1.000  I
  I48      1.0000 0.44295  0.32852  0.42067  Biso   1.000  I
  C253     1.0000 0.26820  0.93770  0.23299  Biso   1.000  C
  H169     1.0000 0.29860  0.93860  0.22320  Biso   1.000  H
  C254     1.0000 0.26440  0.97520  0.26143  Biso   1.000  C
  H170     1.0000 0.29210  0.99980  0.27130  Biso   1.000  H
  C255     1.0000 0.21980  0.97680  0.27561  Biso   1.000  C
  C256     1.0000 0.18040  0.94330  0.26000  Biso   1.000  C
  H171     1.0000 0.14910  0.94650  0.26850  Biso   1.000  H
  C257     1.0000 0.18740  0.90470  0.23170  Biso   1.000  C
  H172     1.0000 0.16040  0.88040  0.22110  Biso   1.000  H
  C258     1.0000 0.04050  0.06490  0.36444  Biso   1.000  C
  H173     1.0000 0.01090  0.05930  0.35390  Biso   1.000  H
  C259     1.0000 0.08240  0.04920  0.34930  Biso   1.000  C
  H174     1.0000 0.08140  0.03120  0.32880  Biso   1.000  H
  C260     1.0000 0.12680  0.05940  0.36376  Biso   1.000  C
  C261     1.0000 0.12480  0.08170  0.39400  Biso   1.000  C
  H175     1.0000 0.15380  0.08730  0.40520  Biso   1.000  H
  C262     1.0000 0.08120  0.09600  0.40824  Biso   1.000  C
  H176     1.0000 0.08110  0.11200  0.42900  Biso   1.000  H
  C263     1.0000 0.34470  0.11500  0.40908  Biso   1.000  C
  H177     1.0000 0.34500  0.13750  0.42920  Biso   1.000  H
  C264     1.0000 0.30130  0.09640  0.39592  Biso   1.000  C
  H178     1.0000 0.27230  0.10300  0.40710  Biso   1.000  H
  C265     1.0000 0.29980  0.06780  0.36629  Biso   1.000  C
  C266     1.0000 0.34370  0.05510  0.35135  Biso   1.000  C
  H179     1.0000 0.34450  0.03440  0.33100  Biso   1.000  H
  C267     1.0000 0.38550  0.07300  0.36660  Biso   1.000  C
  H180     1.0000 0.41520  0.06350  0.35640  Biso   1.000  H
  C268     1.0000 0.21570  0.00960  0.30744  Biso   1.000  C
  C269     1.0000 0.17240  0.04710  0.34845  Biso   1.000  C
  C270     1.0000 0.25430  0.05130  0.35017  Biso   1.000  C
  C271     1.0000 0.45590  0.99000  0.45870  Biso   1.000  C
  H181     1.0000 0.47050  0.95570  0.44270  Biso   1.000  H
  C272     1.0000 0.44420  0.94190  0.48510  Biso   1.000  C
  H182     1.0000 0.45070  0.87510  0.48700  Biso   1.000  H
  C273     1.0000 0.42340  0.99030  0.50806  Biso   1.000  C
  C274     1.0000 0.41610  0.08920  0.50540  Biso   1.000  C
  H183     1.0000 0.40300  0.12550  0.52150  Biso   1.000  H
  C275     1.0000 0.42830  0.13210  0.47900  Biso   1.000  C
  H184     1.0000 0.42340  0.19960  0.47720  Biso   1.000  H
  C276     1.0000 0.31110  0.13890  0.62400  Biso   1.000  C
  H185     1.0000 0.30730  0.20660  0.62220  Biso   1.000  H
  C277     1.0000 0.33330  0.09090  0.60090  Biso   1.000  C
  H186     1.0000 0.34280  0.12390  0.58320  Biso   1.000  H
  C278     1.0000 0.34150  0.99330  0.60404  Biso   1.000  C
  C279     1.0000 0.32710  0.94970  0.62950  Biso   1.000  C
  H187     1.0000 0.33280  0.88300  0.63260  Biso   1.000  H
  C280     1.0000 0.30360  0.00430  0.65119  Biso   1.000  C
  H188     1.0000 0.29350  0.97270  0.66900  Biso   1.000  H
  C281     1.0000 0.42640  0.56490  0.59980  Biso   1.000  C
  H189     1.0000 0.42390  0.53640  0.61910  Biso   1.000  H
  C282     1.0000 0.41080  0.65870  0.59580  Biso   1.000  C
  H190     1.0000 0.39750  0.69390  0.61210  Biso   1.000  H
  C283     1.0000 0.41490  0.70030  0.56790  Biso   1.000  C
  C284     1.0000 0.43470  0.64760  0.54440  Biso   1.000  C
  H191     1.0000 0.43820  0.67530  0.52500  Biso   1.000  H
  C285     1.0000 0.44880  0.55520  0.54980  Biso   1.000  C
  H192     1.0000 0.46200  0.51880  0.53380  Biso   1.000  H
  C286     1.0000 0.40720  0.93990  0.53560  Biso   1.000  C
  C287     1.0000 0.36760  0.93900  0.57956  Biso   1.000  C
  C288     1.0000 0.40120  0.80330  0.56310  Biso   1.000  C
  N85      1.0000 0.23070  0.90050  0.21880  Biso   1.000  N
  N86      1.0000 0.03930  0.08800  0.39394  Biso   1.000  N
  N87      1.0000 0.38670  0.10320  0.39507  Biso   1.000  N
  N88      1.0000 0.17240  0.02090  0.31940  Biso   1.000  N
  N89      1.0000 0.21250  0.06420  0.36446  Biso   1.000  N
  N90      1.0000 0.25760  0.02350  0.32123  Biso   1.000  N
  N91      1.0000 0.44670  0.08500  0.45551  Biso   1.000  N
  N92      1.0000 0.29440  0.09710  0.64862  Biso   1.000  N
  N93      1.0000 0.44500  0.51310  0.57710  Biso   1.000  N
  N94      1.0000 0.38180  0.99080  0.55616  Biso   1.000  N
  N95      1.0000 0.37560  0.84640  0.58441  Biso   1.000  N
  N96      1.0000 0.41840  0.84670  0.53802  Biso   1.000  N
