data_fcu_sym_12_mc_11__L_12
_audit_creation_date              2015-10-10
_audit_creation_method            'Materials Studio'
_symmetry_space_group_name_H-M    'P1'
_symmetry_Int_Tables_number       1
_symmetry_cell_setting            triclinic
loop_
_symmetry_equiv_pos_as_xyz
  x,y,z
_cell_length_a                    20.7465
_cell_length_b                    20.7465
_cell_length_c                    20.7465
_cell_angle_alpha                 90.0000
_cell_angle_beta                  90.0000
_cell_angle_gamma                 90.0000
loop_
_atom_site_label
_atom_site_type_symbol
_atom_site_fract_x
_atom_site_fract_y
_atom_site_fract_z
_atom_site_U_iso_or_equiv
_atom_site_adp_type
_atom_site_occupancy
O1     O    -0.16732   0.08866   0.00176   0.00000  Uiso   1.00
O2     O     0.16732   0.08866  -0.00176   0.00000  Uiso   1.00
O3     O    -0.00176   0.16732   0.08866   0.00000  Uiso   1.00
O4     O     0.00176   0.16732  -0.08866   0.00000  Uiso   1.00
O5     O     0.00176   0.08866  -0.16732   0.00000  Uiso   1.00
O6     O    -0.00176   0.08866   0.16732   0.00000  Uiso   1.00
O7     O     0.08866   0.16732  -0.00176   0.00000  Uiso   1.00
O8     O    -0.08866   0.16732   0.00176   0.00000  Uiso   1.00
Zr9    Zr    0.00000   0.11466  -0.00000   0.00000  Uiso   1.00
O10    O     0.05863   0.05863  -0.05863   0.00000  Uiso   1.00
O11    O    -0.05863   0.05863   0.05863   0.00000  Uiso   1.00
X12    C    -0.14887   0.14887   0.00249   0.00000  Uiso   1.00
X13    C     0.14887   0.14887  -0.00250   0.00000  Uiso   1.00
X14    C    -0.00250   0.14887   0.14887   0.00000  Uiso   1.00
X15    C     0.00250   0.14887  -0.14887   0.00000  Uiso   1.00
H16    H     0.08570   0.08570   0.08570   0.00000  Uiso   1.00
O17    O     0.05820   0.05820   0.05820   0.00000  Uiso   1.00
H18    H    -0.08570   0.08570  -0.08570   0.00000  Uiso   1.00
O19    O    -0.05820   0.05820  -0.05820   0.00000  Uiso   1.00
O20    O     0.16732  -0.08866   0.00176   0.00000  Uiso   1.00
O21    O    -0.16732  -0.08866  -0.00176   0.00000  Uiso   1.00
O22    O     0.08866  -0.00176   0.16732   0.00000  Uiso   1.00
O23    O     0.08866   0.00176  -0.16732   0.00000  Uiso   1.00
O24    O    -0.08866  -0.00176  -0.16732   0.00000  Uiso   1.00
O25    O    -0.08866   0.00176   0.16732   0.00000  Uiso   1.00
O26    O     0.00176  -0.16732   0.08866   0.00000  Uiso   1.00
O27    O    -0.00176  -0.16732  -0.08866   0.00000  Uiso   1.00
O28    O     0.00176  -0.08866   0.16732   0.00000  Uiso   1.00
O29    O    -0.00176  -0.08866  -0.16732   0.00000  Uiso   1.00
O30    O     0.16732  -0.00176   0.08866   0.00000  Uiso   1.00
O31    O    -0.16732   0.00176   0.08866   0.00000  Uiso   1.00
O32    O    -0.16732  -0.00176  -0.08866   0.00000  Uiso   1.00
O33    O     0.16732   0.00176  -0.08866   0.00000  Uiso   1.00
O34    O     0.08866  -0.16732   0.00176   0.00000  Uiso   1.00
O35    O    -0.08866  -0.16732  -0.00176   0.00000  Uiso   1.00
Zr36   Zr    0.11466  -0.00000   0.00000   0.00000  Uiso   1.00
Zr37   Zr   -0.11466   0.00000  -0.00000   0.00000  Uiso   1.00
Zr38   Zr   -0.00000   0.00000   0.11466   0.00000  Uiso   1.00
Zr39   Zr    0.00000  -0.00000  -0.11466   0.00000  Uiso   1.00
Zr40   Zr    0.00000  -0.11466   0.00000   0.00000  Uiso   1.00
O41    O    -0.05863  -0.05863  -0.05863   0.00000  Uiso   1.00
O42    O     0.05863  -0.05863   0.05863   0.00000  Uiso   1.00
X43    C     0.14887  -0.14887   0.00250   0.00000  Uiso   1.00
X44    C    -0.14887  -0.14887  -0.00250   0.00000  Uiso   1.00
X45    C     0.14887  -0.00249   0.14887   0.00000  Uiso   1.00
X46    C     0.14887   0.00249  -0.14887   0.00000  Uiso   1.00
X47    C    -0.14887  -0.00250  -0.14887   0.00000  Uiso   1.00
X48    C    -0.14887   0.00250   0.14887   0.00000  Uiso   1.00
X49    C     0.00249  -0.14887   0.14887   0.00000  Uiso   1.00
X50    C    -0.00249  -0.14887  -0.14887   0.00000  Uiso   1.00
H51    H    -0.08570  -0.08570   0.08570   0.00000  Uiso   1.00
O52    O    -0.05820  -0.05820   0.05820   0.00000  Uiso   1.00
H53    H     0.08570  -0.08570  -0.08570   0.00000  Uiso   1.00
O54    O     0.05820  -0.05820  -0.05820   0.00000  Uiso   1.00
O55    O     0.33268   0.58866   0.00176   0.00000  Uiso   1.00
O56    O     0.66732   0.58866  -0.00176   0.00000  Uiso   1.00
O57    O     0.49824   0.66732   0.08866   0.00000  Uiso   1.00
O58    O     0.50176   0.66732  -0.08866   0.00000  Uiso   1.00
O59    O     0.50176   0.58866  -0.16732   0.00000  Uiso   1.00
O60    O     0.49824   0.58866   0.16732   0.00000  Uiso   1.00
O61    O     0.58866   0.66732  -0.00176   0.00000  Uiso   1.00
O62    O     0.41134   0.66732   0.00176   0.00000  Uiso   1.00
Zr63   Zr    0.50000   0.61466  -0.00000   0.00000  Uiso   1.00
O64    O     0.55863   0.55863  -0.05863   0.00000  Uiso   1.00
O65    O     0.44137   0.55863   0.05863   0.00000  Uiso   1.00
X66    C     0.35113   0.64887   0.00249   0.00000  Uiso   1.00
X67    C     0.64887   0.64887  -0.00250   0.00000  Uiso   1.00
X68    C     0.49750   0.64887   0.14887   0.00000  Uiso   1.00
X69    C     0.50250   0.64887  -0.14887   0.00000  Uiso   1.00
H70    H     0.58570   0.58570   0.08570   0.00000  Uiso   1.00
O71    O     0.55820   0.55820   0.05820   0.00000  Uiso   1.00
H72    H     0.41430   0.58570  -0.08570   0.00000  Uiso   1.00
O73    O     0.44180   0.55820  -0.05820   0.00000  Uiso   1.00
O74    O     0.66732   0.41134   0.00176   0.00000  Uiso   1.00
O75    O     0.33268   0.41134  -0.00176   0.00000  Uiso   1.00
O76    O     0.58866   0.49824   0.16732   0.00000  Uiso   1.00
O77    O     0.58866   0.50176  -0.16732   0.00000  Uiso   1.00
O78    O     0.41134   0.49824  -0.16732   0.00000  Uiso   1.00
O79    O     0.41134   0.50176   0.16732   0.00000  Uiso   1.00
O80    O     0.50176   0.33268   0.08866   0.00000  Uiso   1.00
O81    O     0.49824   0.33268  -0.08866   0.00000  Uiso   1.00
O82    O     0.50176   0.41134   0.16732   0.00000  Uiso   1.00
O83    O     0.49824   0.41134  -0.16732   0.00000  Uiso   1.00
O84    O     0.66732   0.49824   0.08866   0.00000  Uiso   1.00
O85    O     0.33268   0.50176   0.08866   0.00000  Uiso   1.00
O86    O     0.33268   0.49824  -0.08866   0.00000  Uiso   1.00
O87    O     0.66732   0.50176  -0.08866   0.00000  Uiso   1.00
O88    O     0.58866   0.33268   0.00176   0.00000  Uiso   1.00
O89    O     0.41134   0.33268  -0.00176   0.00000  Uiso   1.00
Zr90   Zr    0.61466   0.50000   0.00000   0.00000  Uiso   1.00
Zr91   Zr    0.38534   0.50000  -0.00000   0.00000  Uiso   1.00
Zr92   Zr    0.50000   0.50000   0.11466   0.00000  Uiso   1.00
Zr93   Zr    0.50000   0.50000  -0.11466   0.00000  Uiso   1.00
Zr94   Zr    0.50000   0.38534   0.00000   0.00000  Uiso   1.00
O95    O     0.44137   0.44137  -0.05863   0.00000  Uiso   1.00
O96    O     0.55863   0.44137   0.05863   0.00000  Uiso   1.00
X97    C     0.64887   0.35113   0.00250   0.00000  Uiso   1.00
X98    C     0.35113   0.35113  -0.00250   0.00000  Uiso   1.00
X99    C     0.64887   0.49751   0.14887   0.00000  Uiso   1.00
X100   C     0.64887   0.50249  -0.14887   0.00000  Uiso   1.00
X101   C     0.35113   0.49750  -0.14887   0.00000  Uiso   1.00
X102   C     0.35113   0.50250   0.14887   0.00000  Uiso   1.00
X103   C     0.50249   0.35113   0.14887   0.00000  Uiso   1.00
X104   C     0.49751   0.35113  -0.14887   0.00000  Uiso   1.00
H105   H     0.41430   0.41430   0.08570   0.00000  Uiso   1.00
O106   O     0.44180   0.44180   0.05820   0.00000  Uiso   1.00
H107   H     0.58570   0.41430  -0.08570   0.00000  Uiso   1.00
O108   O     0.55820   0.44180  -0.05820   0.00000  Uiso   1.00
O109   O    -0.16732   0.58866   0.50176   0.00000  Uiso   1.00
O110   O     0.16732   0.58866   0.49824   0.00000  Uiso   1.00
O111   O    -0.00176   0.66732   0.58866   0.00000  Uiso   1.00
O112   O     0.00176   0.66732   0.41134   0.00000  Uiso   1.00
O113   O     0.00176   0.58866   0.33268   0.00000  Uiso   1.00
O114   O    -0.00176   0.58866   0.66732   0.00000  Uiso   1.00
O115   O     0.08866   0.66732   0.49824   0.00000  Uiso   1.00
O116   O    -0.08866   0.66732   0.50176   0.00000  Uiso   1.00
Zr117  Zr   -0.00000   0.61466   0.50000   0.00000  Uiso   1.00
O118   O     0.05863   0.55863   0.44137   0.00000  Uiso   1.00
O119   O    -0.05863   0.55863   0.55863   0.00000  Uiso   1.00
X120   C    -0.14887   0.64887   0.50250   0.00000  Uiso   1.00
X121   C     0.14887   0.64887   0.49750   0.00000  Uiso   1.00
X122   C    -0.00249   0.64887   0.64887   0.00000  Uiso   1.00
X123   C     0.00249   0.64887   0.35113   0.00000  Uiso   1.00
H124   H     0.08570   0.58570   0.58570   0.00000  Uiso   1.00
O125   O     0.05820   0.55820   0.55820   0.00000  Uiso   1.00
H126   H    -0.08570   0.58570   0.41430   0.00000  Uiso   1.00
O127   O    -0.05820   0.55820   0.44180   0.00000  Uiso   1.00
O128   O     0.16732   0.41134   0.50176   0.00000  Uiso   1.00
O129   O    -0.16732   0.41134   0.49824   0.00000  Uiso   1.00
O130   O     0.08866   0.49824   0.66732   0.00000  Uiso   1.00
O131   O     0.08866   0.50176   0.33268   0.00000  Uiso   1.00
O132   O    -0.08866   0.49824   0.33268   0.00000  Uiso   1.00
O133   O    -0.08866   0.50176   0.66732   0.00000  Uiso   1.00
O134   O     0.00176   0.33268   0.58866   0.00000  Uiso   1.00
O135   O    -0.00176   0.33268   0.41134   0.00000  Uiso   1.00
O136   O     0.00176   0.41134   0.66732   0.00000  Uiso   1.00
O137   O    -0.00176   0.41134   0.33268   0.00000  Uiso   1.00
O138   O     0.16732   0.49824   0.58866   0.00000  Uiso   1.00
O139   O    -0.16732   0.50176   0.58866   0.00000  Uiso   1.00
O140   O    -0.16732   0.49824   0.41134   0.00000  Uiso   1.00
O141   O     0.16732   0.50176   0.41134   0.00000  Uiso   1.00
O142   O     0.08866   0.33268   0.50176   0.00000  Uiso   1.00
O143   O    -0.08866   0.33268   0.49824   0.00000  Uiso   1.00
Zr144  Zr    0.11466   0.50000   0.50000   0.00000  Uiso   1.00
Zr145  Zr   -0.11466   0.50000   0.50000   0.00000  Uiso   1.00
Zr146  Zr    0.00000   0.50000   0.61466   0.00000  Uiso   1.00
Zr147  Zr   -0.00000   0.50000   0.38534   0.00000  Uiso   1.00
Zr148  Zr   -0.00000   0.38534   0.50000   0.00000  Uiso   1.00
O149   O    -0.05863   0.44137   0.44137   0.00000  Uiso   1.00
O150   O     0.05863   0.44137   0.55863   0.00000  Uiso   1.00
X151   C     0.14887   0.35113   0.50249   0.00000  Uiso   1.00
X152   C    -0.14887   0.35113   0.49750   0.00000  Uiso   1.00
X153   C     0.14887   0.49750   0.64887   0.00000  Uiso   1.00
X154   C     0.14887   0.50250   0.35113   0.00000  Uiso   1.00
X155   C    -0.14887   0.49751   0.35113   0.00000  Uiso   1.00
X156   C    -0.14887   0.50249   0.64887   0.00000  Uiso   1.00
X157   C     0.00250   0.35113   0.64887   0.00000  Uiso   1.00
X158   C    -0.00250   0.35113   0.35113   0.00000  Uiso   1.00
H159   H    -0.08570   0.41430   0.58570   0.00000  Uiso   1.00
O160   O    -0.05820   0.44180   0.55820   0.00000  Uiso   1.00
H161   H     0.08570   0.41430   0.41430   0.00000  Uiso   1.00
O162   O     0.05820   0.44180   0.44180   0.00000  Uiso   1.00
O163   O     0.33268   0.08866   0.50176   0.00000  Uiso   1.00
O164   O     0.66732   0.08866   0.49824   0.00000  Uiso   1.00
O165   O     0.49824   0.16732   0.58866   0.00000  Uiso   1.00
O166   O     0.50176   0.16732   0.41134   0.00000  Uiso   1.00
O167   O     0.50176   0.08866   0.33268   0.00000  Uiso   1.00
O168   O     0.49824   0.08866   0.66732   0.00000  Uiso   1.00
O169   O     0.58866   0.16732   0.49824   0.00000  Uiso   1.00
O170   O     0.41134   0.16732   0.50176   0.00000  Uiso   1.00
Zr171  Zr    0.50000   0.11466   0.50000   0.00000  Uiso   1.00
O172   O     0.55863   0.05863   0.44137   0.00000  Uiso   1.00
O173   O     0.44137   0.05863   0.55863   0.00000  Uiso   1.00
X174   C     0.35113   0.14887   0.50250   0.00000  Uiso   1.00
X175   C     0.64887   0.14887   0.49750   0.00000  Uiso   1.00
X176   C     0.49751   0.14887   0.64887   0.00000  Uiso   1.00
X177   C     0.50249   0.14887   0.35113   0.00000  Uiso   1.00
H178   H     0.58570   0.08570   0.58570   0.00000  Uiso   1.00
O179   O     0.55820   0.05820   0.55820   0.00000  Uiso   1.00
H180   H     0.41430   0.08570   0.41430   0.00000  Uiso   1.00
O181   O     0.44180   0.05820   0.44180   0.00000  Uiso   1.00
O182   O     0.66732  -0.08866   0.50176   0.00000  Uiso   1.00
O183   O     0.33268  -0.08866   0.49824   0.00000  Uiso   1.00
O184   O     0.58866  -0.00176   0.66732   0.00000  Uiso   1.00
O185   O     0.58866   0.00176   0.33268   0.00000  Uiso   1.00
O186   O     0.41134  -0.00176   0.33268   0.00000  Uiso   1.00
O187   O     0.41134   0.00176   0.66732   0.00000  Uiso   1.00
O188   O     0.50176  -0.16732   0.58866   0.00000  Uiso   1.00
O189   O     0.49824  -0.16732   0.41134   0.00000  Uiso   1.00
O190   O     0.50176  -0.08866   0.66732   0.00000  Uiso   1.00
O191   O     0.49824  -0.08866   0.33268   0.00000  Uiso   1.00
O192   O     0.66732  -0.00176   0.58866   0.00000  Uiso   1.00
O193   O     0.33268   0.00176   0.58866   0.00000  Uiso   1.00
O194   O     0.33268  -0.00176   0.41134   0.00000  Uiso   1.00
O195   O     0.66732   0.00176   0.41134   0.00000  Uiso   1.00
O196   O     0.58866  -0.16732   0.50176   0.00000  Uiso   1.00
O197   O     0.41134  -0.16732   0.49824   0.00000  Uiso   1.00
Zr198  Zr    0.61466  -0.00000   0.50000   0.00000  Uiso   1.00
Zr199  Zr    0.38534   0.00000   0.50000   0.00000  Uiso   1.00
Zr200  Zr    0.50000  -0.00000   0.61466   0.00000  Uiso   1.00
Zr201  Zr    0.50000   0.00000   0.38534   0.00000  Uiso   1.00
Zr202  Zr    0.50000  -0.11466   0.50000   0.00000  Uiso   1.00
O203   O     0.44137  -0.05863   0.44137   0.00000  Uiso   1.00
O204   O     0.55863  -0.05863   0.55863   0.00000  Uiso   1.00
X205   C     0.64887  -0.14887   0.50249   0.00000  Uiso   1.00
X206   C     0.35113  -0.14887   0.49750   0.00000  Uiso   1.00
X207   C     0.64887  -0.00250   0.64887   0.00000  Uiso   1.00
X208   C     0.64887   0.00250   0.35113   0.00000  Uiso   1.00
X209   C     0.35113  -0.00249   0.35113   0.00000  Uiso   1.00
X210   C     0.35113   0.00249   0.64887   0.00000  Uiso   1.00
X211   C     0.50250  -0.14887   0.64887   0.00000  Uiso   1.00
X212   C     0.49750  -0.14887   0.35113   0.00000  Uiso   1.00
H213   H     0.41430  -0.08570   0.58570   0.00000  Uiso   1.00
O214   O     0.44180  -0.05820   0.55820   0.00000  Uiso   1.00
H215   H     0.58570  -0.08570   0.41430   0.00000  Uiso   1.00
O216   O     0.55820  -0.05820   0.44180   0.00000  Uiso   1.00
C217   C     0.26694   0.18485  -0.00347   0.00000  Uiso   1.00
X218   C     0.20070   0.20070  -0.00332   0.00000  Uiso   1.00
C219   C     0.18485   0.26694  -0.00347   0.00000  Uiso   1.00
C220   C     0.23306   0.31515  -0.00347   0.00000  Uiso   1.00
X221   C     0.29930   0.29930  -0.00332   0.00000  Uiso   1.00
C222   C     0.31515   0.23306  -0.00347   0.00000  Uiso   1.00
H223   H     0.28182   0.13483  -0.00339   0.00000  Uiso   1.00
H224   H     0.13483   0.28182  -0.00339   0.00000  Uiso   1.00
H225   H     0.21818   0.36517  -0.00339   0.00000  Uiso   1.00
H226   H     0.36517   0.21818  -0.00339   0.00000  Uiso   1.00
C227   C     0.26694   0.68485   0.49653   0.00000  Uiso   1.00
X228   C     0.20070   0.70070   0.49668   0.00000  Uiso   1.00
C229   C     0.18485   0.76694   0.49653   0.00000  Uiso   1.00
C230   C     0.23306   0.81515   0.49653   0.00000  Uiso   1.00
X231   C     0.29930   0.79930   0.49668   0.00000  Uiso   1.00
C232   C     0.31515   0.73306   0.49653   0.00000  Uiso   1.00
H233   H     0.28182   0.63483   0.49661   0.00000  Uiso   1.00
H234   H     0.13483   0.78182   0.49661   0.00000  Uiso   1.00
H235   H     0.21818   0.86517   0.49661   0.00000  Uiso   1.00
H236   H     0.36517   0.71818   0.49661   0.00000  Uiso   1.00
C237   C     0.81515   0.73306  -0.00347   0.00000  Uiso   1.00
X238   C     0.79930   0.79930  -0.00332   0.00000  Uiso   1.00
C239   C     0.73306   0.81515  -0.00347   0.00000  Uiso   1.00
C240   C     0.68485   0.76694  -0.00347   0.00000  Uiso   1.00
X241   C     0.70070   0.70070  -0.00332   0.00000  Uiso   1.00
C242   C     0.76694   0.68485  -0.00347   0.00000  Uiso   1.00
H243   H     0.86517   0.71818  -0.00339   0.00000  Uiso   1.00
H244   H     0.71818   0.86517  -0.00339   0.00000  Uiso   1.00
H245   H     0.63483   0.78182  -0.00339   0.00000  Uiso   1.00
H246   H     0.78182   0.63483  -0.00339   0.00000  Uiso   1.00
C247   C     0.81515   0.23306   0.49653   0.00000  Uiso   1.00
X248   C     0.79930   0.29930   0.49668   0.00000  Uiso   1.00
C249   C     0.73306   0.31515   0.49653   0.00000  Uiso   1.00
C250   C     0.68485   0.26694   0.49653   0.00000  Uiso   1.00
X251   C     0.70070   0.20070   0.49668   0.00000  Uiso   1.00
C252   C     0.76694   0.18485   0.49653   0.00000  Uiso   1.00
H253   H     0.86517   0.21818   0.49661   0.00000  Uiso   1.00
H254   H     0.71818   0.36517   0.49661   0.00000  Uiso   1.00
H255   H     0.63483   0.28182   0.49661   0.00000  Uiso   1.00
H256   H     0.78182   0.13483   0.49661   0.00000  Uiso   1.00
C257   C     0.81515   0.26694   0.00347   0.00000  Uiso   1.00
X258   C     0.79930   0.20070   0.00332   0.00000  Uiso   1.00
C259   C     0.73306   0.18485   0.00347   0.00000  Uiso   1.00
C260   C     0.68485   0.23306   0.00347   0.00000  Uiso   1.00
X261   C     0.70070   0.29930   0.00332   0.00000  Uiso   1.00
C262   C     0.76694   0.31515   0.00347   0.00000  Uiso   1.00
H263   H     0.86517   0.28182   0.00339   0.00000  Uiso   1.00
H264   H     0.71818   0.13483   0.00339   0.00000  Uiso   1.00
H265   H     0.63483   0.21818   0.00339   0.00000  Uiso   1.00
H266   H     0.78182   0.36517   0.00339   0.00000  Uiso   1.00
C267   C     0.81515   0.76694   0.50347   0.00000  Uiso   1.00
X268   C     0.79930   0.70070   0.50332   0.00000  Uiso   1.00
C269   C     0.73306   0.68485   0.50347   0.00000  Uiso   1.00
C270   C     0.68485   0.73306   0.50347   0.00000  Uiso   1.00
X271   C     0.70070   0.79930   0.50332   0.00000  Uiso   1.00
C272   C     0.76694   0.81515   0.50347   0.00000  Uiso   1.00
H273   H     0.86517   0.78182   0.50339   0.00000  Uiso   1.00
H274   H     0.71818   0.63483   0.50339   0.00000  Uiso   1.00
H275   H     0.63483   0.71818   0.50339   0.00000  Uiso   1.00
H276   H     0.78182   0.86517   0.50339   0.00000  Uiso   1.00
C277   C     0.18485   0.23306   0.50347   0.00000  Uiso   1.00
X278   C     0.20070   0.29930   0.50332   0.00000  Uiso   1.00
C279   C     0.26694   0.31515   0.50347   0.00000  Uiso   1.00
C280   C     0.31515   0.26694   0.50347   0.00000  Uiso   1.00
X281   C     0.29930   0.20070   0.50332   0.00000  Uiso   1.00
C282   C     0.23306   0.18485   0.50347   0.00000  Uiso   1.00
H283   H     0.13483   0.21818   0.50339   0.00000  Uiso   1.00
H284   H     0.28182   0.36517   0.50339   0.00000  Uiso   1.00
H285   H     0.36517   0.28182   0.50339   0.00000  Uiso   1.00
H286   H     0.21818   0.13483   0.50339   0.00000  Uiso   1.00
C287   C     0.18485   0.73306   0.00347   0.00000  Uiso   1.00
X288   C     0.20070   0.79930   0.00332   0.00000  Uiso   1.00
C289   C     0.26694   0.81515   0.00347   0.00000  Uiso   1.00
C290   C     0.31515   0.76694   0.00347   0.00000  Uiso   1.00
X291   C     0.29930   0.70070   0.00332   0.00000  Uiso   1.00
C292   C     0.23306   0.68485   0.00347   0.00000  Uiso   1.00
H293   H     0.13483   0.71818   0.00339   0.00000  Uiso   1.00
H294   H     0.28182   0.86517   0.00339   0.00000  Uiso   1.00
H295   H     0.36517   0.78182   0.00339   0.00000  Uiso   1.00
H296   H     0.21818   0.63483   0.00339   0.00000  Uiso   1.00
C297   C    -0.00345   0.26694   0.18485   0.00000  Uiso   1.00
X298   C    -0.00332   0.20070   0.20070   0.00000  Uiso   1.00
C299   C    -0.00348   0.18485   0.26694   0.00000  Uiso   1.00
C300   C    -0.00348   0.23306   0.31515   0.00000  Uiso   1.00
X301   C    -0.00332   0.29930   0.29930   0.00000  Uiso   1.00
C302   C    -0.00345   0.31515   0.23306   0.00000  Uiso   1.00
H303   H    -0.00336   0.28182   0.13483   0.00000  Uiso   1.00
H304   H    -0.00342   0.13483   0.28182   0.00000  Uiso   1.00
H305   H    -0.00342   0.21818   0.36517   0.00000  Uiso   1.00
H306   H    -0.00336   0.36517   0.21818   0.00000  Uiso   1.00
C307   C     0.49653   0.31515   0.73306   0.00000  Uiso   1.00
X308   C     0.49668   0.29930   0.79930   0.00000  Uiso   1.00
C309   C     0.49654   0.23306   0.81515   0.00000  Uiso   1.00
C310   C     0.49654   0.18485   0.76694   0.00000  Uiso   1.00
X311   C     0.49668   0.20070   0.70070   0.00000  Uiso   1.00
C312   C     0.49653   0.26694   0.68485   0.00000  Uiso   1.00
H313   H     0.49660   0.36517   0.71818   0.00000  Uiso   1.00
H314   H     0.49662   0.21818   0.86517   0.00000  Uiso   1.00
H315   H     0.49662   0.13483   0.78182   0.00000  Uiso   1.00
H316   H     0.49660   0.28182   0.63483   0.00000  Uiso   1.00
C317   C    -0.00347   0.81515   0.73306   0.00000  Uiso   1.00
X318   C    -0.00332   0.79930   0.79930   0.00000  Uiso   1.00
C319   C    -0.00346   0.73306   0.81515   0.00000  Uiso   1.00
C320   C    -0.00346   0.68485   0.76694   0.00000  Uiso   1.00
X321   C    -0.00332   0.70070   0.70070   0.00000  Uiso   1.00
C322   C    -0.00347   0.76694   0.68485   0.00000  Uiso   1.00
H323   H    -0.00340   0.86517   0.71818   0.00000  Uiso   1.00
H324   H    -0.00338   0.71818   0.86517   0.00000  Uiso   1.00
H325   H    -0.00338   0.63483   0.78182   0.00000  Uiso   1.00
H326   H    -0.00340   0.78182   0.63483   0.00000  Uiso   1.00
C327   C     0.49655   0.76694   0.18485   0.00000  Uiso   1.00
X328   C     0.49668   0.70070   0.20070   0.00000  Uiso   1.00
C329   C     0.49652   0.68485   0.26694   0.00000  Uiso   1.00
C330   C     0.49652   0.73306   0.31515   0.00000  Uiso   1.00
X331   C     0.49668   0.79930   0.29930   0.00000  Uiso   1.00
C332   C     0.49655   0.81515   0.23306   0.00000  Uiso   1.00
H333   H     0.49664   0.78182   0.13483   0.00000  Uiso   1.00
H334   H     0.49658   0.63483   0.28182   0.00000  Uiso   1.00
H335   H     0.49658   0.71818   0.36517   0.00000  Uiso   1.00
H336   H     0.49664   0.86517   0.21818   0.00000  Uiso   1.00
C337   C     0.00346   0.81515   0.26694   0.00000  Uiso   1.00
X338   C     0.00332   0.79930   0.20070   0.00000  Uiso   1.00
C339   C     0.00347   0.73306   0.18485   0.00000  Uiso   1.00
C340   C     0.00347   0.68485   0.23306   0.00000  Uiso   1.00
X341   C     0.00332   0.70070   0.29930   0.00000  Uiso   1.00
C342   C     0.00346   0.76694   0.31515   0.00000  Uiso   1.00
H343   H     0.00338   0.86517   0.28182   0.00000  Uiso   1.00
H344   H     0.00340   0.71818   0.13483   0.00000  Uiso   1.00
H345   H     0.00340   0.63483   0.21818   0.00000  Uiso   1.00
H346   H     0.00338   0.78182   0.36517   0.00000  Uiso   1.00
C347   C     0.50348   0.76694   0.81515   0.00000  Uiso   1.00
X348   C     0.50332   0.70070   0.79930   0.00000  Uiso   1.00
C349   C     0.50345   0.68485   0.73306   0.00000  Uiso   1.00
C350   C     0.50345   0.73306   0.68485   0.00000  Uiso   1.00
X351   C     0.50332   0.79930   0.70070   0.00000  Uiso   1.00
C352   C     0.50348   0.81515   0.76694   0.00000  Uiso   1.00
H353   H     0.50342   0.78182   0.86517   0.00000  Uiso   1.00
H354   H     0.50336   0.63483   0.71818   0.00000  Uiso   1.00
H355   H     0.50336   0.71818   0.63483   0.00000  Uiso   1.00
H356   H     0.50342   0.86517   0.78182   0.00000  Uiso   1.00
C357   C     0.50346   0.31515   0.26694   0.00000  Uiso   1.00
X358   C     0.50332   0.29930   0.20070   0.00000  Uiso   1.00
C359   C     0.50347   0.23306   0.18485   0.00000  Uiso   1.00
C360   C     0.50347   0.18485   0.23306   0.00000  Uiso   1.00
X361   C     0.50332   0.20070   0.29930   0.00000  Uiso   1.00
C362   C     0.50346   0.26694   0.31515   0.00000  Uiso   1.00
H363   H     0.50338   0.36517   0.28182   0.00000  Uiso   1.00
H364   H     0.50340   0.21818   0.13483   0.00000  Uiso   1.00
H365   H     0.50340   0.13483   0.21818   0.00000  Uiso   1.00
H366   H     0.50338   0.28182   0.36517   0.00000  Uiso   1.00
C367   C     0.00348   0.26694   0.81515   0.00000  Uiso   1.00
X368   C     0.00332   0.20070   0.79930   0.00000  Uiso   1.00
C369   C     0.00345   0.18485   0.73306   0.00000  Uiso   1.00
C370   C     0.00345   0.23306   0.68485   0.00000  Uiso   1.00
X371   C     0.00332   0.29930   0.70070   0.00000  Uiso   1.00
C372   C     0.00348   0.31515   0.76694   0.00000  Uiso   1.00
H373   H     0.00342   0.28182   0.86517   0.00000  Uiso   1.00
H374   H     0.00336   0.13483   0.71818   0.00000  Uiso   1.00
H375   H     0.00336   0.21818   0.63483   0.00000  Uiso   1.00
H376   H     0.00342   0.36517   0.78182   0.00000  Uiso   1.00
C377   C     0.18485  -0.00346   0.26694   0.00000  Uiso   1.00
X378   C     0.20070  -0.00332   0.20070   0.00000  Uiso   1.00
C379   C     0.26694  -0.00347   0.18485   0.00000  Uiso   1.00
C380   C     0.31515  -0.00347   0.23306   0.00000  Uiso   1.00
X381   C     0.29930  -0.00332   0.29930   0.00000  Uiso   1.00
C382   C     0.23306  -0.00346   0.31515   0.00000  Uiso   1.00
H383   H     0.13483  -0.00339   0.28182   0.00000  Uiso   1.00
H384   H     0.28182  -0.00339   0.13483   0.00000  Uiso   1.00
H385   H     0.36517  -0.00339   0.21818   0.00000  Uiso   1.00
H386   H     0.21818  -0.00339   0.36517   0.00000  Uiso   1.00
C387   C     0.31515   0.49653   0.73306   0.00000  Uiso   1.00
X388   C     0.29930   0.49668   0.79930   0.00000  Uiso   1.00
C389   C     0.23306   0.49654   0.81515   0.00000  Uiso   1.00
C390   C     0.18485   0.49654   0.76694   0.00000  Uiso   1.00
X391   C     0.20070   0.49668   0.70070   0.00000  Uiso   1.00
C392   C     0.26694   0.49653   0.68485   0.00000  Uiso   1.00
H393   H     0.36517   0.49660   0.71818   0.00000  Uiso   1.00
H394   H     0.21818   0.49662   0.86517   0.00000  Uiso   1.00
H395   H     0.13483   0.49662   0.78182   0.00000  Uiso   1.00
H396   H     0.28182   0.49660   0.63483   0.00000  Uiso   1.00
C397   C     0.81515  -0.00347   0.73306   0.00000  Uiso   1.00
X398   C     0.79930  -0.00332   0.79930   0.00000  Uiso   1.00
C399   C     0.73306  -0.00346   0.81515   0.00000  Uiso   1.00
C400   C     0.68485  -0.00346   0.76694   0.00000  Uiso   1.00
X401   C     0.70070  -0.00332   0.70070   0.00000  Uiso   1.00
C402   C     0.76694  -0.00347   0.68485   0.00000  Uiso   1.00
H403   H     0.86517  -0.00340   0.71818   0.00000  Uiso   1.00
H404   H     0.71818  -0.00338   0.86517   0.00000  Uiso   1.00
H405   H     0.63483  -0.00338   0.78182   0.00000  Uiso   1.00
H406   H     0.78182  -0.00340   0.63483   0.00000  Uiso   1.00
C407   C     0.68485   0.49654   0.26694   0.00000  Uiso   1.00
X408   C     0.70070   0.49668   0.20070   0.00000  Uiso   1.00
C409   C     0.76694   0.49653   0.18485   0.00000  Uiso   1.00
C410   C     0.81515   0.49653   0.23306   0.00000  Uiso   1.00
X411   C     0.79930   0.49668   0.29930   0.00000  Uiso   1.00
C412   C     0.73306   0.49654   0.31515   0.00000  Uiso   1.00
H413   H     0.63483   0.49661   0.28182   0.00000  Uiso   1.00
H414   H     0.78182   0.49661   0.13483   0.00000  Uiso   1.00
H415   H     0.86517   0.49661   0.21818   0.00000  Uiso   1.00
H416   H     0.71818   0.49661   0.36517   0.00000  Uiso   1.00
C417   C     0.18485   0.00347   0.73306   0.00000  Uiso   1.00
X418   C     0.20070   0.00332   0.79930   0.00000  Uiso   1.00
C419   C     0.26694   0.00346   0.81515   0.00000  Uiso   1.00
C420   C     0.31515   0.00346   0.76694   0.00000  Uiso   1.00
X421   C     0.29930   0.00332   0.70070   0.00000  Uiso   1.00
C422   C     0.23306   0.00347   0.68485   0.00000  Uiso   1.00
H423   H     0.13483   0.00339   0.71818   0.00000  Uiso   1.00
H424   H     0.28182   0.00339   0.86517   0.00000  Uiso   1.00
H425   H     0.36517   0.00339   0.78182   0.00000  Uiso   1.00
H426   H     0.21818   0.00339   0.63483   0.00000  Uiso   1.00
C427   C     0.31515   0.50346   0.26694   0.00000  Uiso   1.00
X428   C     0.29930   0.50332   0.20070   0.00000  Uiso   1.00
C429   C     0.23306   0.50347   0.18485   0.00000  Uiso   1.00
C430   C     0.18485   0.50347   0.23306   0.00000  Uiso   1.00
X431   C     0.20070   0.50332   0.29930   0.00000  Uiso   1.00
C432   C     0.26694   0.50346   0.31515   0.00000  Uiso   1.00
H433   H     0.36517   0.50338   0.28182   0.00000  Uiso   1.00
H434   H     0.21818   0.50340   0.13483   0.00000  Uiso   1.00
H435   H     0.13483   0.50340   0.21818   0.00000  Uiso   1.00
H436   H     0.28182   0.50338   0.36517   0.00000  Uiso   1.00
C437   C     0.81515   0.00346   0.26694   0.00000  Uiso   1.00
X438   C     0.79930   0.00332   0.20070   0.00000  Uiso   1.00
C439   C     0.73306   0.00347   0.18485   0.00000  Uiso   1.00
C440   C     0.68485   0.00347   0.23306   0.00000  Uiso   1.00
X441   C     0.70070   0.00332   0.29930   0.00000  Uiso   1.00
C442   C     0.76694   0.00346   0.31515   0.00000  Uiso   1.00
H443   H     0.86517   0.00338   0.28182   0.00000  Uiso   1.00
H444   H     0.71818   0.00340   0.13483   0.00000  Uiso   1.00
H445   H     0.63483   0.00340   0.21818   0.00000  Uiso   1.00
H446   H     0.78182   0.00338   0.36517   0.00000  Uiso   1.00
C447   C     0.68485   0.50347   0.73306   0.00000  Uiso   1.00
X448   C     0.70070   0.50332   0.79930   0.00000  Uiso   1.00
C449   C     0.76694   0.50346   0.81515   0.00000  Uiso   1.00
C450   C     0.81515   0.50346   0.76694   0.00000  Uiso   1.00
X451   C     0.79930   0.50332   0.70070   0.00000  Uiso   1.00
C452   C     0.73306   0.50347   0.68485   0.00000  Uiso   1.00
H453   H     0.63483   0.50339   0.71818   0.00000  Uiso   1.00
H454   H     0.78182   0.50339   0.86517   0.00000  Uiso   1.00
H455   H     0.86517   0.50339   0.78182   0.00000  Uiso   1.00
H456   H     0.71818   0.50339   0.63483   0.00000  Uiso   1.00
loop_
_geom_bond_atom_site_label_1
_geom_bond_atom_site_label_2
_geom_bond_distance
_geom_bond_site_symmetry_2
_ccdc_geom_bond_type
O1     Zr37    2.140   .     S
O1     X12     1.307   .     A
O2     Zr36    2.140   .     S
O2     X13     1.307   .     A
O3     Zr9     2.140   .     S
O3     X14     1.307   .     A
O4     Zr9     2.140   .     S
O4     X15     1.307   .     A
O5     Zr39    2.140   .     S
O5     X15     1.307   .     A
O6     Zr38    2.140   .     S
O6     X14     1.307   .     A
O7     Zr9     2.140   .     S
O7     X13     1.307   .     A
O8     Zr9     2.140   .     S
O8     X12     1.307   .     A
Zr9    O10     2.076   .     S
Zr9    O11     2.076   .     S
Zr9    O19     2.071   .     S
Zr9    O17     2.071   .     S
O10    Zr36    2.076   .     S
O10    Zr39    2.076   .     S
O11    Zr37    2.076   .     S
O11    Zr38    2.076   .     S
X12    X258    1.521   1_455 S
X13    X218    1.521   .     S
X14    X298    1.521   .     S
X15    X368    1.521   1_554 S
H16    O17     0.988   .     S
O17    Zr36    2.071   .     S
O17    Zr38    2.071   .     S
H18    O19     0.988   .     S
O19    Zr37    2.071   .     S
O19    Zr39    2.071   .     S
O20    Zr36    2.140   .     S
O20    X43     1.307   .     A
O21    Zr37    2.140   .     S
O21    X44     1.307   .     A
O22    Zr38    2.140   .     S
O22    X45     1.307   .     A
O23    Zr39    2.140   .     S
O23    X46     1.307   .     A
O24    Zr39    2.140   .     S
O24    X47     1.307   .     A
O25    Zr38    2.140   .     S
O25    X48     1.307   .     A
O26    Zr40    2.140   .     S
O26    X49     1.307   .     A
O27    Zr40    2.140   .     S
O27    X50     1.307   .     A
O28    Zr38    2.140   .     S
O28    X49     1.307   .     A
O29    Zr39    2.140   .     S
O29    X50     1.307   .     A
O30    Zr36    2.140   .     S
O30    X45     1.307   .     A
O31    Zr37    2.140   .     S
O31    X48     1.307   .     A
O32    Zr37    2.140   .     S
O32    X47     1.307   .     A
O33    Zr36    2.140   .     S
O33    X46     1.307   .     A
O34    Zr40    2.140   .     S
O34    X43     1.307   .     A
O35    Zr40    2.140   .     S
O35    X44     1.307   .     A
Zr36   O42     2.076   .     S
Zr36   O54     2.071   .     S
Zr37   O41     2.076   .     S
Zr37   O52     2.071   .     S
Zr38   O42     2.076   .     S
Zr38   O52     2.071   .     S
Zr39   O41     2.076   .     S
Zr39   O54     2.071   .     S
Zr40   O41     2.076   .     S
Zr40   O42     2.076   .     S
Zr40   O54     2.071   .     S
Zr40   O52     2.071   .     S
X43    X288    1.521   1_545 S
X44    X238    1.521   1_445 S
X45    X378    1.521   .     S
X46    X418    1.521   1_554 S
X47    X398    1.521   1_454 S
X48    X438    1.521   1_455 S
X49    X338    1.521   1_545 S
X50    X318    1.521   1_544 S
H51    O52     0.988   .     S
H53    O54     0.988   .     S
O55    Zr91    2.140   .     S
O55    X66     1.307   .     A
O56    Zr90    2.140   .     S
O56    X67     1.307   .     A
O57    Zr63    2.140   .     S
O57    X68     1.307   .     A
O58    Zr63    2.140   .     S
O58    X69     1.307   .     A
O59    Zr93    2.140   .     S
O59    X69     1.307   .     A
O60    Zr92    2.140   .     S
O60    X68     1.307   .     A
O61    Zr63    2.140   .     S
O61    X67     1.307   .     A
O62    Zr63    2.140   .     S
O62    X66     1.307   .     A
Zr63   O64     2.076   .     S
Zr63   O65     2.076   .     S
Zr63   O73     2.071   .     S
Zr63   O71     2.071   .     S
O64    Zr90    2.076   .     S
O64    Zr93    2.076   .     S
O65    Zr91    2.076   .     S
O65    Zr92    2.076   .     S
X66    X291    1.521   .     S
X67    X241    1.521   .     S
X68    X328    1.521   .     S
X69    X348    1.521   1_554 S
H70    O71     0.988   .     S
O71    Zr90    2.071   .     S
O71    Zr92    2.071   .     S
H72    O73     0.988   .     S
O73    Zr91    2.071   .     S
O73    Zr93    2.071   .     S
O74    Zr90    2.140   .     S
O74    X97     1.307   .     A
O75    Zr91    2.140   .     S
O75    X98     1.307   .     A
O76    Zr92    2.140   .     S
O76    X99     1.307   .     A
O77    Zr93    2.140   .     S
O77    X100    1.307   .     A
O78    Zr93    2.140   .     S
O78    X101    1.307   .     A
O79    Zr92    2.140   .     S
O79    X102    1.307   .     A
O80    Zr94    2.140   .     S
O80    X103    1.307   .     A
O81    Zr94    2.140   .     S
O81    X104    1.307   .     A
O82    Zr92    2.140   .     S
O82    X103    1.307   .     A
O83    Zr93    2.140   .     S
O83    X104    1.307   .     A
O84    Zr90    2.140   .     S
O84    X99     1.307   .     A
O85    Zr91    2.140   .     S
O85    X102    1.307   .     A
O86    Zr91    2.140   .     S
O86    X101    1.307   .     A
O87    Zr90    2.140   .     S
O87    X100    1.307   .     A
O88    Zr94    2.140   .     S
O88    X97     1.307   .     A
O89    Zr94    2.140   .     S
O89    X98     1.307   .     A
Zr90   O96     2.076   .     S
Zr90   O108    2.071   .     S
Zr91   O95     2.076   .     S
Zr91   O106    2.071   .     S
Zr92   O96     2.076   .     S
Zr92   O106    2.071   .     S
Zr93   O95     2.076   .     S
Zr93   O108    2.071   .     S
Zr94   O95     2.076   .     S
Zr94   O96     2.076   .     S
Zr94   O108    2.071   .     S
Zr94   O106    2.071   .     S
X97    X261    1.521   .     S
X98    X221    1.521   .     S
X99    X408    1.521   .     S
X100   X448    1.521   1_554 S
X101   X388    1.521   1_554 S
X102   X428    1.521   .     S
X103   X358    1.521   .     S
X104   X308    1.521   1_554 S
H105   O106    0.988   .     S
H107   O108    0.988   .     S
O109   Zr145   2.140   .     S
O109   X120    1.307   .     A
O110   Zr144   2.140   .     S
O110   X121    1.307   .     A
O111   Zr117   2.140   .     S
O111   X122    1.307   .     A
O112   Zr117   2.140   .     S
O112   X123    1.307   .     A
O113   Zr147   2.140   .     S
O113   X123    1.307   .     A
O114   Zr146   2.140   .     S
O114   X122    1.307   .     A
O115   Zr117   2.140   .     S
O115   X121    1.307   .     A
O116   Zr117   2.140   .     S
O116   X120    1.307   .     A
Zr117  O118    2.076   .     S
Zr117  O119    2.076   .     S
Zr117  O127    2.071   .     S
Zr117  O125    2.071   .     S
O118   Zr144   2.076   .     S
O118   Zr147   2.076   .     S
O119   Zr145   2.076   .     S
O119   Zr146   2.076   .     S
X120   X268    1.521   1_455 S
X121   X228    1.521   .     S
X122   X321    1.521   .     S
X123   X341    1.521   .     S
H124   O125    0.988   .     S
O125   Zr144   2.071   .     S
O125   Zr146   2.071   .     S
H126   O127    0.988   .     S
O127   Zr145   2.071   .     S
O127   Zr147   2.071   .     S
O128   Zr144   2.140   .     S
O128   X151    1.307   .     A
O129   Zr145   2.140   .     S
O129   X152    1.307   .     A
O130   Zr146   2.140   .     S
O130   X153    1.307   .     A
O131   Zr147   2.140   .     S
O131   X154    1.307   .     A
O132   Zr147   2.140   .     S
O132   X155    1.307   .     A
O133   Zr146   2.140   .     S
O133   X156    1.307   .     A
O134   Zr148   2.140   .     S
O134   X157    1.307   .     A
O135   Zr148   2.140   .     S
O135   X158    1.307   .     A
O136   Zr146   2.140   .     S
O136   X157    1.307   .     A
O137   Zr147   2.140   .     S
O137   X158    1.307   .     A
O138   Zr144   2.140   .     S
O138   X153    1.307   .     A
O139   Zr145   2.140   .     S
O139   X156    1.307   .     A
O140   Zr145   2.140   .     S
O140   X155    1.307   .     A
O141   Zr144   2.140   .     S
O141   X154    1.307   .     A
O142   Zr148   2.140   .     S
O142   X151    1.307   .     A
O143   Zr148   2.140   .     S
O143   X152    1.307   .     A
Zr144  O150    2.076   .     S
Zr144  O162    2.071   .     S
Zr145  O149    2.076   .     S
Zr145  O160    2.071   .     S
Zr146  O150    2.076   .     S
Zr146  O160    2.071   .     S
Zr147  O149    2.076   .     S
Zr147  O162    2.071   .     S
Zr148  O149    2.076   .     S
Zr148  O150    2.076   .     S
Zr148  O162    2.071   .     S
Zr148  O160    2.071   .     S
X151   X278    1.521   .     S
X152   X248    1.521   1_455 S
X153   X391    1.521   .     S
X154   X431    1.521   .     S
X155   X411    1.521   1_455 S
X156   X451    1.521   1_455 S
X157   X371    1.521   .     S
X158   X301    1.521   .     S
H159   O160    0.988   .     S
H161   O162    0.988   .     S
O163   Zr199   2.140   .     S
O163   X174    1.307   .     A
O164   Zr198   2.140   .     S
O164   X175    1.307   .     A
O165   Zr171   2.140   .     S
O165   X176    1.307   .     A
O166   Zr171   2.140   .     S
O166   X177    1.307   .     A
O167   Zr201   2.140   .     S
O167   X177    1.307   .     A
O168   Zr200   2.140   .     S
O168   X176    1.307   .     A
O169   Zr171   2.140   .     S
O169   X175    1.307   .     A
O170   Zr171   2.140   .     S
O170   X174    1.307   .     A
Zr171  O172    2.076   .     S
Zr171  O173    2.076   .     S
Zr171  O181    2.071   .     S
Zr171  O179    2.071   .     S
O172   Zr198   2.076   .     S
O172   Zr201   2.076   .     S
O173   Zr199   2.076   .     S
O173   Zr200   2.076   .     S
X174   X281    1.521   .     S
X175   X251    1.521   .     S
X176   X311    1.521   .     S
X177   X361    1.521   .     S
H178   O179    0.988   .     S
O179   Zr198   2.071   .     S
O179   Zr200   2.071   .     S
H180   O181    0.988   .     S
O181   Zr199   2.071   .     S
O181   Zr201   2.071   .     S
O182   Zr198   2.140   .     S
O182   X205    1.307   .     A
O183   Zr199   2.140   .     S
O183   X206    1.307   .     A
O184   Zr200   2.140   .     S
O184   X207    1.307   .     A
O185   Zr201   2.140   .     S
O185   X208    1.307   .     A
O186   Zr201   2.140   .     S
O186   X209    1.307   .     A
O187   Zr200   2.140   .     S
O187   X210    1.307   .     A
O188   Zr202   2.140   .     S
O188   X211    1.307   .     A
O189   Zr202   2.140   .     S
O189   X212    1.307   .     A
O190   Zr200   2.140   .     S
O190   X211    1.307   .     A
O191   Zr201   2.140   .     S
O191   X212    1.307   .     A
O192   Zr198   2.140   .     S
O192   X207    1.307   .     A
O193   Zr199   2.140   .     S
O193   X210    1.307   .     A
O194   Zr199   2.140   .     S
O194   X209    1.307   .     A
O195   Zr198   2.140   .     S
O195   X208    1.307   .     A
O196   Zr202   2.140   .     S
O196   X205    1.307   .     A
O197   Zr202   2.140   .     S
O197   X206    1.307   .     A
Zr198  O204    2.076   .     S
Zr198  O216    2.071   .     S
Zr199  O203    2.076   .     S
Zr199  O214    2.071   .     S
Zr200  O204    2.076   .     S
Zr200  O214    2.071   .     S
Zr201  O203    2.076   .     S
Zr201  O216    2.071   .     S
Zr202  O203    2.076   .     S
Zr202  O204    2.076   .     S
Zr202  O216    2.071   .     S
Zr202  O214    2.071   .     S
X205   X271    1.521   1_545 S
X206   X231    1.521   1_545 S
X207   X401    1.521   .     S
X208   X441    1.521   .     S
X209   X381    1.521   .     S
X210   X421    1.521   .     S
X211   X351    1.521   1_545 S
X212   X331    1.521   1_545 S
H213   O214    0.988   .     S
H215   O216    0.988   .     S
C217   X218    1.413   .     A
C217   C222    1.415   .     A
C217   H223    1.083   .     S
X218   C219    1.413   .     A
C219   C220    1.415   .     A
C219   H224    1.083   .     S
C220   X221    1.413   .     A
C220   H225    1.083   .     S
X221   C222    1.413   .     A
C222   H226    1.083   .     S
C227   X228    1.413   .     A
C227   C232    1.415   .     A
C227   H233    1.083   .     S
X228   C229    1.413   .     A
C229   C230    1.415   .     A
C229   H234    1.083   .     S
C230   X231    1.413   .     A
C230   H235    1.083   .     S
X231   C232    1.413   .     A
X231   X206    1.521   1_565 S
C232   H236    1.083   .     S
C237   X238    1.413   .     A
C237   C242    1.415   .     A
C237   H243    1.083   .     S
X238   C239    1.413   .     A
X238   X44     1.521   1_665 S
C239   C240    1.415   .     A
C239   H244    1.083   .     S
C240   X241    1.413   .     A
C240   H245    1.083   .     S
X241   C242    1.413   .     A
C242   H246    1.083   .     S
C247   X248    1.413   .     A
C247   C252    1.415   .     A
C247   H253    1.083   .     S
X248   C249    1.413   .     A
X248   X152    1.521   1_655 S
C249   C250    1.415   .     A
C249   H254    1.083   .     S
C250   X251    1.413   .     A
C250   H255    1.083   .     S
X251   C252    1.413   .     A
C252   H256    1.083   .     S
C257   X258    1.413   .     A
C257   C262    1.415   .     A
C257   H263    1.083   .     S
X258   C259    1.413   .     A
X258   X12     1.521   1_655 S
C259   C260    1.415   .     A
C259   H264    1.083   .     S
C260   X261    1.413   .     A
C260   H265    1.083   .     S
X261   C262    1.413   .     A
C262   H266    1.083   .     S
C267   X268    1.413   .     A
C267   C272    1.415   .     A
C267   H273    1.083   .     S
X268   C269    1.413   .     A
X268   X120    1.521   1_655 S
C269   C270    1.415   .     A
C269   H274    1.083   .     S
C270   X271    1.413   .     A
C270   H275    1.083   .     S
X271   C272    1.413   .     A
X271   X205    1.521   1_565 S
C272   H276    1.083   .     S
C277   X278    1.413   .     A
C277   C282    1.415   .     A
C277   H283    1.083   .     S
X278   C279    1.413   .     A
C279   C280    1.415   .     A
C279   H284    1.083   .     S
C280   X281    1.413   .     A
C280   H285    1.083   .     S
X281   C282    1.413   .     A
C282   H286    1.083   .     S
C287   X288    1.413   .     A
C287   C292    1.415   .     A
C287   H293    1.083   .     S
X288   C289    1.413   .     A
X288   X43     1.521   1_565 S
C289   C290    1.415   .     A
C289   H294    1.083   .     S
C290   X291    1.413   .     A
C290   H295    1.083   .     S
X291   C292    1.413   .     A
C292   H296    1.083   .     S
C297   X298    1.413   .     A
C297   C302    1.415   .     A
C297   H303    1.083   .     S
X298   C299    1.413   .     A
C299   C300    1.415   .     A
C299   H304    1.083   .     S
C300   X301    1.413   .     A
C300   H305    1.083   .     S
X301   C302    1.413   .     A
C302   H306    1.083   .     S
C307   X308    1.413   .     A
C307   C312    1.415   .     A
C307   H313    1.083   .     S
X308   C309    1.413   .     A
X308   X104    1.521   1_556 S
C309   C310    1.415   .     A
C309   H314    1.083   .     S
C310   X311    1.413   .     A
C310   H315    1.083   .     S
X311   C312    1.413   .     A
C312   H316    1.083   .     S
C317   X318    1.413   .     A
C317   C322    1.415   .     A
C317   H323    1.083   .     S
X318   C319    1.413   .     A
X318   X50     1.521   1_566 S
C319   C320    1.415   .     A
C319   H324    1.083   .     S
C320   X321    1.413   .     A
C320   H325    1.083   .     S
X321   C322    1.413   .     A
C322   H326    1.083   .     S
C327   X328    1.413   .     A
C327   C332    1.415   .     A
C327   H333    1.083   .     S
X328   C329    1.413   .     A
C329   C330    1.415   .     A
C329   H334    1.083   .     S
C330   X331    1.413   .     A
C330   H335    1.083   .     S
X331   C332    1.413   .     A
X331   X212    1.521   1_565 S
C332   H336    1.083   .     S
C337   X338    1.413   .     A
C337   C342    1.415   .     A
C337   H343    1.083   .     S
X338   C339    1.413   .     A
X338   X49     1.521   1_565 S
C339   C340    1.415   .     A
C339   H344    1.083   .     S
C340   X341    1.413   .     A
C340   H345    1.083   .     S
X341   C342    1.413   .     A
C342   H346    1.083   .     S
C347   X348    1.413   .     A
C347   C352    1.415   .     A
C347   H353    1.083   .     S
X348   C349    1.413   .     A
X348   X69     1.521   1_556 S
C349   C350    1.415   .     A
C349   H354    1.083   .     S
C350   X351    1.413   .     A
C350   H355    1.083   .     S
X351   C352    1.413   .     A
X351   X211    1.521   1_565 S
C352   H356    1.083   .     S
C357   X358    1.413   .     A
C357   C362    1.415   .     A
C357   H363    1.083   .     S
X358   C359    1.413   .     A
C359   C360    1.415   .     A
C359   H364    1.083   .     S
C360   X361    1.413   .     A
C360   H365    1.083   .     S
X361   C362    1.413   .     A
C362   H366    1.083   .     S
C367   X368    1.413   .     A
C367   C372    1.415   .     A
C367   H373    1.083   .     S
X368   C369    1.413   .     A
X368   X15     1.521   1_556 S
C369   C370    1.415   .     A
C369   H374    1.083   .     S
C370   X371    1.413   .     A
C370   H375    1.083   .     S
X371   C372    1.413   .     A
C372   H376    1.083   .     S
C377   X378    1.413   .     A
C377   C382    1.415   .     A
C377   H383    1.083   .     S
X378   C379    1.413   .     A
C379   C380    1.415   .     A
C379   H384    1.083   .     S
C380   X381    1.413   .     A
C380   H385    1.083   .     S
X381   C382    1.413   .     A
C382   H386    1.083   .     S
C387   X388    1.413   .     A
C387   C392    1.415   .     A
C387   H393    1.083   .     S
X388   C389    1.413   .     A
X388   X101    1.521   1_556 S
C389   C390    1.415   .     A
C389   H394    1.083   .     S
C390   X391    1.413   .     A
C390   H395    1.083   .     S
X391   C392    1.413   .     A
C392   H396    1.083   .     S
C397   X398    1.413   .     A
C397   C402    1.415   .     A
C397   H403    1.083   .     S
X398   C399    1.413   .     A
X398   X47     1.521   1_656 S
C399   C400    1.415   .     A
C399   H404    1.083   .     S
C400   X401    1.413   .     A
C400   H405    1.083   .     S
X401   C402    1.413   .     A
C402   H406    1.083   .     S
C407   X408    1.413   .     A
C407   C412    1.415   .     A
C407   H413    1.083   .     S
X408   C409    1.413   .     A
C409   C410    1.415   .     A
C409   H414    1.083   .     S
C410   X411    1.413   .     A
C410   H415    1.083   .     S
X411   C412    1.413   .     A
X411   X155    1.521   1_655 S
C412   H416    1.083   .     S
C417   X418    1.413   .     A
C417   C422    1.415   .     A
C417   H423    1.083   .     S
X418   C419    1.413   .     A
X418   X46     1.521   1_556 S
C419   C420    1.415   .     A
C419   H424    1.083   .     S
C420   X421    1.413   .     A
C420   H425    1.083   .     S
X421   C422    1.413   .     A
C422   H426    1.083   .     S
C427   X428    1.413   .     A
C427   C432    1.415   .     A
C427   H433    1.083   .     S
X428   C429    1.413   .     A
C429   C430    1.415   .     A
C429   H434    1.083   .     S
C430   X431    1.413   .     A
C430   H435    1.083   .     S
X431   C432    1.413   .     A
C432   H436    1.083   .     S
C437   X438    1.413   .     A
C437   C442    1.415   .     A
C437   H443    1.083   .     S
X438   C439    1.413   .     A
X438   X48     1.521   1_655 S
C439   C440    1.415   .     A
C439   H444    1.083   .     S
C440   X441    1.413   .     A
C440   H445    1.083   .     S
X441   C442    1.413   .     A
C442   H446    1.083   .     S
C447   X448    1.413   .     A
C447   C452    1.415   .     A
C447   H453    1.083   .     S
X448   C449    1.413   .     A
X448   X100    1.521   1_556 S
C449   C450    1.415   .     A
C449   H454    1.083   .     S
C450   X451    1.413   .     A
C450   H455    1.083   .     S
X451   C452    1.413   .     A
X451   X156    1.521   1_655 S
C452   H456    1.083   .     S
