data_image0
_cell_length_a       11.7865
_cell_length_b       16.716
_cell_length_c       52.892
_cell_angle_alpha    90
_cell_angle_beta     90
_cell_angle_gamma    90

_symmetry_space_group_name_H-M    "P 1"
_symmetry_int_tables_number       1

loop_
  _symmetry_equiv_pos_as_xyz
  'x, y, z'

loop_
  _atom_site_label
  _atom_site_occupancy
  _atom_site_fract_x
  _atom_site_fract_y
  _atom_site_fract_z
  _atom_site_thermal_displace_type
  _atom_site_B_iso_or_equiv
  _atom_site_type_symbol
  C1       1.0000 0.81230  0.43670  0.85722  Biso   1.000  C
  C2       1.0000 0.77200  0.50390  0.87345  Biso   1.000  C
  C3       1.0000 0.69670  0.55940  0.86376  Biso   1.000  C
  H1       1.0000 0.66920  0.55330  0.84740  Biso   1.000  H
  C4       1.0000 0.66220  0.62330  0.87801  Biso   1.000  C
  H2       1.0000 0.60920  0.65920  0.87160  Biso   1.000  H
  C5       1.0000 0.70690  0.63420  0.90208  Biso   1.000  C
  C6       1.0000 0.78170  0.57960  0.91162  Biso   1.000  C
  H3       1.0000 0.81100  0.58700  0.92780  Biso   1.000  H
  C7       1.0000 0.81480  0.51350  0.89765  Biso   1.000  C
  H4       1.0000 0.86480  0.47620  0.90440  Biso   1.000  H
  C8       1.0000 0.67070  0.70430  0.91750  Biso   1.000  C
  C9       1.0000 0.05970  0.20750  0.82965  Biso   1.000  C
  C10      1.0000 0.13980  0.13850  0.83320  Biso   1.000  C
  C11      1.0000 0.14540  0.09890  0.85579  Biso   1.000  C
  H5       1.0000 0.09950  0.11470  0.86920  Biso   1.000  H
  C12      1.0000 0.21910  0.03540  0.85875  Biso   1.000  C
  H6       1.0000 0.22110  0.00860  0.87420  Biso   1.000  H
  C13      1.0000 0.28960  0.01060  0.83957  Biso   1.000  C
  C14      1.0000 0.28080  0.04880  0.81639  Biso   1.000  C
  H7       1.0000 0.32590  0.03210  0.80300  Biso   1.000  H
  C15      1.0000 0.20610  0.11110  0.81303  Biso   1.000  C
  H8       1.0000 0.19960  0.13510  0.79720  Biso   1.000  H
  C16      1.0000 0.37280  0.94140  0.84315  Biso   1.000  C
  C17      1.0000 0.86940  0.31350  0.76371  Biso   1.000  C
  H9       1.0000 0.92270  0.27330  0.76630  Biso   1.000  H
  C18      1.0000 0.81570  0.31570  0.74012  Biso   1.000  C
  H10      1.0000 0.83610  0.27960  0.72750  Biso   1.000  H
  C19      1.0000 0.73360  0.37080  0.73570  Biso   1.000  C
  C20      1.0000 0.71590  0.42430  0.75467  Biso   1.000  C
  H11      1.0000 0.66400  0.46580  0.75260  Biso   1.000  H
  C21      1.0000 0.77580  0.41650  0.77697  Biso   1.000  C
  H12      1.0000 0.76040  0.45380  0.78960  Biso   1.000  H
  C22      1.0000 0.66770  0.37390  0.71185  Biso   1.000  C
  C23      1.0000 0.69980  0.32860  0.69103  Biso   1.000  C
  H13      1.0000 0.76340  0.29590  0.69230  Biso   1.000  H
  C24      1.0000 0.64100  0.33030  0.66847  Biso   1.000  C
  H14      1.0000 0.66560  0.29950  0.65490  Biso   1.000  H
  C25      1.0000 0.54560  0.37760  0.66608  Biso   1.000  C
  C26      1.0000 0.51360  0.42370  0.68690  Biso   1.000  C
  H15      1.0000 0.45060  0.45700  0.68570  Biso   1.000  H
  C27      1.0000 0.57360  0.42070  0.70917  Biso   1.000  C
  H16      1.0000 0.54930  0.45140  0.72280  Biso   1.000  H
  C28      1.0000 0.50000  0.36020  0.61961  Biso   1.000  C
  C29      1.0000 0.40650  0.34230  0.60447  Biso   1.000  C
  H17      1.0000 0.33400  0.34540  0.61130  Biso   1.000  H
  C30      1.0000 0.41920  0.32060  0.58000  Biso   1.000  C
  H18      1.0000 0.35520  0.31020  0.57030  Biso   1.000  H
  C31      1.0000 0.52710  0.31350  0.56897  Biso   1.000  C
  C32      1.0000 0.61880  0.33200  0.58468  Biso   1.000  C
  H19      1.0000 0.69160  0.32920  0.57800  Biso   1.000  H
  C33      1.0000 0.60660  0.35400  0.60928  Biso   1.000  C
  H20      1.0000 0.67030  0.36470  0.61910  Biso   1.000  H
  C34      1.0000 0.46480  0.25300  0.50224  Biso   1.000  C
  H21      1.0000 0.40070  0.24750  0.49210  Biso   1.000  H
  C35      1.0000 0.44900  0.28160  0.52638  Biso   1.000  C
  H22      1.0000 0.37740  0.29790  0.53170  Biso   1.000  H
  C36      1.0000 0.54050  0.28610  0.54263  Biso   1.000  C
  C37      1.0000 0.63940  0.27000  0.53193  Biso   1.000  C
  H23      1.0000 0.70630  0.27860  0.54080  Biso   1.000  H
  C38      1.0000 0.64360  0.24030  0.50736  Biso   1.000  C
  H24      1.0000 0.71450  0.22420  0.50160  Biso   1.000  H
  C39      1.0000 0.13850  0.20660  0.92366  Biso   1.000  C
  C40      1.0000 0.21510  0.13530  0.92735  Biso   1.000  C
  C41      1.0000 0.19660  0.08530  0.94748  Biso   1.000  C
  H25      1.0000 0.13670  0.09540  0.95850  Biso   1.000  H
  C42      1.0000 0.26610  0.01980  0.95158  Biso   1.000  C
  H26      1.0000 0.25460  0.98710  0.96560  Biso   1.000  H
  C43      1.0000 0.35270  0.00320  0.93473  Biso   1.000  C
  C44      1.0000 0.37050  0.05420  0.91509  Biso   1.000  C
  H27      1.0000 0.42970  0.04430  0.90390  Biso   1.000  H
  C45      1.0000 0.30270  0.11960  0.91151  Biso   1.000  C
  H28      1.0000 0.31700  0.15380  0.89800  Biso   1.000  H
  C46      1.0000 0.42610  0.93270  0.93931  Biso   1.000  C
  Cd1      1.0000 0.91535  0.33579  0.82221  Biso   1.000  Cd
  Cd2      1.0000 0.02490  0.32415  0.88513  Biso   1.000  Cd
  Cd3      1.0000 0.56716  0.80678  0.95058  Biso   1.000  Cd
  N1       1.0000 0.85170  0.36220  0.78221  Biso   1.000  N
  N2       1.0000 0.56310  0.23260  0.49220  Biso   1.000  N
  N3       1.0000 0.47660  0.38360  0.64448  Biso   1.000  N
  O1       1.0000 0.78050  0.43370  0.83476  Biso   1.000  O
  O2       1.0000 0.87540  0.38260  0.86608  Biso   1.000  O
  O3       1.0000 0.62210  0.76141  0.90693  Biso   1.000  O
  O4       1.0000 0.69060  0.70462  0.94070  Biso   1.000  O
  O5       1.0000 0.01740  0.24122  0.84882  Biso   1.000  O
  O6       1.0000 0.03520  0.23020  0.80783  Biso   1.000  O
  O7       1.0000 0.36620  0.90806  0.86437  Biso   1.000  O
  O8       1.0000 0.44040  0.92676  0.82610  Biso   1.000  O
  O9       1.0000 0.48480  0.90376  0.92158  Biso   1.000  O
  O10      1.0000 0.43020  0.90330  0.96091  Biso   1.000  O
  O11      1.0000 0.07790  0.22400  0.94215  Biso   1.000  O
  O12      1.0000 0.14240  0.24051  0.90306  Biso   1.000  O
  C47      1.0000 0.68770  0.06330  0.35722  Biso   1.000  C
  C48      1.0000 0.72800  0.99610  0.37345  Biso   1.000  C
  C49      1.0000 0.80330  0.94060  0.36376  Biso   1.000  C
  H29      1.0000 0.83080  0.94670  0.34740  Biso   1.000  H
  C50      1.0000 0.83780  0.87670  0.37801  Biso   1.000  C
  H30      1.0000 0.89080  0.84080  0.37160  Biso   1.000  H
  C51      1.0000 0.79310  0.86580  0.40208  Biso   1.000  C
  C52      1.0000 0.71830  0.92040  0.41162  Biso   1.000  C
  H31      1.0000 0.68900  0.91300  0.42780  Biso   1.000  H
  C53      1.0000 0.68520  0.98650  0.39765  Biso   1.000  C
  H32      1.0000 0.63520  0.02380  0.40440  Biso   1.000  H
  C54      1.0000 0.82930  0.79570  0.41750  Biso   1.000  C
  C55      1.0000 0.44030  0.29250  0.32965  Biso   1.000  C
  C56      1.0000 0.36020  0.36150  0.33320  Biso   1.000  C
  C57      1.0000 0.35460  0.40110  0.35579  Biso   1.000  C
  H33      1.0000 0.40050  0.38530  0.36920  Biso   1.000  H
  C58      1.0000 0.28090  0.46460  0.35875  Biso   1.000  C
  H34      1.0000 0.27890  0.49140  0.37420  Biso   1.000  H
  C59      1.0000 0.21040  0.48940  0.33957  Biso   1.000  C
  C60      1.0000 0.21920  0.45120  0.31639  Biso   1.000  C
  H35      1.0000 0.17410  0.46790  0.30300  Biso   1.000  H
  C61      1.0000 0.29390  0.38890  0.31303  Biso   1.000  C
  H36      1.0000 0.30040  0.36490  0.29720  Biso   1.000  H
  C62      1.0000 0.12720  0.55860  0.34315  Biso   1.000  C
  C63      1.0000 0.63060  0.18650  0.26371  Biso   1.000  C
  H37      1.0000 0.57730  0.22670  0.26630  Biso   1.000  H
  C64      1.0000 0.68430  0.18430  0.24012  Biso   1.000  C
  H38      1.0000 0.66390  0.22040  0.22750  Biso   1.000  H
  C65      1.0000 0.76640  0.12920  0.23570  Biso   1.000  C
  C66      1.0000 0.78410  0.07570  0.25467  Biso   1.000  C
  H39      1.0000 0.83600  0.03420  0.25260  Biso   1.000  H
  C67      1.0000 0.72420  0.08350  0.27697  Biso   1.000  C
  H40      1.0000 0.73960  0.04620  0.28960  Biso   1.000  H
  C68      1.0000 0.83230  0.12610  0.21185  Biso   1.000  C
  C69      1.0000 0.80020  0.17140  0.19103  Biso   1.000  C
  H41      1.0000 0.73660  0.20410  0.19230  Biso   1.000  H
  C70      1.0000 0.85900  0.16970  0.16847  Biso   1.000  C
  H42      1.0000 0.83440  0.20050  0.15490  Biso   1.000  H
  C71      1.0000 0.95440  0.12240  0.16608  Biso   1.000  C
  C72      1.0000 0.98640  0.07630  0.18690  Biso   1.000  C
  H43      1.0000 0.04940  0.04300  0.18570  Biso   1.000  H
  C73      1.0000 0.92640  0.07930  0.20917  Biso   1.000  C
  H44      1.0000 0.95070  0.04860  0.22280  Biso   1.000  H
  C74      1.0000 0.00000  0.13980  0.11961  Biso   1.000  C
  C75      1.0000 0.09350  0.15770  0.10447  Biso   1.000  C
  H45      1.0000 0.16600  0.15460  0.11130  Biso   1.000  H
  C76      1.0000 0.08080  0.17940  0.08000  Biso   1.000  C
  H46      1.0000 0.14480  0.18980  0.07030  Biso   1.000  H
  C77      1.0000 0.97290  0.18650  0.06897  Biso   1.000  C
  C78      1.0000 0.88120  0.16800  0.08468  Biso   1.000  C
  H47      1.0000 0.80840  0.17080  0.07800  Biso   1.000  H
  C79      1.0000 0.89340  0.14600  0.10928  Biso   1.000  C
  H48      1.0000 0.82970  0.13530  0.11910  Biso   1.000  H
  C80      1.0000 0.03520  0.24700  0.00224  Biso   1.000  C
  H49      1.0000 0.09930  0.25250  0.99210  Biso   1.000  H
  C81      1.0000 0.05100  0.21840  0.02638  Biso   1.000  C
  H50      1.0000 0.12260  0.20210  0.03170  Biso   1.000  H
  C82      1.0000 0.95950  0.21390  0.04263  Biso   1.000  C
  C83      1.0000 0.86060  0.23000  0.03193  Biso   1.000  C
  H51      1.0000 0.79370  0.22140  0.04080  Biso   1.000  H
  C84      1.0000 0.85640  0.25970  0.00736  Biso   1.000  C
  H52      1.0000 0.78550  0.27580  0.00160  Biso   1.000  H
  C85      1.0000 0.36150  0.29340  0.42366  Biso   1.000  C
  C86      1.0000 0.28490  0.36470  0.42735  Biso   1.000  C
  C87      1.0000 0.30340  0.41470  0.44748  Biso   1.000  C
  H53      1.0000 0.36330  0.40460  0.45850  Biso   1.000  H
  C88      1.0000 0.23390  0.48020  0.45158  Biso   1.000  C
  H54      1.0000 0.24540  0.51290  0.46560  Biso   1.000  H
  C89      1.0000 0.14730  0.49680  0.43473  Biso   1.000  C
  C90      1.0000 0.12950  0.44580  0.41509  Biso   1.000  C
  H55      1.0000 0.07030  0.45570  0.40390  Biso   1.000  H
  C91      1.0000 0.19730  0.38040  0.41151  Biso   1.000  C
  H56      1.0000 0.18300  0.34620  0.39800  Biso   1.000  H
  C92      1.0000 0.07390  0.56730  0.43931  Biso   1.000  C
  Cd4      1.0000 0.58465  0.16421  0.32221  Biso   1.000  Cd
  Cd5      1.0000 0.47510  0.17585  0.38513  Biso   1.000  Cd
  Cd6      1.0000 0.93284  0.69322  0.45058  Biso   1.000  Cd
  N4       1.0000 0.64830  0.13780  0.28221  Biso   1.000  N
  N5       1.0000 0.93690  0.26740  0.99220  Biso   1.000  N
  N6       1.0000 0.02340  0.11640  0.14448  Biso   1.000  N
  O13      1.0000 0.71950  0.06630  0.33476  Biso   1.000  O
  O14      1.0000 0.62460  0.11740  0.36608  Biso   1.000  O
  O15      1.0000 0.87790  0.73859  0.40693  Biso   1.000  O
  O16      1.0000 0.80940  0.79538  0.44070  Biso   1.000  O
  O17      1.0000 0.48260  0.25878  0.34882  Biso   1.000  O
  O18      1.0000 0.46480  0.26980  0.30783  Biso   1.000  O
  O19      1.0000 0.13380  0.59194  0.36437  Biso   1.000  O
  O20      1.0000 0.05960  0.57324  0.32610  Biso   1.000  O
  O21      1.0000 0.01520  0.59624  0.42158  Biso   1.000  O
  O22      1.0000 0.06980  0.59670  0.46091  Biso   1.000  O
  O23      1.0000 0.42210  0.27600  0.44215  Biso   1.000  O
  O24      1.0000 0.35760  0.25949  0.40306  Biso   1.000  O
  C93      1.0000 0.81230  0.56330  0.35722  Biso   1.000  C
  C94      1.0000 0.77200  0.49610  0.37345  Biso   1.000  C
  C95      1.0000 0.69670  0.44060  0.36376  Biso   1.000  C
  H57      1.0000 0.66920  0.44670  0.34740  Biso   1.000  H
  C96      1.0000 0.66220  0.37670  0.37801  Biso   1.000  C
  H58      1.0000 0.60920  0.34080  0.37160  Biso   1.000  H
  C97      1.0000 0.70690  0.36580  0.40208  Biso   1.000  C
  C98      1.0000 0.78170  0.42040  0.41162  Biso   1.000  C
  H59      1.0000 0.81100  0.41300  0.42780  Biso   1.000  H
  C99      1.0000 0.81480  0.48650  0.39765  Biso   1.000  C
  H60      1.0000 0.86480  0.52380  0.40440  Biso   1.000  H
  C100     1.0000 0.67070  0.29570  0.41750  Biso   1.000  C
  C101     1.0000 0.05970  0.79250  0.32965  Biso   1.000  C
  C102     1.0000 0.13980  0.86150  0.33320  Biso   1.000  C
  C103     1.0000 0.14540  0.90110  0.35579  Biso   1.000  C
  H61      1.0000 0.09950  0.88530  0.36920  Biso   1.000  H
  C104     1.0000 0.21910  0.96460  0.35875  Biso   1.000  C
  H62      1.0000 0.22110  0.99140  0.37420  Biso   1.000  H
  C105     1.0000 0.28960  0.98940  0.33957  Biso   1.000  C
  C106     1.0000 0.28080  0.95120  0.31639  Biso   1.000  C
  H63      1.0000 0.32590  0.96790  0.30300  Biso   1.000  H
  C107     1.0000 0.20610  0.88890  0.31303  Biso   1.000  C
  H64      1.0000 0.19960  0.86490  0.29720  Biso   1.000  H
  C108     1.0000 0.37280  0.05860  0.34315  Biso   1.000  C
  C109     1.0000 0.86940  0.68650  0.26371  Biso   1.000  C
  H65      1.0000 0.92270  0.72670  0.26630  Biso   1.000  H
  C110     1.0000 0.81570  0.68430  0.24012  Biso   1.000  C
  H66      1.0000 0.83610  0.72040  0.22750  Biso   1.000  H
  C111     1.0000 0.73360  0.62920  0.23570  Biso   1.000  C
  C112     1.0000 0.71590  0.57570  0.25467  Biso   1.000  C
  H67      1.0000 0.66400  0.53420  0.25260  Biso   1.000  H
  C113     1.0000 0.77580  0.58350  0.27697  Biso   1.000  C
  H68      1.0000 0.76040  0.54620  0.28960  Biso   1.000  H
  C114     1.0000 0.66770  0.62610  0.21185  Biso   1.000  C
  C115     1.0000 0.69980  0.67140  0.19103  Biso   1.000  C
  H69      1.0000 0.76340  0.70410  0.19230  Biso   1.000  H
  C116     1.0000 0.64100  0.66970  0.16847  Biso   1.000  C
  H70      1.0000 0.66560  0.70050  0.15490  Biso   1.000  H
  C117     1.0000 0.54560  0.62240  0.16608  Biso   1.000  C
  C118     1.0000 0.51360  0.57630  0.18690  Biso   1.000  C
  H71      1.0000 0.45060  0.54300  0.18570  Biso   1.000  H
  C119     1.0000 0.57360  0.57930  0.20917  Biso   1.000  C
  H72      1.0000 0.54930  0.54860  0.22280  Biso   1.000  H
  C120     1.0000 0.50000  0.63980  0.11961  Biso   1.000  C
  C121     1.0000 0.40650  0.65770  0.10447  Biso   1.000  C
  H73      1.0000 0.33400  0.65460  0.11130  Biso   1.000  H
  C122     1.0000 0.41920  0.67940  0.08000  Biso   1.000  C
  H74      1.0000 0.35520  0.68980  0.07030  Biso   1.000  H
  C123     1.0000 0.52710  0.68650  0.06897  Biso   1.000  C
  C124     1.0000 0.61880  0.66800  0.08468  Biso   1.000  C
  H75      1.0000 0.69160  0.67080  0.07800  Biso   1.000  H
  C125     1.0000 0.60660  0.64600  0.10928  Biso   1.000  C
  H76      1.0000 0.67030  0.63530  0.11910  Biso   1.000  H
  C126     1.0000 0.46480  0.74700  0.00224  Biso   1.000  C
  H77      1.0000 0.40070  0.75250  0.99210  Biso   1.000  H
  C127     1.0000 0.44900  0.71840  0.02638  Biso   1.000  C
  H78      1.0000 0.37740  0.70210  0.03170  Biso   1.000  H
  C128     1.0000 0.54050  0.71390  0.04263  Biso   1.000  C
  C129     1.0000 0.63940  0.73000  0.03193  Biso   1.000  C
  H79      1.0000 0.70630  0.72140  0.04080  Biso   1.000  H
  C130     1.0000 0.64360  0.75970  0.00736  Biso   1.000  C
  H80      1.0000 0.71450  0.77580  0.00160  Biso   1.000  H
  C131     1.0000 0.13850  0.79340  0.42366  Biso   1.000  C
  C132     1.0000 0.21510  0.86470  0.42735  Biso   1.000  C
  C133     1.0000 0.19660  0.91470  0.44748  Biso   1.000  C
  H81      1.0000 0.13670  0.90460  0.45850  Biso   1.000  H
  C134     1.0000 0.26610  0.98020  0.45158  Biso   1.000  C
  H82      1.0000 0.25460  0.01290  0.46560  Biso   1.000  H
  C135     1.0000 0.35270  0.99680  0.43473  Biso   1.000  C
  C136     1.0000 0.37050  0.94580  0.41509  Biso   1.000  C
  H83      1.0000 0.42970  0.95570  0.40390  Biso   1.000  H
  C137     1.0000 0.30270  0.88040  0.41151  Biso   1.000  C
  H84      1.0000 0.31700  0.84620  0.39800  Biso   1.000  H
  C138     1.0000 0.42610  0.06730  0.43931  Biso   1.000  C
  Cd7      1.0000 0.91535  0.66421  0.32221  Biso   1.000  Cd
  Cd8      1.0000 0.02490  0.67585  0.38513  Biso   1.000  Cd
  Cd9      1.0000 0.56716  0.19322  0.45058  Biso   1.000  Cd
  N7       1.0000 0.85170  0.63780  0.28221  Biso   1.000  N
  N8       1.0000 0.56310  0.76740  0.99220  Biso   1.000  N
  N9       1.0000 0.47660  0.61640  0.14448  Biso   1.000  N
  O25      1.0000 0.78050  0.56630  0.33476  Biso   1.000  O
  O26      1.0000 0.87540  0.61740  0.36608  Biso   1.000  O
  O27      1.0000 0.62210  0.23859  0.40693  Biso   1.000  O
  O28      1.0000 0.69060  0.29538  0.44070  Biso   1.000  O
  O29      1.0000 0.01740  0.75878  0.34882  Biso   1.000  O
  O30      1.0000 0.03520  0.76980  0.30783  Biso   1.000  O
  O31      1.0000 0.36620  0.09194  0.36437  Biso   1.000  O
  O32      1.0000 0.44040  0.07324  0.32610  Biso   1.000  O
  O33      1.0000 0.48480  0.09624  0.42158  Biso   1.000  O
  O34      1.0000 0.43020  0.09670  0.46091  Biso   1.000  O
  O35      1.0000 0.07790  0.77600  0.44215  Biso   1.000  O
  O36      1.0000 0.14240  0.75949  0.40306  Biso   1.000  O
  C139     1.0000 0.68770  0.93670  0.85722  Biso   1.000  C
  C140     1.0000 0.72800  0.00390  0.87345  Biso   1.000  C
  C141     1.0000 0.80330  0.05940  0.86376  Biso   1.000  C
  H85      1.0000 0.83080  0.05330  0.84740  Biso   1.000  H
  C142     1.0000 0.83780  0.12330  0.87801  Biso   1.000  C
  H86      1.0000 0.89080  0.15920  0.87160  Biso   1.000  H
  C143     1.0000 0.79310  0.13420  0.90208  Biso   1.000  C
  C144     1.0000 0.71830  0.07960  0.91162  Biso   1.000  C
  H87      1.0000 0.68900  0.08700  0.92780  Biso   1.000  H
  C145     1.0000 0.68520  0.01350  0.89765  Biso   1.000  C
  H88      1.0000 0.63520  0.97620  0.90440  Biso   1.000  H
  C146     1.0000 0.82930  0.20430  0.91750  Biso   1.000  C
  C147     1.0000 0.44030  0.70750  0.82965  Biso   1.000  C
  C148     1.0000 0.36020  0.63850  0.83320  Biso   1.000  C
  C149     1.0000 0.35460  0.59890  0.85579  Biso   1.000  C
  H89      1.0000 0.40050  0.61470  0.86920  Biso   1.000  H
  C150     1.0000 0.28090  0.53540  0.85875  Biso   1.000  C
  H90      1.0000 0.27890  0.50860  0.87420  Biso   1.000  H
  C151     1.0000 0.21040  0.51060  0.83957  Biso   1.000  C
  C152     1.0000 0.21920  0.54880  0.81639  Biso   1.000  C
  H91      1.0000 0.17410  0.53210  0.80300  Biso   1.000  H
  C153     1.0000 0.29390  0.61110  0.81303  Biso   1.000  C
  H92      1.0000 0.30040  0.63510  0.79720  Biso   1.000  H
  C154     1.0000 0.12720  0.44140  0.84315  Biso   1.000  C
  C155     1.0000 0.63060  0.81350  0.76371  Biso   1.000  C
  H93      1.0000 0.57730  0.77330  0.76630  Biso   1.000  H
  C156     1.0000 0.68430  0.81570  0.74012  Biso   1.000  C
  H94      1.0000 0.66390  0.77960  0.72750  Biso   1.000  H
  C157     1.0000 0.76640  0.87080  0.73570  Biso   1.000  C
  C158     1.0000 0.78410  0.92430  0.75467  Biso   1.000  C
  H95      1.0000 0.83600  0.96580  0.75260  Biso   1.000  H
  C159     1.0000 0.72420  0.91650  0.77697  Biso   1.000  C
  H96      1.0000 0.73960  0.95380  0.78960  Biso   1.000  H
  C160     1.0000 0.83230  0.87390  0.71185  Biso   1.000  C
  C161     1.0000 0.80020  0.82860  0.69103  Biso   1.000  C
  H97      1.0000 0.73660  0.79590  0.69230  Biso   1.000  H
  C162     1.0000 0.85900  0.83030  0.66847  Biso   1.000  C
  H98      1.0000 0.83440  0.79950  0.65490  Biso   1.000  H
  C163     1.0000 0.95440  0.87760  0.66608  Biso   1.000  C
  C164     1.0000 0.98640  0.92370  0.68690  Biso   1.000  C
  H99      1.0000 0.04940  0.95700  0.68570  Biso   1.000  H
  C165     1.0000 0.92640  0.92070  0.70917  Biso   1.000  C
  H100     1.0000 0.95070  0.95140  0.72280  Biso   1.000  H
  C166     1.0000 0.00000  0.86020  0.61961  Biso   1.000  C
  C167     1.0000 0.09350  0.84230  0.60447  Biso   1.000  C
  H101     1.0000 0.16600  0.84540  0.61130  Biso   1.000  H
  C168     1.0000 0.08080  0.82060  0.58000  Biso   1.000  C
  H102     1.0000 0.14480  0.81020  0.57030  Biso   1.000  H
  C169     1.0000 0.97290  0.81350  0.56897  Biso   1.000  C
  C170     1.0000 0.88120  0.83200  0.58468  Biso   1.000  C
  H103     1.0000 0.80840  0.82920  0.57800  Biso   1.000  H
  C171     1.0000 0.89340  0.85400  0.60928  Biso   1.000  C
  H104     1.0000 0.82970  0.86470  0.61910  Biso   1.000  H
  C172     1.0000 0.03520  0.75300  0.50224  Biso   1.000  C
  H105     1.0000 0.09930  0.74750  0.49210  Biso   1.000  H
  C173     1.0000 0.05100  0.78160  0.52638  Biso   1.000  C
  H106     1.0000 0.12260  0.79790  0.53170  Biso   1.000  H
  C174     1.0000 0.95950  0.78610  0.54263  Biso   1.000  C
  C175     1.0000 0.86060  0.77000  0.53193  Biso   1.000  C
  H107     1.0000 0.79370  0.77860  0.54080  Biso   1.000  H
  C176     1.0000 0.85640  0.74030  0.50736  Biso   1.000  C
  H108     1.0000 0.78550  0.72420  0.50160  Biso   1.000  H
  C177     1.0000 0.36150  0.70660  0.92366  Biso   1.000  C
  C178     1.0000 0.28490  0.63530  0.92735  Biso   1.000  C
  C179     1.0000 0.30340  0.58530  0.94748  Biso   1.000  C
  H109     1.0000 0.36330  0.59540  0.95850  Biso   1.000  H
  C180     1.0000 0.23390  0.51980  0.95158  Biso   1.000  C
  H110     1.0000 0.24540  0.48710  0.96560  Biso   1.000  H
  C181     1.0000 0.14730  0.50320  0.93473  Biso   1.000  C
  C182     1.0000 0.12950  0.55420  0.91509  Biso   1.000  C
  H111     1.0000 0.07030  0.54430  0.90390  Biso   1.000  H
  C183     1.0000 0.19730  0.61960  0.91151  Biso   1.000  C
  H112     1.0000 0.18300  0.65380  0.89800  Biso   1.000  H
  C184     1.0000 0.07390  0.43270  0.93931  Biso   1.000  C
  Cd10     1.0000 0.58465  0.83579  0.82221  Biso   1.000  Cd
  Cd11     1.0000 0.47510  0.82415  0.88513  Biso   1.000  Cd
  Cd12     1.0000 0.93284  0.30678  0.95058  Biso   1.000  Cd
  N10      1.0000 0.64830  0.86220  0.78221  Biso   1.000  N
  N11      1.0000 0.93690  0.73260  0.49220  Biso   1.000  N
  N12      1.0000 0.02340  0.88360  0.64448  Biso   1.000  N
  O37      1.0000 0.71950  0.93370  0.83476  Biso   1.000  O
  O38      1.0000 0.62460  0.88260  0.86608  Biso   1.000  O
  O39      1.0000 0.87790  0.26141  0.90693  Biso   1.000  O
  O40      1.0000 0.80940  0.20462  0.94070  Biso   1.000  O
  O41      1.0000 0.48260  0.74122  0.84882  Biso   1.000  O
  O42      1.0000 0.46480  0.73020  0.80783  Biso   1.000  O
  O43      1.0000 0.13380  0.40806  0.86437  Biso   1.000  O
  O44      1.0000 0.05960  0.42676  0.82610  Biso   1.000  O
  O45      1.0000 0.01520  0.40376  0.92158  Biso   1.000  O
  O46      1.0000 0.06980  0.40330  0.96091  Biso   1.000  O
  O47      1.0000 0.42210  0.72400  0.94215  Biso   1.000  O
  O48      1.0000 0.35760  0.74051  0.90306  Biso   1.000  O
  C185     1.0000 0.18770  0.43670  0.64278  Biso   1.000  C
  C186     1.0000 0.22800  0.50390  0.62655  Biso   1.000  C
  C187     1.0000 0.30330  0.55940  0.63624  Biso   1.000  C
  H113     1.0000 0.33080  0.55330  0.65260  Biso   1.000  H
  C188     1.0000 0.33780  0.62330  0.62199  Biso   1.000  C
  H114     1.0000 0.39080  0.65920  0.62840  Biso   1.000  H
  C189     1.0000 0.29310  0.63420  0.59792  Biso   1.000  C
  C190     1.0000 0.21830  0.57960  0.58838  Biso   1.000  C
  H115     1.0000 0.18900  0.58700  0.57220  Biso   1.000  H
  C191     1.0000 0.18520  0.51350  0.60235  Biso   1.000  C
  H116     1.0000 0.13520  0.47620  0.59560  Biso   1.000  H
  C192     1.0000 0.32930  0.70430  0.58250  Biso   1.000  C
  C193     1.0000 0.94030  0.20750  0.67035  Biso   1.000  C
  C194     1.0000 0.86020  0.13850  0.66680  Biso   1.000  C
  C195     1.0000 0.85460  0.09890  0.64421  Biso   1.000  C
  H117     1.0000 0.90050  0.11470  0.63080  Biso   1.000  H
  C196     1.0000 0.78090  0.03540  0.64125  Biso   1.000  C
  H118     1.0000 0.77890  0.00860  0.62580  Biso   1.000  H
  C197     1.0000 0.71040  0.01060  0.66043  Biso   1.000  C
  C198     1.0000 0.71920  0.04880  0.68361  Biso   1.000  C
  H119     1.0000 0.67410  0.03210  0.69700  Biso   1.000  H
  C199     1.0000 0.79390  0.11110  0.68697  Biso   1.000  C
  H120     1.0000 0.80040  0.13510  0.70280  Biso   1.000  H
  C200     1.0000 0.62720  0.94140  0.65685  Biso   1.000  C
  C201     1.0000 0.13060  0.31350  0.73629  Biso   1.000  C
  H121     1.0000 0.07730  0.27330  0.73370  Biso   1.000  H
  C202     1.0000 0.18430  0.31570  0.75988  Biso   1.000  C
  H122     1.0000 0.16390  0.27960  0.77250  Biso   1.000  H
  C203     1.0000 0.26640  0.37080  0.76430  Biso   1.000  C
  C204     1.0000 0.28410  0.42430  0.74533  Biso   1.000  C
  H123     1.0000 0.33600  0.46580  0.74740  Biso   1.000  H
  C205     1.0000 0.22420  0.41650  0.72303  Biso   1.000  C
  H124     1.0000 0.23960  0.45380  0.71040  Biso   1.000  H
  C206     1.0000 0.33230  0.37390  0.78815  Biso   1.000  C
  C207     1.0000 0.30020  0.32860  0.80897  Biso   1.000  C
  H125     1.0000 0.23660  0.29590  0.80770  Biso   1.000  H
  C208     1.0000 0.35900  0.33030  0.83153  Biso   1.000  C
  H126     1.0000 0.33440  0.29950  0.84510  Biso   1.000  H
  C209     1.0000 0.45440  0.37760  0.83392  Biso   1.000  C
  C210     1.0000 0.48640  0.42370  0.81310  Biso   1.000  C
  H127     1.0000 0.54940  0.45700  0.81430  Biso   1.000  H
  C211     1.0000 0.42640  0.42070  0.79083  Biso   1.000  C
  H128     1.0000 0.45070  0.45140  0.77720  Biso   1.000  H
  C212     1.0000 0.50000  0.36020  0.88039  Biso   1.000  C
  C213     1.0000 0.59350  0.34230  0.89553  Biso   1.000  C
  H129     1.0000 0.66600  0.34540  0.88870  Biso   1.000  H
  C214     1.0000 0.58080  0.32060  0.92000  Biso   1.000  C
  H130     1.0000 0.64480  0.31020  0.92970  Biso   1.000  H
  C215     1.0000 0.47290  0.31350  0.93103  Biso   1.000  C
  C216     1.0000 0.38120  0.33200  0.91532  Biso   1.000  C
  H131     1.0000 0.30840  0.32920  0.92200  Biso   1.000  H
  C217     1.0000 0.39340  0.35400  0.89072  Biso   1.000  C
  H132     1.0000 0.32970  0.36470  0.88090  Biso   1.000  H
  C218     1.0000 0.53520  0.25300  0.99776  Biso   1.000  C
  H133     1.0000 0.59930  0.24750  0.00790  Biso   1.000  H
  C219     1.0000 0.55100  0.28160  0.97362  Biso   1.000  C
  H134     1.0000 0.62260  0.29790  0.96830  Biso   1.000  H
  C220     1.0000 0.45950  0.28610  0.95737  Biso   1.000  C
  C221     1.0000 0.36060  0.27000  0.96807  Biso   1.000  C
  H135     1.0000 0.29370  0.27860  0.95920  Biso   1.000  H
  C222     1.0000 0.35640  0.24030  0.99264  Biso   1.000  C
  H136     1.0000 0.28550  0.22420  0.99840  Biso   1.000  H
  C223     1.0000 0.86150  0.20660  0.57634  Biso   1.000  C
  C224     1.0000 0.78490  0.13530  0.57265  Biso   1.000  C
  C225     1.0000 0.80340  0.08530  0.55252  Biso   1.000  C
  H137     1.0000 0.86330  0.09540  0.54150  Biso   1.000  H
  C226     1.0000 0.73390  0.01980  0.54842  Biso   1.000  C
  H138     1.0000 0.74540  0.98710  0.53440  Biso   1.000  H
  C227     1.0000 0.64730  0.00320  0.56527  Biso   1.000  C
  C228     1.0000 0.62950  0.05420  0.58491  Biso   1.000  C
  H139     1.0000 0.57030  0.04430  0.59610  Biso   1.000  H
  C229     1.0000 0.69730  0.11960  0.58849  Biso   1.000  C
  H140     1.0000 0.68300  0.15380  0.60200  Biso   1.000  H
  C230     1.0000 0.57390  0.93270  0.56069  Biso   1.000  C
  Cd13     1.0000 0.08465  0.33579  0.67779  Biso   1.000  Cd
  Cd14     1.0000 0.97510  0.32415  0.61487  Biso   1.000  Cd
  Cd15     1.0000 0.43284  0.80678  0.54942  Biso   1.000  Cd
  N13      1.0000 0.14830  0.36220  0.71779  Biso   1.000  N
  N14      1.0000 0.43690  0.23260  0.00780  Biso   1.000  N
  N15      1.0000 0.52340  0.38360  0.85552  Biso   1.000  N
  O49      1.0000 0.21950  0.43370  0.66524  Biso   1.000  O
  O50      1.0000 0.12460  0.38260  0.63392  Biso   1.000  O
  O51      1.0000 0.37790  0.76141  0.59307  Biso   1.000  O
  O52      1.0000 0.30940  0.70462  0.55930  Biso   1.000  O
  O53      1.0000 0.98260  0.24122  0.65118  Biso   1.000  O
  O54      1.0000 0.96480  0.23020  0.69217  Biso   1.000  O
  O55      1.0000 0.63380  0.90806  0.63563  Biso   1.000  O
  O56      1.0000 0.55960  0.92676  0.67390  Biso   1.000  O
  O57      1.0000 0.51520  0.90376  0.57842  Biso   1.000  O
  O58      1.0000 0.56980  0.90330  0.53909  Biso   1.000  O
  O59      1.0000 0.92210  0.22400  0.55785  Biso   1.000  O
  O60      1.0000 0.85760  0.24051  0.59694  Biso   1.000  O
  C231     1.0000 0.31230  0.06330  0.14278  Biso   1.000  C
  C232     1.0000 0.27200  0.99610  0.12655  Biso   1.000  C
  C233     1.0000 0.19670  0.94060  0.13624  Biso   1.000  C
  H141     1.0000 0.16920  0.94670  0.15260  Biso   1.000  H
  C234     1.0000 0.16220  0.87670  0.12199  Biso   1.000  C
  H142     1.0000 0.10920  0.84080  0.12840  Biso   1.000  H
  C235     1.0000 0.20690  0.86580  0.09792  Biso   1.000  C
  C236     1.0000 0.28170  0.92040  0.08838  Biso   1.000  C
  H143     1.0000 0.31100  0.91300  0.07220  Biso   1.000  H
  C237     1.0000 0.31480  0.98650  0.10235  Biso   1.000  C
  H144     1.0000 0.36480  0.02380  0.09560  Biso   1.000  H
  C238     1.0000 0.17070  0.79570  0.08250  Biso   1.000  C
  C239     1.0000 0.55970  0.29250  0.17035  Biso   1.000  C
  C240     1.0000 0.63980  0.36150  0.16680  Biso   1.000  C
  C241     1.0000 0.64540  0.40110  0.14421  Biso   1.000  C
  H145     1.0000 0.59950  0.38530  0.13080  Biso   1.000  H
  C242     1.0000 0.71910  0.46460  0.14125  Biso   1.000  C
  H146     1.0000 0.72110  0.49140  0.12580  Biso   1.000  H
  C243     1.0000 0.78960  0.48940  0.16043  Biso   1.000  C
  C244     1.0000 0.78080  0.45120  0.18361  Biso   1.000  C
  H147     1.0000 0.82590  0.46790  0.19700  Biso   1.000  H
  C245     1.0000 0.70610  0.38890  0.18697  Biso   1.000  C
  H148     1.0000 0.69960  0.36490  0.20280  Biso   1.000  H
  C246     1.0000 0.87280  0.55860  0.15685  Biso   1.000  C
  C247     1.0000 0.36940  0.18650  0.23629  Biso   1.000  C
  H149     1.0000 0.42270  0.22670  0.23370  Biso   1.000  H
  C248     1.0000 0.31570  0.18430  0.25988  Biso   1.000  C
  H150     1.0000 0.33610  0.22040  0.27250  Biso   1.000  H
  C249     1.0000 0.23360  0.12920  0.26430  Biso   1.000  C
  C250     1.0000 0.21590  0.07570  0.24533  Biso   1.000  C
  H151     1.0000 0.16400  0.03420  0.24740  Biso   1.000  H
  C251     1.0000 0.27580  0.08350  0.22303  Biso   1.000  C
  H152     1.0000 0.26040  0.04620  0.21040  Biso   1.000  H
  C252     1.0000 0.16770  0.12610  0.28815  Biso   1.000  C
  C253     1.0000 0.19980  0.17140  0.30897  Biso   1.000  C
  H153     1.0000 0.26340  0.20410  0.30770  Biso   1.000  H
  C254     1.0000 0.14100  0.16970  0.33153  Biso   1.000  C
  H154     1.0000 0.16560  0.20050  0.34510  Biso   1.000  H
  C255     1.0000 0.04560  0.12240  0.33392  Biso   1.000  C
  C256     1.0000 0.01360  0.07630  0.31310  Biso   1.000  C
  H155     1.0000 0.95060  0.04300  0.31430  Biso   1.000  H
  C257     1.0000 0.07360  0.07930  0.29083  Biso   1.000  C
  H156     1.0000 0.04930  0.04860  0.27720  Biso   1.000  H
  C258     1.0000 0.00000  0.13980  0.38039  Biso   1.000  C
  C259     1.0000 0.90650  0.15770  0.39553  Biso   1.000  C
  H157     1.0000 0.83400  0.15460  0.38870  Biso   1.000  H
  C260     1.0000 0.91920  0.17940  0.42000  Biso   1.000  C
  H158     1.0000 0.85520  0.18980  0.42970  Biso   1.000  H
  C261     1.0000 0.02710  0.18650  0.43103  Biso   1.000  C
  C262     1.0000 0.11880  0.16800  0.41532  Biso   1.000  C
  H159     1.0000 0.19160  0.17080  0.42200  Biso   1.000  H
  C263     1.0000 0.10660  0.14600  0.39072  Biso   1.000  C
  H160     1.0000 0.17030  0.13530  0.38090  Biso   1.000  H
  C264     1.0000 0.96480  0.24700  0.49776  Biso   1.000  C
  H161     1.0000 0.90070  0.25250  0.50790  Biso   1.000  H
  C265     1.0000 0.94900  0.21840  0.47362  Biso   1.000  C
  H162     1.0000 0.87740  0.20210  0.46830  Biso   1.000  H
  C266     1.0000 0.04050  0.21390  0.45737  Biso   1.000  C
  C267     1.0000 0.13940  0.23000  0.46807  Biso   1.000  C
  H163     1.0000 0.20630  0.22140  0.45920  Biso   1.000  H
  C268     1.0000 0.14360  0.25970  0.49264  Biso   1.000  C
  H164     1.0000 0.21450  0.27580  0.49840  Biso   1.000  H
  C269     1.0000 0.63850  0.29340  0.07634  Biso   1.000  C
  C270     1.0000 0.71510  0.36470  0.07265  Biso   1.000  C
  C271     1.0000 0.69660  0.41470  0.05252  Biso   1.000  C
  H165     1.0000 0.63670  0.40460  0.04150  Biso   1.000  H
  C272     1.0000 0.76610  0.48020  0.04842  Biso   1.000  C
  H166     1.0000 0.75460  0.51290  0.03440  Biso   1.000  H
  C273     1.0000 0.85270  0.49680  0.06527  Biso   1.000  C
  C274     1.0000 0.87050  0.44580  0.08491  Biso   1.000  C
  H167     1.0000 0.92970  0.45570  0.09610  Biso   1.000  H
  C275     1.0000 0.80270  0.38040  0.08849  Biso   1.000  C
  H168     1.0000 0.81700  0.34620  0.10200  Biso   1.000  H
  C276     1.0000 0.92610  0.56730  0.06069  Biso   1.000  C
  Cd16     1.0000 0.41535  0.16421  0.17779  Biso   1.000  Cd
  Cd17     1.0000 0.52490  0.17585  0.11487  Biso   1.000  Cd
  Cd18     1.0000 0.06716  0.69322  0.04942  Biso   1.000  Cd
  N16      1.0000 0.35170  0.13780  0.21779  Biso   1.000  N
  N17      1.0000 0.06310  0.26740  0.50780  Biso   1.000  N
  N18      1.0000 0.97660  0.11640  0.35552  Biso   1.000  N
  O61      1.0000 0.28050  0.06630  0.16524  Biso   1.000  O
  O62      1.0000 0.37540  0.11740  0.13392  Biso   1.000  O
  O63      1.0000 0.12210  0.73859  0.09307  Biso   1.000  O
  O64      1.0000 0.19060  0.79538  0.05930  Biso   1.000  O
  O65      1.0000 0.51740  0.25878  0.15118  Biso   1.000  O
  O66      1.0000 0.53520  0.26980  0.19217  Biso   1.000  O
  O67      1.0000 0.86620  0.59194  0.13563  Biso   1.000  O
  O68      1.0000 0.94040  0.57324  0.17390  Biso   1.000  O
  O69      1.0000 0.98480  0.59624  0.07842  Biso   1.000  O
  O70      1.0000 0.93020  0.59670  0.03909  Biso   1.000  O
  O71      1.0000 0.57790  0.27600  0.05785  Biso   1.000  O
  O72      1.0000 0.64240  0.25949  0.09694  Biso   1.000  O
  C277     1.0000 0.18770  0.56330  0.14278  Biso   1.000  C
  C278     1.0000 0.22800  0.49610  0.12655  Biso   1.000  C
  C279     1.0000 0.30330  0.44060  0.13624  Biso   1.000  C
  H169     1.0000 0.33080  0.44670  0.15260  Biso   1.000  H
  C280     1.0000 0.33780  0.37670  0.12199  Biso   1.000  C
  H170     1.0000 0.39080  0.34080  0.12840  Biso   1.000  H
  C281     1.0000 0.29310  0.36580  0.09792  Biso   1.000  C
  C282     1.0000 0.21830  0.42040  0.08838  Biso   1.000  C
  H171     1.0000 0.18900  0.41300  0.07220  Biso   1.000  H
  C283     1.0000 0.18520  0.48650  0.10235  Biso   1.000  C
  H172     1.0000 0.13520  0.52380  0.09560  Biso   1.000  H
  C284     1.0000 0.32930  0.29570  0.08250  Biso   1.000  C
  C285     1.0000 0.94030  0.79250  0.17035  Biso   1.000  C
  C286     1.0000 0.86020  0.86150  0.16680  Biso   1.000  C
  C287     1.0000 0.85460  0.90110  0.14421  Biso   1.000  C
  H173     1.0000 0.90050  0.88530  0.13080  Biso   1.000  H
  C288     1.0000 0.78090  0.96460  0.14125  Biso   1.000  C
  H174     1.0000 0.77890  0.99140  0.12580  Biso   1.000  H
  C289     1.0000 0.71040  0.98940  0.16043  Biso   1.000  C
  C290     1.0000 0.71920  0.95120  0.18361  Biso   1.000  C
  H175     1.0000 0.67410  0.96790  0.19700  Biso   1.000  H
  C291     1.0000 0.79390  0.88890  0.18697  Biso   1.000  C
  H176     1.0000 0.80040  0.86490  0.20280  Biso   1.000  H
  C292     1.0000 0.62720  0.05860  0.15685  Biso   1.000  C
  C293     1.0000 0.13060  0.68650  0.23629  Biso   1.000  C
  H177     1.0000 0.07730  0.72670  0.23370  Biso   1.000  H
  C294     1.0000 0.18430  0.68430  0.25988  Biso   1.000  C
  H178     1.0000 0.16390  0.72040  0.27250  Biso   1.000  H
  C295     1.0000 0.26640  0.62920  0.26430  Biso   1.000  C
  C296     1.0000 0.28410  0.57570  0.24533  Biso   1.000  C
  H179     1.0000 0.33600  0.53420  0.24740  Biso   1.000  H
  C297     1.0000 0.22420  0.58350  0.22303  Biso   1.000  C
  H180     1.0000 0.23960  0.54620  0.21040  Biso   1.000  H
  C298     1.0000 0.33230  0.62610  0.28815  Biso   1.000  C
  C299     1.0000 0.30020  0.67140  0.30897  Biso   1.000  C
  H181     1.0000 0.23660  0.70410  0.30770  Biso   1.000  H
  C300     1.0000 0.35900  0.66970  0.33153  Biso   1.000  C
  H182     1.0000 0.33440  0.70050  0.34510  Biso   1.000  H
  C301     1.0000 0.45440  0.62240  0.33392  Biso   1.000  C
  C302     1.0000 0.48640  0.57630  0.31310  Biso   1.000  C
  H183     1.0000 0.54940  0.54300  0.31430  Biso   1.000  H
  C303     1.0000 0.42640  0.57930  0.29083  Biso   1.000  C
  H184     1.0000 0.45070  0.54860  0.27720  Biso   1.000  H
  C304     1.0000 0.50000  0.63980  0.38039  Biso   1.000  C
  C305     1.0000 0.59350  0.65770  0.39553  Biso   1.000  C
  H185     1.0000 0.66600  0.65460  0.38870  Biso   1.000  H
  C306     1.0000 0.58080  0.67940  0.42000  Biso   1.000  C
  H186     1.0000 0.64480  0.68980  0.42970  Biso   1.000  H
  C307     1.0000 0.47290  0.68650  0.43103  Biso   1.000  C
  C308     1.0000 0.38120  0.66800  0.41532  Biso   1.000  C
  H187     1.0000 0.30840  0.67080  0.42200  Biso   1.000  H
  C309     1.0000 0.39340  0.64600  0.39072  Biso   1.000  C
  H188     1.0000 0.32970  0.63530  0.38090  Biso   1.000  H
  C310     1.0000 0.53520  0.74700  0.49776  Biso   1.000  C
  H189     1.0000 0.59930  0.75250  0.50790  Biso   1.000  H
  C311     1.0000 0.55100  0.71840  0.47362  Biso   1.000  C
  H190     1.0000 0.62260  0.70210  0.46830  Biso   1.000  H
  C312     1.0000 0.45950  0.71390  0.45737  Biso   1.000  C
  C313     1.0000 0.36060  0.73000  0.46807  Biso   1.000  C
  H191     1.0000 0.29370  0.72140  0.45920  Biso   1.000  H
  C314     1.0000 0.35640  0.75970  0.49264  Biso   1.000  C
  H192     1.0000 0.28550  0.77580  0.49840  Biso   1.000  H
  C315     1.0000 0.86150  0.79340  0.07634  Biso   1.000  C
  C316     1.0000 0.78490  0.86470  0.07265  Biso   1.000  C
  C317     1.0000 0.80340  0.91470  0.05252  Biso   1.000  C
  H193     1.0000 0.86330  0.90460  0.04150  Biso   1.000  H
  C318     1.0000 0.73390  0.98020  0.04842  Biso   1.000  C
  H194     1.0000 0.74540  0.01290  0.03440  Biso   1.000  H
  C319     1.0000 0.64730  0.99680  0.06527  Biso   1.000  C
  C320     1.0000 0.62950  0.94580  0.08491  Biso   1.000  C
  H195     1.0000 0.57030  0.95570  0.09610  Biso   1.000  H
  C321     1.0000 0.69730  0.88040  0.08849  Biso   1.000  C
  H196     1.0000 0.68300  0.84620  0.10200  Biso   1.000  H
  C322     1.0000 0.57390  0.06730  0.06069  Biso   1.000  C
  Cd19     1.0000 0.08465  0.66421  0.17779  Biso   1.000  Cd
  Cd20     1.0000 0.97510  0.67585  0.11487  Biso   1.000  Cd
  Cd21     1.0000 0.43284  0.19322  0.04942  Biso   1.000  Cd
  N19      1.0000 0.14830  0.63780  0.21779  Biso   1.000  N
  N20      1.0000 0.43690  0.76740  0.50780  Biso   1.000  N
  N21      1.0000 0.52340  0.61640  0.35552  Biso   1.000  N
  O73      1.0000 0.21950  0.56630  0.16524  Biso   1.000  O
  O74      1.0000 0.12460  0.61740  0.13392  Biso   1.000  O
  O75      1.0000 0.37790  0.23859  0.09307  Biso   1.000  O
  O76      1.0000 0.30940  0.29538  0.05930  Biso   1.000  O
  O77      1.0000 0.98260  0.75878  0.15118  Biso   1.000  O
  O78      1.0000 0.96480  0.76980  0.19217  Biso   1.000  O
  O79      1.0000 0.63380  0.09194  0.13563  Biso   1.000  O
  O80      1.0000 0.55960  0.07324  0.17390  Biso   1.000  O
  O81      1.0000 0.51520  0.09624  0.07842  Biso   1.000  O
  O82      1.0000 0.56980  0.09670  0.03909  Biso   1.000  O
  O83      1.0000 0.92210  0.77600  0.05785  Biso   1.000  O
  O84      1.0000 0.85760  0.75949  0.09694  Biso   1.000  O
  C323     1.0000 0.31230  0.93670  0.64278  Biso   1.000  C
  C324     1.0000 0.27200  0.00390  0.62655  Biso   1.000  C
  C325     1.0000 0.19670  0.05940  0.63624  Biso   1.000  C
  H197     1.0000 0.16920  0.05330  0.65260  Biso   1.000  H
  C326     1.0000 0.16220  0.12330  0.62199  Biso   1.000  C
  H198     1.0000 0.10920  0.15920  0.62840  Biso   1.000  H
  C327     1.0000 0.20690  0.13420  0.59792  Biso   1.000  C
  C328     1.0000 0.28170  0.07960  0.58838  Biso   1.000  C
  H199     1.0000 0.31100  0.08700  0.57220  Biso   1.000  H
  C329     1.0000 0.31480  0.01350  0.60235  Biso   1.000  C
  H200     1.0000 0.36480  0.97620  0.59560  Biso   1.000  H
  C330     1.0000 0.17070  0.20430  0.58250  Biso   1.000  C
  C331     1.0000 0.55970  0.70750  0.67035  Biso   1.000  C
  C332     1.0000 0.63980  0.63850  0.66680  Biso   1.000  C
  C333     1.0000 0.64540  0.59890  0.64421  Biso   1.000  C
  H201     1.0000 0.59950  0.61470  0.63080  Biso   1.000  H
  C334     1.0000 0.71910  0.53540  0.64125  Biso   1.000  C
  H202     1.0000 0.72110  0.50860  0.62580  Biso   1.000  H
  C335     1.0000 0.78960  0.51060  0.66043  Biso   1.000  C
  C336     1.0000 0.78080  0.54880  0.68361  Biso   1.000  C
  H203     1.0000 0.82590  0.53210  0.69700  Biso   1.000  H
  C337     1.0000 0.70610  0.61110  0.68697  Biso   1.000  C
  H204     1.0000 0.69960  0.63510  0.70280  Biso   1.000  H
  C338     1.0000 0.87280  0.44140  0.65685  Biso   1.000  C
  C339     1.0000 0.36940  0.81350  0.73629  Biso   1.000  C
  H205     1.0000 0.42270  0.77330  0.73370  Biso   1.000  H
  C340     1.0000 0.31570  0.81570  0.75988  Biso   1.000  C
  H206     1.0000 0.33610  0.77960  0.77250  Biso   1.000  H
  C341     1.0000 0.23360  0.87080  0.76430  Biso   1.000  C
  C342     1.0000 0.21590  0.92430  0.74533  Biso   1.000  C
  H207     1.0000 0.16400  0.96580  0.74740  Biso   1.000  H
  C343     1.0000 0.27580  0.91650  0.72303  Biso   1.000  C
  H208     1.0000 0.26040  0.95380  0.71040  Biso   1.000  H
  C344     1.0000 0.16770  0.87390  0.78815  Biso   1.000  C
  C345     1.0000 0.19980  0.82860  0.80897  Biso   1.000  C
  H209     1.0000 0.26340  0.79590  0.80770  Biso   1.000  H
  C346     1.0000 0.14100  0.83030  0.83153  Biso   1.000  C
  H210     1.0000 0.16560  0.79950  0.84510  Biso   1.000  H
  C347     1.0000 0.04560  0.87760  0.83392  Biso   1.000  C
  C348     1.0000 0.01360  0.92370  0.81310  Biso   1.000  C
  H211     1.0000 0.95060  0.95700  0.81430  Biso   1.000  H
  C349     1.0000 0.07360  0.92070  0.79083  Biso   1.000  C
  H212     1.0000 0.04930  0.95140  0.77720  Biso   1.000  H
  C350     1.0000 0.00000  0.86020  0.88039  Biso   1.000  C
  C351     1.0000 0.90650  0.84230  0.89553  Biso   1.000  C
  H213     1.0000 0.83400  0.84540  0.88870  Biso   1.000  H
  C352     1.0000 0.91920  0.82060  0.92000  Biso   1.000  C
  H214     1.0000 0.85520  0.81020  0.92970  Biso   1.000  H
  C353     1.0000 0.02710  0.81350  0.93103  Biso   1.000  C
  C354     1.0000 0.11880  0.83200  0.91532  Biso   1.000  C
  H215     1.0000 0.19160  0.82920  0.92200  Biso   1.000  H
  C355     1.0000 0.10660  0.85400  0.89072  Biso   1.000  C
  H216     1.0000 0.17030  0.86470  0.88090  Biso   1.000  H
  C356     1.0000 0.96480  0.75300  0.99776  Biso   1.000  C
  H217     1.0000 0.90070  0.74750  0.00790  Biso   1.000  H
  C357     1.0000 0.94900  0.78160  0.97362  Biso   1.000  C
  H218     1.0000 0.87740  0.79790  0.96830  Biso   1.000  H
  C358     1.0000 0.04050  0.78610  0.95737  Biso   1.000  C
  C359     1.0000 0.13940  0.77000  0.96807  Biso   1.000  C
  H219     1.0000 0.20630  0.77860  0.95920  Biso   1.000  H
  C360     1.0000 0.14360  0.74030  0.99264  Biso   1.000  C
  H220     1.0000 0.21450  0.72420  0.99840  Biso   1.000  H
  C361     1.0000 0.63850  0.70660  0.57634  Biso   1.000  C
  C362     1.0000 0.71510  0.63530  0.57265  Biso   1.000  C
  C363     1.0000 0.69660  0.58530  0.55252  Biso   1.000  C
  H221     1.0000 0.63670  0.59540  0.54150  Biso   1.000  H
  C364     1.0000 0.76610  0.51980  0.54842  Biso   1.000  C
  H222     1.0000 0.75460  0.48710  0.53440  Biso   1.000  H
  C365     1.0000 0.85270  0.50320  0.56527  Biso   1.000  C
  C366     1.0000 0.87050  0.55420  0.58491  Biso   1.000  C
  H223     1.0000 0.92970  0.54430  0.59610  Biso   1.000  H
  C367     1.0000 0.80270  0.61960  0.58849  Biso   1.000  C
  H224     1.0000 0.81700  0.65380  0.60200  Biso   1.000  H
  C368     1.0000 0.92610  0.43270  0.56069  Biso   1.000  C
  Cd22     1.0000 0.41535  0.83579  0.67779  Biso   1.000  Cd
  Cd23     1.0000 0.52490  0.82415  0.61487  Biso   1.000  Cd
  Cd24     1.0000 0.06716  0.30678  0.54942  Biso   1.000  Cd
  N22      1.0000 0.35170  0.86220  0.71779  Biso   1.000  N
  N23      1.0000 0.06310  0.73260  0.00780  Biso   1.000  N
  N24      1.0000 0.97660  0.88360  0.85552  Biso   1.000  N
  O85      1.0000 0.28050  0.93370  0.66524  Biso   1.000  O
  O86      1.0000 0.37540  0.88260  0.63392  Biso   1.000  O
  O87      1.0000 0.12210  0.26141  0.59307  Biso   1.000  O
  O88      1.0000 0.19060  0.20462  0.55930  Biso   1.000  O
  O89      1.0000 0.51740  0.74122  0.65118  Biso   1.000  O
  O90      1.0000 0.53520  0.73020  0.69217  Biso   1.000  O
  O91      1.0000 0.86620  0.40806  0.63563  Biso   1.000  O
  O92      1.0000 0.94040  0.42676  0.67390  Biso   1.000  O
  O93      1.0000 0.98480  0.40376  0.57842  Biso   1.000  O
  O94      1.0000 0.93020  0.40330  0.53909  Biso   1.000  O
  O95      1.0000 0.57790  0.72400  0.55785  Biso   1.000  O
  O96      1.0000 0.64240  0.74051  0.59694  Biso   1.000  O
