data_image0
_cell_length_a       27.019
_cell_length_b       38.427
_cell_length_c       38.738
_cell_angle_alpha    90
_cell_angle_beta     90
_cell_angle_gamma    90

_symmetry_space_group_name_H-M    "P 1"
_symmetry_int_tables_number       1

loop_
  _symmetry_equiv_pos_as_xyz
  'x, y, z'

loop_
  _atom_site_label
  _atom_site_occupancy
  _atom_site_fract_x
  _atom_site_fract_y
  _atom_site_fract_z
  _atom_site_thermal_displace_type
  _atom_site_B_iso_or_equiv
  _atom_site_type_symbol
  W1       1.0000 0.82488  0.56810  0.35524  Biso   1.000  W
  W2       1.0000 0.72723  0.51528  0.35717  Biso   1.000  W
  W3       1.0000 0.65749  0.59545  0.32578  Biso   1.000  W
  W4       1.0000 0.75496  0.64861  0.32468  Biso   1.000  W
  W5       1.0000 0.68785  0.72590  0.36110  Biso   1.000  W
  W6       1.0000 0.58793  0.67689  0.35011  Biso   1.000  W
  W7       1.0000 0.57684  0.59941  0.40347  Biso   1.000  W
  W8       1.0000 0.79523  0.68733  0.40600  Biso   1.000  W
  W9       1.0000 0.86219  0.60894  0.43827  Biso   1.000  W
  W10      1.0000 0.64578  0.51982  0.43208  Biso   1.000  W
  W11      1.0000 0.76216  0.46883  0.43916  Biso   1.000  W
  W12      1.0000 0.86711  0.51487  0.43160  Biso   1.000  W
  W13      1.0000 0.86678  0.51374  0.52991  Biso   1.000  W
  W14      1.0000 0.76210  0.46907  0.53726  Biso   1.000  W
  W15      1.0000 0.64611  0.51680  0.52878  Biso   1.000  W
  W16      1.0000 0.85988  0.61010  0.53499  Biso   1.000  W
  W17      1.0000 0.78934  0.68908  0.56274  Biso   1.000  W
  W18      1.0000 0.57795  0.59565  0.55938  Biso   1.000  W
  W19      1.0000 0.53394  0.64641  0.48320  Biso   1.000  W
  W20      1.0000 0.75047  0.73702  0.48331  Biso   1.000  W
  W21      1.0000 0.64392  0.77522  0.43990  Biso   1.000  W
  W22      1.0000 0.54336  0.72609  0.42978  Biso   1.000  W
  W23      1.0000 0.53762  0.73038  0.52662  Biso   1.000  W
  W24      1.0000 0.64644  0.77093  0.53609  Biso   1.000  W
  W25      1.0000 0.68549  0.71940  0.61479  Biso   1.000  W
  W26      1.0000 0.57601  0.67968  0.60633  Biso   1.000  W
  W27      1.0000 0.64424  0.60238  0.64112  Biso   1.000  W
  W28      1.0000 0.75533  0.63958  0.64126  Biso   1.000  W
  W29      1.0000 0.82493  0.55983  0.61039  Biso   1.000  W
  W30      1.0000 0.71419  0.52232  0.61169  Biso   1.000  W
  Co1      1.0000 0.45828  0.54628  0.57617  Biso   1.000  Co
  Co2      1.0000 0.41130  0.76256  0.41929  Biso   1.000  Co
  Co3      1.0000 0.72281  0.80431  0.30688  Biso   1.000  Co
  Co4      1.0000 0.92176  0.67644  0.14097  Biso   1.000  Co
  K1       1.0000 0.75830  0.64393  0.48481  Biso   1.000  K
  P1       1.0000 0.68490  0.64493  0.39720  Biso   1.000  P
  P2       1.0000 0.75920  0.55878  0.43110  Biso   1.000  P
  P3       1.0000 0.75590  0.55854  0.53640  Biso   1.000  P
  P4       1.0000 0.68090  0.64442  0.56920  Biso   1.000  P
  P5       1.0000 0.63620  0.69803  0.48300  Biso   1.000  P
  O1       1.0000 0.70760  0.62200  0.30010  Biso   1.000  O
  O2       1.0000 0.69680  0.55680  0.33070  Biso   1.000  O
  O3       1.0000 0.79130  0.60180  0.33240  Biso   1.000  O
  O4       1.0000 0.78630  0.52970  0.33500  Biso   1.000  O
  O5       1.0000 0.85440  0.52780  0.38860  Biso   1.000  O
  O6       1.0000 0.75510  0.48490  0.38770  Biso   1.000  O
  O7       1.0000 0.67060  0.52060  0.38610  Biso   1.000  O
  O8       1.0000 0.76060  0.55830  0.39050  Biso   1.000  O
  O9       1.0000 0.85060  0.59720  0.38980  Biso   1.000  O
  O10      1.0000 0.79330  0.66250  0.36400  Biso   1.000  O
  O11      1.0000 0.70320  0.62560  0.36470  Biso   1.000  O
  O12      1.0000 0.61320  0.58710  0.36070  Biso   1.000  O
  O13      1.0000 0.62110  0.64420  0.32570  Biso   1.000  O
  O14      1.0000 0.71790  0.68850  0.32810  Biso   1.000  O
  O15      1.0000 0.71090  0.75920  0.33510  Biso   1.000  O
  O16      1.0000 0.62770  0.71580  0.33650  Biso   1.000  O
  O17      1.0000 0.56560  0.64330  0.38270  Biso   1.000  O
  O18      1.0000 0.65760  0.67880  0.38490  Biso   1.000  O
  O19      1.0000 0.74480  0.71640  0.38590  Biso   1.000  O
  O20      1.0000 0.73000  0.65510  0.41940  Biso   1.000  O
  O21      1.0000 0.64950  0.62270  0.41950  Biso   1.000  O
  O22      1.0000 0.60910  0.56050  0.42800  Biso   1.000  O
  O23      1.0000 0.82690  0.65250  0.43230  Biso   1.000  O
  O24      1.0000 0.78470  0.59070  0.44510  Biso   1.000  O
  O25      1.0000 0.70540  0.55640  0.44320  Biso   1.000  O
  O26      1.0000 0.60040  0.48910  0.42310  Biso   1.000  O
  O27      1.0000 0.69710  0.48630  0.44170  Biso   1.000  O
  O28      1.0000 0.78660  0.52460  0.44200  Biso   1.000  O
  O29      1.0000 0.87810  0.56090  0.44430  Biso   1.000  O
  O30      1.0000 0.83330  0.47030  0.42890  Biso   1.000  O
  O31      1.0000 0.77100  0.46520  0.48590  Biso   1.000  O
  O32      1.0000 0.86790  0.50630  0.48390  Biso   1.000  O
  O33      1.0000 0.85750  0.61840  0.48490  Biso   1.000  O
  O34      1.0000 0.63700  0.52240  0.48040  Biso   1.000  O
  O35      1.0000 0.55540  0.61500  0.44720  Biso   1.000  O
  O36      1.0000 0.77790  0.70730  0.44940  Biso   1.000  O
  O37      1.0000 0.65920  0.75170  0.39340  Biso   1.000  O
  O38      1.0000 0.56320  0.71080  0.38750  Biso   1.000  O
  O39      1.0000 0.48490  0.74170  0.41590  Biso   1.000  O
  O40      1.0000 0.57560  0.77180  0.42500  Biso   1.000  O
  O41      1.0000 0.70930  0.75800  0.44920  Biso   1.000  O
  O42      1.0000 0.61840  0.71960  0.44980  Biso   1.000  O
  O43      1.0000 0.52750  0.68130  0.44950  Biso   1.000  O
  O44      1.0000 0.61290  0.66230  0.48250  Biso   1.000  O
  O45      1.0000 0.69420  0.69600  0.48340  Biso   1.000  O
  O46      1.0000 0.77810  0.70690  0.51800  Biso   1.000  O
  O47      1.0000 0.55840  0.61530  0.51600  Biso   1.000  O
  O48      1.0000 0.52010  0.57550  0.56750  Biso   1.000  O
  O49      1.0000 0.64730  0.62160  0.54680  Biso   1.000  O
  O50      1.0000 0.72500  0.65650  0.54840  Biso   1.000  O
  O51      1.0000 0.84140  0.71500  0.57220  Biso   1.000  O
  O52      1.0000 0.82360  0.65260  0.53790  Biso   1.000  O
  O53      1.0000 0.60630  0.56010  0.53340  Biso   1.000  O
  O54      1.0000 0.70410  0.55660  0.52120  Biso   1.000  O
  O55      1.0000 0.78160  0.59150  0.52310  Biso   1.000  O
  O56      1.0000 0.87400  0.56200  0.52570  Biso   1.000  O
  O57      1.0000 0.78510  0.52580  0.52440  Biso   1.000  O
  O58      1.0000 0.69570  0.48400  0.52080  Biso   1.000  O
  O59      1.0000 0.83160  0.47090  0.54150  Biso   1.000  O
  O60      1.0000 0.85030  0.52770  0.57960  Biso   1.000  O
  O61      1.0000 0.74790  0.48690  0.57880  Biso   1.000  O
  O62      1.0000 0.66450  0.52020  0.57740  Biso   1.000  O
  O63      1.0000 0.75370  0.55820  0.57760  Biso   1.000  O
  O64      1.0000 0.84660  0.59610  0.57990  Biso   1.000  O
  O65      1.0000 0.78820  0.66160  0.60410  Biso   1.000  O
  O66      1.0000 0.69680  0.62490  0.60200  Biso   1.000  O
  O67      1.0000 0.61070  0.58400  0.60320  Biso   1.000  O
  O68      1.0000 0.56370  0.64020  0.57890  Biso   1.000  O
  O69      1.0000 0.65170  0.67670  0.58030  Biso   1.000  O
  O70      1.0000 0.74000  0.71730  0.58310  Biso   1.000  O
  O71      1.0000 0.70930  0.75810  0.51630  Biso   1.000  O
  O72      1.0000 0.61940  0.71840  0.51430  Biso   1.000  O
  O73      1.0000 0.52560  0.68150  0.51660  Biso   1.000  O
  O74      1.0000 0.53450  0.74120  0.48290  Biso   1.000  O
  O75      1.0000 0.63400  0.78320  0.48560  Biso   1.000  O
  O76      1.0000 0.57510  0.77040  0.54250  Biso   1.000  O
  O77      1.0000 0.55720  0.71020  0.57370  Biso   1.000  O
  O78      1.0000 0.65640  0.74940  0.57800  Biso   1.000  O
  O79      1.0000 0.61780  0.71250  0.63080  Biso   1.000  O
  O80      1.0000 0.61080  0.64220  0.63830  Biso   1.000  O
  O81      1.0000 0.71370  0.68430  0.64150  Biso   1.000  O
  O82      1.0000 0.69950  0.62130  0.66800  Biso   1.000  O
  O83      1.0000 0.68820  0.55990  0.63470  Biso   1.000  O
  O84      1.0000 0.78660  0.59710  0.63510  Biso   1.000  O
  O85      1.0000 0.77750  0.52820  0.63230  Biso   1.000  O
  N1       1.0000 0.34730  0.56940  0.39300  Biso   1.000  N
  H1       1.0000 0.35710  0.55050  0.38730  Biso   1.000  H
  N2       1.0000 0.30990  0.58210  0.37420  Biso   1.000  N
  N3       1.0000 0.34130  0.70660  0.44710  Biso   1.000  N
  H2       1.0000 0.33050  0.72180  0.46150  Biso   1.000  H
  N4       1.0000 0.38210  0.71290  0.42660  Biso   1.000  N
  N5       1.0000 0.44410  0.81180  0.40890  Biso   1.000  N
  N6       1.0000 0.48790  0.81940  0.42780  Biso   1.000  N
  H3       1.0000 0.49850  0.80840  0.44560  Biso   1.000  H
  C1       1.0000 0.51110  0.84850  0.41200  Biso   1.000  C
  C2       1.0000 0.48170  0.85880  0.38340  Biso   1.000  C
  C3       1.0000 0.44030  0.83610  0.38150  Biso   1.000  C
  N7       1.0000 0.68750  0.74160  0.26610  Biso   1.000  N
  H4       1.0000 0.70700  0.72970  0.27900  Biso   1.000  H
  N8       1.0000 0.67830  0.77670  0.26970  Biso   1.000  N
  N9       1.0000 0.93500  0.55580  0.97820  Biso   1.000  N
  N10      1.0000 0.89060  0.57030  0.97320  Biso   1.000  N
  H5       1.0000 0.86920  0.56270  0.95860  Biso   1.000  H
  N11      1.0000 0.94000  0.64950  0.09590  Biso   1.000  N
  N12      1.0000 0.97280  0.66290  0.07350  Biso   1.000  N
  H6       1.0000 0.99100  0.68030  0.07920  Biso   1.000  H
  N13      1.0000 0.93410  0.73740  0.19190  Biso   1.000  N
  H7       1.0000 0.96240  0.74160  0.18250  Biso   1.000  H
  N14      1.0000 0.90490  0.70680  0.18490  Biso   1.000  N
  N15      1.0000 0.78460  0.77860  0.28440  Biso   1.000  N
  N16      1.0000 0.81100  0.75740  0.30790  Biso   1.000  N
  H8       1.0000 0.80540  0.75580  0.32970  Biso   1.000  H
  N17      1.0000 0.74930  0.82270  0.38040  Biso   1.000  N
  H9       1.0000 0.72090  0.81410  0.38570  Biso   1.000  H
  N18      1.0000 0.76670  0.82370  0.34790  Biso   1.000  N
  C4       1.0000 0.40660  0.58730  0.43250  Biso   1.000  C
  H10      1.0000 0.41300  0.56280  0.43390  Biso   1.000  H
  H11      1.0000 0.39890  0.59610  0.45510  Biso   1.000  H
  H12      1.0000 0.43540  0.59900  0.42370  Biso   1.000  H
  C5       1.0000 0.36920  0.59290  0.41180  Biso   1.000  C
  C6       1.0000 0.34160  0.62650  0.40410  Biso   1.000  C
  C7       1.0000 0.30570  0.61340  0.37960  Biso   1.000  C
  C8       1.0000 0.26800  0.64170  0.36470  Biso   1.000  C
  H13      1.0000 0.24100  0.64480  0.38050  Biso   1.000  H
  H14      1.0000 0.25540  0.63400  0.34280  Biso   1.000  H
  H15      1.0000 0.28490  0.66350  0.36170  Biso   1.000  H
  C9       1.0000 0.27470  0.66730  0.46380  Biso   1.000  C
  H16      1.0000 0.25770  0.68790  0.47130  Biso   1.000  H
  H17      1.0000 0.28390  0.65360  0.48350  Biso   1.000  H
  H18      1.0000 0.25320  0.65390  0.44910  Biso   1.000  H
  C10      1.0000 0.32110  0.67760  0.44370  Biso   1.000  C
  C11      1.0000 0.35100  0.65980  0.42040  Biso   1.000  C
  C12      1.0000 0.38780  0.68140  0.41050  Biso   1.000  C
  C13      1.0000 0.42880  0.67310  0.38510  Biso   1.000  C
  H19      1.0000 0.43640  0.69350  0.37180  Biso   1.000  H
  H20      1.0000 0.41820  0.65480  0.36990  Biso   1.000  H
  H21      1.0000 0.45770  0.66570  0.39750  Biso   1.000  H
  C14      1.0000 0.55640  0.86180  0.42750  Biso   1.000  C
  H22      1.0000 0.54830  0.87970  0.44390  Biso   1.000  H
  H23      1.0000 0.57730  0.87120  0.40980  Biso   1.000  H
  H24      1.0000 0.57330  0.84320  0.43910  Biso   1.000  H
  C15      1.0000 0.39900  0.84050  0.35900  Biso   1.000  C
  H25      1.0000 0.40700  0.83150  0.33660  Biso   1.000  H
  H26      1.0000 0.39120  0.86480  0.35720  Biso   1.000  H
  H27      1.0000 0.37100  0.82820  0.36810  Biso   1.000  H
  C16      1.0000 0.47280  0.93820  0.40920  Biso   1.000  C
  H28      1.0000 0.44130  0.92890  0.41600  Biso   1.000  H
  H29      1.0000 0.47100  0.96320  0.40850  Biso   1.000  H
  H30      1.0000 0.49760  0.93130  0.42560  Biso   1.000  H
  C17      1.0000 0.50250  0.88700  0.33040  Biso   1.000  C
  C18      1.0000 0.48860  0.88920  0.36570  Biso   1.000  C
  C19      1.0000 0.48610  0.92500  0.37480  Biso   1.000  C
  N19      1.0000 0.49840  0.94480  0.34510  Biso   1.000  N
  N20      1.0000 0.50850  0.92140  0.31770  Biso   1.000  N
  H31      1.0000 0.51690  0.92700  0.29700  Biso   1.000  H
  C20      1.0000 0.51000  0.85560  0.30270  Biso   1.000  C
  H32      1.0000 0.53400  0.83930  0.31150  Biso   1.000  H
  H33      1.0000 0.52190  0.86500  0.28130  Biso   1.000  H
  H34      1.0000 0.47920  0.84390  0.29900  Biso   1.000  H
  C21      1.0000 0.52200  0.76050  0.21190  Biso   1.000  C
  H35      1.0000 0.51820  0.73790  0.22200  Biso   1.000  H
  H36      1.0000 0.49220  0.76750  0.20080  Biso   1.000  H
  H37      1.0000 0.53060  0.77700  0.22960  Biso   1.000  H
  C22      1.0000 0.61310  0.75430  0.19020  Biso   1.000  C
  C23      1.0000 0.63330  0.75170  0.15640  Biso   1.000  C
  N21      1.0000 0.59390  0.75510  0.13240  Biso   1.000  N
  N22      1.0000 0.54940  0.75990  0.15130  Biso   1.000  N
  H38      1.0000 0.52030  0.76260  0.14270  Biso   1.000  H
  C24      1.0000 0.56130  0.75940  0.18700  Biso   1.000  C
  C25      1.0000 0.68130  0.74930  0.15100  Biso   1.000  C
  H39      1.0000 0.69750  0.76940  0.16040  Biso   1.000  H
  H40      1.0000 0.68760  0.74800  0.12670  Biso   1.000  H
  H41      1.0000 0.69390  0.72880  0.16210  Biso   1.000  H
  C26      1.0000 0.67270  0.69110  0.22870  Biso   1.000  C
  H42      1.0000 0.70740  0.68830  0.22420  Biso   1.000  H
  H43      1.0000 0.65430  0.68600  0.20810  Biso   1.000  H
  H44      1.0000 0.66290  0.67540  0.24680  Biso   1.000  H
  C27      1.0000 0.66220  0.72890  0.24010  Biso   1.000  C
  C28      1.0000 0.63900  0.75160  0.22350  Biso   1.000  C
  C29      1.0000 0.64710  0.78520  0.24220  Biso   1.000  C
  C30      1.0000 0.62780  0.82210  0.23870  Biso   1.000  C
  H45      1.0000 0.64520  0.83700  0.25440  Biso   1.000  H
  H46      1.0000 0.59310  0.82250  0.24390  Biso   1.000  H
  H47      1.0000 0.63300  0.83010  0.21550  Biso   1.000  H
  C31      1.0000 0.01030  0.56400  0.01230  Biso   1.000  C
  H48      1.0000 0.01920  0.54150  0.00330  Biso   1.000  H
  H49      1.0000 0.01430  0.56400  0.03690  Biso   1.000  H
  H50      1.0000 0.03130  0.58140  0.00230  Biso   1.000  H
  C32      1.0000 0.95840  0.57150  0.00360  Biso   1.000  C
  C33      1.0000 0.92870  0.59920  0.01520  Biso   1.000  C
  C34      1.0000 0.88350  0.59740  0.99340  Biso   1.000  C
  C35      1.0000 0.83780  0.61820  0.99520  Biso   1.000  C
  H51      1.0000 0.84320  0.64030  0.98430  Biso   1.000  H
  H52      1.0000 0.82890  0.62170  0.01890  Biso   1.000  H
  H53      1.0000 0.81160  0.60610  0.98350  Biso   1.000  H
  C36      1.0000 0.87620  0.60510  0.09000  Biso   1.000  C
  H54      1.0000 0.88610  0.59420  0.11120  Biso   1.000  H
  H55      1.0000 0.86550  0.58770  0.07400  Biso   1.000  H
  H56      1.0000 0.84950  0.62100  0.09450  Biso   1.000  H
  C37      1.0000 0.91590  0.62330  0.07620  Biso   1.000  C
  C38      1.0000 0.93740  0.62490  0.03970  Biso   1.000  C
  C39      1.0000 0.97630  0.64920  0.04360  Biso   1.000  C
  C40      1.0000 0.00740  0.66060  0.01470  Biso   1.000  C
  H57      1.0000 0.02140  0.68300  0.01990  Biso   1.000  H
  H58      1.0000 0.98760  0.66220  0.99420  Biso   1.000  H
  H59      1.0000 0.03350  0.64410  0.01110  Biso   1.000  H
  C41      1.0000 0.82510  0.68830  0.20820  Biso   1.000  C
  H60      1.0000 0.81550  0.68260  0.18500  Biso   1.000  H
  H61      1.0000 0.79900  0.70110  0.21920  Biso   1.000  H
  H62      1.0000 0.83120  0.66730  0.22090  Biso   1.000  H
  C42      1.0000 0.86930  0.70900  0.20750  Biso   1.000  C
  C43      1.0000 0.87670  0.73880  0.22890  Biso   1.000  C
  C44      1.0000 0.91300  0.75780  0.21400  Biso   1.000  C
  C45      1.0000 0.93940  0.79190  0.22510  Biso   1.000  C
  H63      1.0000 0.97010  0.78630  0.23630  Biso   1.000  H
  H64      1.0000 0.91860  0.80450  0.24080  Biso   1.000  H
  H65      1.0000 0.94580  0.80590  0.20510  Biso   1.000  H
  C46      1.0000 0.78010  0.79220  0.22420  Biso   1.000  C
  H66      1.0000 0.74750  0.80040  0.23000  Biso   1.000  H
  H67      1.0000 0.77800  0.77640  0.20510  Biso   1.000  H
  H68      1.0000 0.80060  0.81160  0.21790  Biso   1.000  H
  C47      1.0000 0.80220  0.77390  0.25480  Biso   1.000  C
  C48      1.0000 0.84100  0.74790  0.25490  Biso   1.000  C
  C49      1.0000 0.84790  0.73940  0.28970  Biso   1.000  C
  C50      1.0000 0.87650  0.71600  0.30460  Biso   1.000  C
  H69      1.0000 0.90910  0.71710  0.29480  Biso   1.000  H
  H70      1.0000 0.86290  0.69320  0.30100  Biso   1.000  H
  H71      1.0000 0.87830  0.72070  0.32900  Biso   1.000  H
  C51      1.0000 0.84660  0.84200  0.32230  Biso   1.000  C
  H72      1.0000 0.87040  0.82350  0.32290  Biso   1.000  H
  H73      1.0000 0.86340  0.86400  0.32270  Biso   1.000  H
  H74      1.0000 0.82720  0.84020  0.30160  Biso   1.000  H
  C52      1.0000 0.81370  0.83930  0.35280  Biso   1.000  C
  C53      1.0000 0.82230  0.84710  0.38620  Biso   1.000  C
  C54      1.0000 0.78070  0.83650  0.40440  Biso   1.000  C
  C55      1.0000 0.76890  0.84130  0.44380  Biso   1.000  C
  H75      1.0000 0.73570  0.84980  0.44640  Biso   1.000  H
  H76      1.0000 0.79170  0.85770  0.45360  Biso   1.000  H
  H77      1.0000 0.77210  0.81930  0.45540  Biso   1.000  H
  C56      1.0000 0.90110  0.81630  0.44680  Biso   1.000  C
  H78      1.0000 0.91820  0.80010  0.43230  Biso   1.000  H
  H79      1.0000 0.86880  0.80730  0.45230  Biso   1.000  H
  H80      1.0000 0.91950  0.81970  0.46770  Biso   1.000  H
  C57      1.0000 0.87450  0.89950  0.39560  Biso   1.000  C
  N23      1.0000 0.91400  0.90900  0.41790  Biso   1.000  N
  N24      1.0000 0.92710  0.87940  0.43770  Biso   1.000  N
  H81      1.0000 0.95000  0.87840  0.45310  Biso   1.000  H
  C58      1.0000 0.89570  0.85150  0.42770  Biso   1.000  C
  C59      1.0000 0.86320  0.86400  0.40170  Biso   1.000  C
  C60      1.0000 0.85300  0.92500  0.37230  Biso   1.000  C
  H82      1.0000 0.85480  0.94770  0.38250  Biso   1.000  H
  H83      1.0000 0.81900  0.91910  0.36800  Biso   1.000  H
  H84      1.0000 0.87100  0.92490  0.35090  Biso   1.000  H
  O86      1.0000 0.68140  0.61050  0.48140  Biso   1.000  O
  K2       1.0000 0.64970  0.59880  0.48200  Biso   1.000  K
  O87      1.0000 0.72800  0.62960  0.48640  Biso   1.000  O
  W31      1.0000 0.67512  0.93190  0.85524  Biso   1.000  W
  W32      1.0000 0.77277  0.98472  0.85717  Biso   1.000  W
  W33      1.0000 0.84251  0.90455  0.82578  Biso   1.000  W
  W34      1.0000 0.74504  0.85139  0.82468  Biso   1.000  W
  W35      1.0000 0.81215  0.77410  0.86110  Biso   1.000  W
  W36      1.0000 0.91207  0.82311  0.85011  Biso   1.000  W
  W37      1.0000 0.92316  0.90059  0.90347  Biso   1.000  W
  W38      1.0000 0.70477  0.81267  0.90600  Biso   1.000  W
  W39      1.0000 0.63781  0.89106  0.93827  Biso   1.000  W
  W40      1.0000 0.85422  0.98018  0.93208  Biso   1.000  W
  W41      1.0000 0.73784  0.03117  0.93916  Biso   1.000  W
  W42      1.0000 0.63289  0.98513  0.93160  Biso   1.000  W
  W43      1.0000 0.63322  0.98626  0.02991  Biso   1.000  W
  W44      1.0000 0.73790  0.03093  0.03726  Biso   1.000  W
  W45      1.0000 0.85389  0.98320  0.02878  Biso   1.000  W
  W46      1.0000 0.64012  0.88990  0.03499  Biso   1.000  W
  W47      1.0000 0.71066  0.81092  0.06274  Biso   1.000  W
  W48      1.0000 0.92205  0.90435  0.05938  Biso   1.000  W
  W49      1.0000 0.96606  0.85359  0.98320  Biso   1.000  W
  W50      1.0000 0.74953  0.76298  0.98331  Biso   1.000  W
  W51      1.0000 0.85608  0.72478  0.93990  Biso   1.000  W
  W52      1.0000 0.95664  0.77391  0.92978  Biso   1.000  W
  W53      1.0000 0.96238  0.76962  0.02662  Biso   1.000  W
  W54      1.0000 0.85356  0.72907  0.03609  Biso   1.000  W
  W55      1.0000 0.81451  0.78060  0.11479  Biso   1.000  W
  W56      1.0000 0.92399  0.82032  0.10633  Biso   1.000  W
  W57      1.0000 0.85576  0.89762  0.14112  Biso   1.000  W
  W58      1.0000 0.74467  0.86042  0.14126  Biso   1.000  W
  W59      1.0000 0.67507  0.94017  0.11039  Biso   1.000  W
  W60      1.0000 0.78581  0.97768  0.11169  Biso   1.000  W
  Co5      1.0000 0.04172  0.95372  0.07617  Biso   1.000  Co
  Co6      1.0000 0.08870  0.73744  0.91929  Biso   1.000  Co
  Co7      1.0000 0.77719  0.69569  0.80688  Biso   1.000  Co
  Co8      1.0000 0.57824  0.82356  0.64097  Biso   1.000  Co
  K3       1.0000 0.74170  0.85607  0.98481  Biso   1.000  K
  P6       1.0000 0.81510  0.85507  0.89720  Biso   1.000  P
  P7       1.0000 0.74080  0.94122  0.93110  Biso   1.000  P
  P8       1.0000 0.74410  0.94146  0.03640  Biso   1.000  P
  P9       1.0000 0.81910  0.85558  0.06920  Biso   1.000  P
  P10      1.0000 0.86380  0.80197  0.98300  Biso   1.000  P
  O88      1.0000 0.79240  0.87800  0.80010  Biso   1.000  O
  O89      1.0000 0.80320  0.94320  0.83070  Biso   1.000  O
  O90      1.0000 0.70870  0.89820  0.83240  Biso   1.000  O
  O91      1.0000 0.71370  0.97030  0.83500  Biso   1.000  O
  O92      1.0000 0.64560  0.97220  0.88860  Biso   1.000  O
  O93      1.0000 0.74490  0.01510  0.88770  Biso   1.000  O
  O94      1.0000 0.82940  0.97940  0.88610  Biso   1.000  O
  O95      1.0000 0.73940  0.94170  0.89050  Biso   1.000  O
  O96      1.0000 0.64940  0.90280  0.88980  Biso   1.000  O
  O97      1.0000 0.70670  0.83750  0.86400  Biso   1.000  O
  O98      1.0000 0.79680  0.87440  0.86470  Biso   1.000  O
  O99      1.0000 0.88680  0.91290  0.86070  Biso   1.000  O
  O100     1.0000 0.87890  0.85580  0.82570  Biso   1.000  O
  O101     1.0000 0.78210  0.81150  0.82810  Biso   1.000  O
  O102     1.0000 0.78910  0.74080  0.83510  Biso   1.000  O
  O103     1.0000 0.87230  0.78420  0.83650  Biso   1.000  O
  O104     1.0000 0.93440  0.85670  0.88270  Biso   1.000  O
  O105     1.0000 0.84240  0.82120  0.88490  Biso   1.000  O
  O106     1.0000 0.75520  0.78360  0.88590  Biso   1.000  O
  O107     1.0000 0.77000  0.84490  0.91940  Biso   1.000  O
  O108     1.0000 0.85050  0.87730  0.91950  Biso   1.000  O
  O109     1.0000 0.89090  0.93950  0.92800  Biso   1.000  O
  O110     1.0000 0.67310  0.84750  0.93230  Biso   1.000  O
  O111     1.0000 0.71530  0.90930  0.94510  Biso   1.000  O
  O112     1.0000 0.79460  0.94360  0.94320  Biso   1.000  O
  O113     1.0000 0.89960  0.01090  0.92310  Biso   1.000  O
  O114     1.0000 0.80290  0.01370  0.94170  Biso   1.000  O
  O115     1.0000 0.71340  0.97540  0.94200  Biso   1.000  O
  O116     1.0000 0.62190  0.93910  0.94430  Biso   1.000  O
  O117     1.0000 0.66670  0.02970  0.92890  Biso   1.000  O
  O118     1.0000 0.72900  0.03480  0.98590  Biso   1.000  O
  O119     1.0000 0.63210  0.99370  0.98390  Biso   1.000  O
  O120     1.0000 0.64250  0.88160  0.98490  Biso   1.000  O
  O121     1.0000 0.86300  0.97760  0.98040  Biso   1.000  O
  O122     1.0000 0.94460  0.88500  0.94720  Biso   1.000  O
  O123     1.0000 0.72210  0.79270  0.94940  Biso   1.000  O
  O124     1.0000 0.84080  0.74830  0.89340  Biso   1.000  O
  O125     1.0000 0.93680  0.78920  0.88750  Biso   1.000  O
  O126     1.0000 0.01510  0.75830  0.91590  Biso   1.000  O
  O127     1.0000 0.92440  0.72820  0.92500  Biso   1.000  O
  O128     1.0000 0.79070  0.74200  0.94920  Biso   1.000  O
  O129     1.0000 0.88160  0.78040  0.94980  Biso   1.000  O
  O130     1.0000 0.97250  0.81870  0.94950  Biso   1.000  O
  O131     1.0000 0.88710  0.83770  0.98250  Biso   1.000  O
  O132     1.0000 0.80580  0.80400  0.98340  Biso   1.000  O
  O133     1.0000 0.72190  0.79310  0.01800  Biso   1.000  O
  O134     1.0000 0.94160  0.88470  0.01600  Biso   1.000  O
  O135     1.0000 0.97990  0.92450  0.06750  Biso   1.000  O
  O136     1.0000 0.85270  0.87840  0.04680  Biso   1.000  O
  O137     1.0000 0.77500  0.84350  0.04840  Biso   1.000  O
  O138     1.0000 0.65860  0.78500  0.07220  Biso   1.000  O
  O139     1.0000 0.67640  0.84740  0.03790  Biso   1.000  O
  O140     1.0000 0.89370  0.93990  0.03340  Biso   1.000  O
  O141     1.0000 0.79590  0.94340  0.02120  Biso   1.000  O
  O142     1.0000 0.71840  0.90850  0.02310  Biso   1.000  O
  O143     1.0000 0.62600  0.93800  0.02570  Biso   1.000  O
  O144     1.0000 0.71490  0.97420  0.02440  Biso   1.000  O
  O145     1.0000 0.80430  0.01600  0.02080  Biso   1.000  O
  O146     1.0000 0.66840  0.02910  0.04150  Biso   1.000  O
  O147     1.0000 0.64970  0.97230  0.07960  Biso   1.000  O
  O148     1.0000 0.75210  0.01310  0.07880  Biso   1.000  O
  O149     1.0000 0.83550  0.97980  0.07740  Biso   1.000  O
  O150     1.0000 0.74630  0.94180  0.07760  Biso   1.000  O
  O151     1.0000 0.65340  0.90390  0.07990  Biso   1.000  O
  O152     1.0000 0.71180  0.83840  0.10410  Biso   1.000  O
  O153     1.0000 0.80320  0.87510  0.10200  Biso   1.000  O
  O154     1.0000 0.88930  0.91600  0.10320  Biso   1.000  O
  O155     1.0000 0.93630  0.85980  0.07890  Biso   1.000  O
  O156     1.0000 0.84830  0.82330  0.08030  Biso   1.000  O
  O157     1.0000 0.76000  0.78270  0.08310  Biso   1.000  O
  O158     1.0000 0.79070  0.74190  0.01630  Biso   1.000  O
  O159     1.0000 0.88060  0.78160  0.01430  Biso   1.000  O
  O160     1.0000 0.97440  0.81850  0.01660  Biso   1.000  O
  O161     1.0000 0.96550  0.75880  0.98290  Biso   1.000  O
  O162     1.0000 0.86600  0.71680  0.98560  Biso   1.000  O
  O163     1.0000 0.92490  0.72960  0.04250  Biso   1.000  O
  O164     1.0000 0.94280  0.78980  0.07370  Biso   1.000  O
  O165     1.0000 0.84360  0.75060  0.07800  Biso   1.000  O
  O166     1.0000 0.88220  0.78750  0.13080  Biso   1.000  O
  O167     1.0000 0.88920  0.85780  0.13830  Biso   1.000  O
  O168     1.0000 0.78630  0.81570  0.14150  Biso   1.000  O
  O169     1.0000 0.80050  0.87870  0.16800  Biso   1.000  O
  O170     1.0000 0.81180  0.94010  0.13470  Biso   1.000  O
  O171     1.0000 0.71340  0.90290  0.13510  Biso   1.000  O
  O172     1.0000 0.72250  0.97180  0.13230  Biso   1.000  O
  N25      1.0000 0.15270  0.93060  0.89300  Biso   1.000  N
  H85      1.0000 0.14290  0.94950  0.88730  Biso   1.000  H
  N26      1.0000 0.19010  0.91790  0.87420  Biso   1.000  N
  N27      1.0000 0.15870  0.79340  0.94710  Biso   1.000  N
  H86      1.0000 0.16950  0.77820  0.96150  Biso   1.000  H
  N28      1.0000 0.11790  0.78710  0.92660  Biso   1.000  N
  N29      1.0000 0.05590  0.68820  0.90890  Biso   1.000  N
  N30      1.0000 0.01210  0.68060  0.92780  Biso   1.000  N
  H87      1.0000 0.00150  0.69160  0.94560  Biso   1.000  H
  C61      1.0000 0.98890  0.65150  0.91200  Biso   1.000  C
  C62      1.0000 0.01830  0.64120  0.88340  Biso   1.000  C
  C63      1.0000 0.05970  0.66390  0.88150  Biso   1.000  C
  N31      1.0000 0.81250  0.75840  0.76610  Biso   1.000  N
  H88      1.0000 0.79300  0.77030  0.77900  Biso   1.000  H
  N32      1.0000 0.82170  0.72330  0.76970  Biso   1.000  N
  N33      1.0000 0.56500  0.94420  0.47820  Biso   1.000  N
  N34      1.0000 0.60940  0.92970  0.47320  Biso   1.000  N
  H89      1.0000 0.63080  0.93730  0.45860  Biso   1.000  H
  N35      1.0000 0.56000  0.85050  0.59590  Biso   1.000  N
  N36      1.0000 0.52720  0.83710  0.57350  Biso   1.000  N
  H90      1.0000 0.50900  0.81970  0.57920  Biso   1.000  H
  N37      1.0000 0.56590  0.76260  0.69190  Biso   1.000  N
  H91      1.0000 0.53760  0.75840  0.68250  Biso   1.000  H
  N38      1.0000 0.59510  0.79320  0.68490  Biso   1.000  N
  N39      1.0000 0.71540  0.72140  0.78440  Biso   1.000  N
  N40      1.0000 0.68900  0.74260  0.80790  Biso   1.000  N
  H92      1.0000 0.69460  0.74420  0.82970  Biso   1.000  H
  N41      1.0000 0.75070  0.67730  0.88040  Biso   1.000  N
  H93      1.0000 0.77910  0.68590  0.88570  Biso   1.000  H
  N42      1.0000 0.73330  0.67630  0.84790  Biso   1.000  N
  C64      1.0000 0.09340  0.91270  0.93250  Biso   1.000  C
  H94      1.0000 0.08700  0.93720  0.93390  Biso   1.000  H
  H95      1.0000 0.10110  0.90390  0.95510  Biso   1.000  H
  H96      1.0000 0.06460  0.90100  0.92370  Biso   1.000  H
  C65      1.0000 0.13080  0.90710  0.91180  Biso   1.000  C
  C66      1.0000 0.15840  0.87350  0.90410  Biso   1.000  C
  C67      1.0000 0.19430  0.88660  0.87960  Biso   1.000  C
  C68      1.0000 0.23200  0.85830  0.86470  Biso   1.000  C
  H97      1.0000 0.25900  0.85520  0.88050  Biso   1.000  H
  H98      1.0000 0.24460  0.86600  0.84280  Biso   1.000  H
  H99      1.0000 0.21510  0.83650  0.86170  Biso   1.000  H
  C69      1.0000 0.22530  0.83270  0.96380  Biso   1.000  C
  H100     1.0000 0.24230  0.81210  0.97130  Biso   1.000  H
  H101     1.0000 0.21610  0.84640  0.98350  Biso   1.000  H
  H102     1.0000 0.24680  0.84610  0.94910  Biso   1.000  H
  C70      1.0000 0.17890  0.82240  0.94370  Biso   1.000  C
  C71      1.0000 0.14900  0.84020  0.92040  Biso   1.000  C
  C72      1.0000 0.11220  0.81860  0.91050  Biso   1.000  C
  C73      1.0000 0.07120  0.82690  0.88510  Biso   1.000  C
  H103     1.0000 0.06360  0.80650  0.87180  Biso   1.000  H
  H104     1.0000 0.08180  0.84520  0.86990  Biso   1.000  H
  H105     1.0000 0.04230  0.83430  0.89750  Biso   1.000  H
  C74      1.0000 0.94360  0.63820  0.92750  Biso   1.000  C
  H106     1.0000 0.95170  0.62030  0.94390  Biso   1.000  H
  H107     1.0000 0.92270  0.62880  0.90980  Biso   1.000  H
  H108     1.0000 0.92670  0.65680  0.93910  Biso   1.000  H
  C75      1.0000 0.10100  0.65950  0.85900  Biso   1.000  C
  H109     1.0000 0.09300  0.66850  0.83660  Biso   1.000  H
  H110     1.0000 0.10880  0.63520  0.85720  Biso   1.000  H
  H111     1.0000 0.12900  0.67180  0.86810  Biso   1.000  H
  C76      1.0000 0.02720  0.56180  0.90920  Biso   1.000  C
  H112     1.0000 0.05870  0.57110  0.91600  Biso   1.000  H
  H113     1.0000 0.02900  0.53680  0.90850  Biso   1.000  H
  H114     1.0000 0.00240  0.56870  0.92560  Biso   1.000  H
  C77      1.0000 0.99750  0.61300  0.83040  Biso   1.000  C
  C78      1.0000 0.01140  0.61080  0.86570  Biso   1.000  C
  C79      1.0000 0.01390  0.57500  0.87480  Biso   1.000  C
  N43      1.0000 0.00160  0.55520  0.84510  Biso   1.000  N
  N44      1.0000 0.99150  0.57860  0.81770  Biso   1.000  N
  H115     1.0000 0.98310  0.57300  0.79700  Biso   1.000  H
  C80      1.0000 0.99000  0.64440  0.80270  Biso   1.000  C
  H116     1.0000 0.96600  0.66070  0.81150  Biso   1.000  H
  H117     1.0000 0.97810  0.63500  0.78130  Biso   1.000  H
  H118     1.0000 0.02080  0.65610  0.79900  Biso   1.000  H
  C81      1.0000 0.97800  0.73950  0.71190  Biso   1.000  C
  H119     1.0000 0.98180  0.76210  0.72200  Biso   1.000  H
  H120     1.0000 0.00780  0.73250  0.70080  Biso   1.000  H
  H121     1.0000 0.96940  0.72300  0.72960  Biso   1.000  H
  C82      1.0000 0.88690  0.74570  0.69020  Biso   1.000  C
  C83      1.0000 0.86670  0.74830  0.65640  Biso   1.000  C
  N45      1.0000 0.90610  0.74490  0.63240  Biso   1.000  N
  N46      1.0000 0.95060  0.74010  0.65130  Biso   1.000  N
  H122     1.0000 0.97970  0.73740  0.64270  Biso   1.000  H
  C84      1.0000 0.93870  0.74060  0.68700  Biso   1.000  C
  C85      1.0000 0.81870  0.75070  0.65100  Biso   1.000  C
  H123     1.0000 0.80250  0.73060  0.66040  Biso   1.000  H
  H124     1.0000 0.81240  0.75200  0.62670  Biso   1.000  H
  H125     1.0000 0.80610  0.77120  0.66210  Biso   1.000  H
  C86      1.0000 0.82730  0.80890  0.72870  Biso   1.000  C
  H126     1.0000 0.79260  0.81170  0.72420  Biso   1.000  H
  H127     1.0000 0.84570  0.81400  0.70810  Biso   1.000  H
  H128     1.0000 0.83710  0.82460  0.74680  Biso   1.000  H
  C87      1.0000 0.83780  0.77110  0.74010  Biso   1.000  C
  C88      1.0000 0.86100  0.74840  0.72350  Biso   1.000  C
  C89      1.0000 0.85290  0.71480  0.74220  Biso   1.000  C
  C90      1.0000 0.87220  0.67790  0.73870  Biso   1.000  C
  H129     1.0000 0.85480  0.66300  0.75440  Biso   1.000  H
  H130     1.0000 0.90690  0.67750  0.74390  Biso   1.000  H
  H131     1.0000 0.86700  0.66990  0.71550  Biso   1.000  H
  C91      1.0000 0.48970  0.93600  0.51230  Biso   1.000  C
  H132     1.0000 0.48080  0.95850  0.50330  Biso   1.000  H
  H133     1.0000 0.48570  0.93600  0.53690  Biso   1.000  H
  H134     1.0000 0.46870  0.91860  0.50230  Biso   1.000  H
  C92      1.0000 0.54160  0.92850  0.50360  Biso   1.000  C
  C93      1.0000 0.57130  0.90080  0.51520  Biso   1.000  C
  C94      1.0000 0.61650  0.90260  0.49340  Biso   1.000  C
  C95      1.0000 0.66220  0.88180  0.49520  Biso   1.000  C
  H135     1.0000 0.65680  0.85970  0.48430  Biso   1.000  H
  H136     1.0000 0.67110  0.87830  0.51890  Biso   1.000  H
  H137     1.0000 0.68840  0.89390  0.48350  Biso   1.000  H
  C96      1.0000 0.62380  0.89490  0.59000  Biso   1.000  C
  H138     1.0000 0.61390  0.90580  0.61120  Biso   1.000  H
  H139     1.0000 0.63450  0.91230  0.57400  Biso   1.000  H
  H140     1.0000 0.65050  0.87900  0.59450  Biso   1.000  H
  C97      1.0000 0.58410  0.87670  0.57620  Biso   1.000  C
  C98      1.0000 0.56260  0.87510  0.53970  Biso   1.000  C
  C99      1.0000 0.52370  0.85080  0.54360  Biso   1.000  C
  C100     1.0000 0.49260  0.83940  0.51470  Biso   1.000  C
  H141     1.0000 0.47860  0.81700  0.51990  Biso   1.000  H
  H142     1.0000 0.51240  0.83780  0.49420  Biso   1.000  H
  H143     1.0000 0.46650  0.85590  0.51110  Biso   1.000  H
  C101     1.0000 0.67490  0.81170  0.70820  Biso   1.000  C
  H144     1.0000 0.68450  0.81740  0.68500  Biso   1.000  H
  H145     1.0000 0.70100  0.79890  0.71920  Biso   1.000  H
  H146     1.0000 0.66880  0.83270  0.72090  Biso   1.000  H
  C102     1.0000 0.63070  0.79100  0.70750  Biso   1.000  C
  C103     1.0000 0.62330  0.76120  0.72890  Biso   1.000  C
  C104     1.0000 0.58700  0.74220  0.71400  Biso   1.000  C
  C105     1.0000 0.56060  0.70810  0.72510  Biso   1.000  C
  H147     1.0000 0.52990  0.71370  0.73630  Biso   1.000  H
  H148     1.0000 0.58140  0.69550  0.74080  Biso   1.000  H
  H149     1.0000 0.55420  0.69410  0.70510  Biso   1.000  H
  C106     1.0000 0.71990  0.70780  0.72420  Biso   1.000  C
  H150     1.0000 0.75250  0.69960  0.73000  Biso   1.000  H
  H151     1.0000 0.72200  0.72360  0.70510  Biso   1.000  H
  H152     1.0000 0.69940  0.68840  0.71790  Biso   1.000  H
  C107     1.0000 0.69780  0.72610  0.75480  Biso   1.000  C
  C108     1.0000 0.65900  0.75210  0.75490  Biso   1.000  C
  C109     1.0000 0.65210  0.76060  0.78970  Biso   1.000  C
  C110     1.0000 0.62350  0.78400  0.80460  Biso   1.000  C
  H153     1.0000 0.59090  0.78290  0.79480  Biso   1.000  H
  H154     1.0000 0.63710  0.80680  0.80100  Biso   1.000  H
  H155     1.0000 0.62170  0.77930  0.82900  Biso   1.000  H
  C111     1.0000 0.65340  0.65800  0.82230  Biso   1.000  C
  H156     1.0000 0.62960  0.67650  0.82290  Biso   1.000  H
  H157     1.0000 0.63660  0.63600  0.82270  Biso   1.000  H
  H158     1.0000 0.67280  0.65980  0.80160  Biso   1.000  H
  C112     1.0000 0.68630  0.66070  0.85280  Biso   1.000  C
  C113     1.0000 0.67770  0.65290  0.88620  Biso   1.000  C
  C114     1.0000 0.71930  0.66350  0.90440  Biso   1.000  C
  C115     1.0000 0.73110  0.65870  0.94380  Biso   1.000  C
  H159     1.0000 0.76430  0.65020  0.94640  Biso   1.000  H
  H160     1.0000 0.70830  0.64230  0.95360  Biso   1.000  H
  H161     1.0000 0.72790  0.68070  0.95540  Biso   1.000  H
  C116     1.0000 0.59890  0.68370  0.94680  Biso   1.000  C
  H162     1.0000 0.58180  0.69990  0.93230  Biso   1.000  H
  H163     1.0000 0.63120  0.69270  0.95230  Biso   1.000  H
  H164     1.0000 0.58050  0.68030  0.96770  Biso   1.000  H
  C117     1.0000 0.62550  0.60050  0.89560  Biso   1.000  C
  N47      1.0000 0.58600  0.59100  0.91790  Biso   1.000  N
  N48      1.0000 0.57290  0.62060  0.93770  Biso   1.000  N
  H165     1.0000 0.55000  0.62160  0.95310  Biso   1.000  H
  C118     1.0000 0.60430  0.64850  0.92770  Biso   1.000  C
  C119     1.0000 0.63680  0.63600  0.90170  Biso   1.000  C
  C120     1.0000 0.64700  0.57500  0.87230  Biso   1.000  C
  H166     1.0000 0.64520  0.55230  0.88250  Biso   1.000  H
  H167     1.0000 0.68100  0.58090  0.86800  Biso   1.000  H
  H168     1.0000 0.62900  0.57510  0.85090  Biso   1.000  H
  O173     1.0000 0.81860  0.88950  0.98140  Biso   1.000  O
  K4       1.0000 0.85030  0.90120  0.98200  Biso   1.000  K
  O174     1.0000 0.77200  0.87040  0.98640  Biso   1.000  O
  W61      1.0000 0.17512  0.56810  0.14476  Biso   1.000  W
  W62      1.0000 0.27277  0.51528  0.14283  Biso   1.000  W
  W63      1.0000 0.34251  0.59545  0.17422  Biso   1.000  W
  W64      1.0000 0.24504  0.64861  0.17532  Biso   1.000  W
  W65      1.0000 0.31215  0.72590  0.13890  Biso   1.000  W
  W66      1.0000 0.41207  0.67689  0.14989  Biso   1.000  W
  W67      1.0000 0.42316  0.59941  0.09653  Biso   1.000  W
  W68      1.0000 0.20477  0.68733  0.09400  Biso   1.000  W
  W69      1.0000 0.13781  0.60894  0.06173  Biso   1.000  W
  W70      1.0000 0.35422  0.51982  0.06792  Biso   1.000  W
  W71      1.0000 0.23784  0.46883  0.06084  Biso   1.000  W
  W72      1.0000 0.13289  0.51487  0.06840  Biso   1.000  W
  W73      1.0000 0.13322  0.51374  0.97009  Biso   1.000  W
  W74      1.0000 0.23790  0.46907  0.96274  Biso   1.000  W
  W75      1.0000 0.35389  0.51680  0.97122  Biso   1.000  W
  W76      1.0000 0.14012  0.61010  0.96501  Biso   1.000  W
  W77      1.0000 0.21066  0.68908  0.93726  Biso   1.000  W
  W78      1.0000 0.42205  0.59565  0.94062  Biso   1.000  W
  W79      1.0000 0.46606  0.64641  0.01680  Biso   1.000  W
  W80      1.0000 0.24953  0.73702  0.01669  Biso   1.000  W
  W81      1.0000 0.35608  0.77522  0.06010  Biso   1.000  W
  W82      1.0000 0.45664  0.72609  0.07022  Biso   1.000  W
  W83      1.0000 0.46238  0.73038  0.97338  Biso   1.000  W
  W84      1.0000 0.35356  0.77093  0.96391  Biso   1.000  W
  W85      1.0000 0.31451  0.71940  0.88521  Biso   1.000  W
  W86      1.0000 0.42399  0.67968  0.89367  Biso   1.000  W
  W87      1.0000 0.35576  0.60238  0.85888  Biso   1.000  W
  W88      1.0000 0.24467  0.63958  0.85874  Biso   1.000  W
  W89      1.0000 0.17507  0.55983  0.88961  Biso   1.000  W
  W90      1.0000 0.28581  0.52232  0.88831  Biso   1.000  W
  Co9      1.0000 0.54172  0.54628  0.92383  Biso   1.000  Co
  Co10     1.0000 0.58870  0.76256  0.08071  Biso   1.000  Co
  Co11     1.0000 0.27719  0.80431  0.19312  Biso   1.000  Co
  Co12     1.0000 0.07824  0.67644  0.35903  Biso   1.000  Co
  K5       1.0000 0.24170  0.64393  0.01519  Biso   1.000  K
  P11      1.0000 0.31510  0.64493  0.10280  Biso   1.000  P
  P12      1.0000 0.24080  0.55878  0.06890  Biso   1.000  P
  P13      1.0000 0.24410  0.55854  0.96360  Biso   1.000  P
  P14      1.0000 0.31910  0.64442  0.93080  Biso   1.000  P
  P15      1.0000 0.36380  0.69803  0.01700  Biso   1.000  P
  O175     1.0000 0.29240  0.62200  0.19990  Biso   1.000  O
  O176     1.0000 0.30320  0.55680  0.16930  Biso   1.000  O
  O177     1.0000 0.20870  0.60180  0.16760  Biso   1.000  O
  O178     1.0000 0.21370  0.52970  0.16500  Biso   1.000  O
  O179     1.0000 0.14560  0.52780  0.11140  Biso   1.000  O
  O180     1.0000 0.24490  0.48490  0.11230  Biso   1.000  O
  O181     1.0000 0.32940  0.52060  0.11390  Biso   1.000  O
  O182     1.0000 0.23940  0.55830  0.10950  Biso   1.000  O
  O183     1.0000 0.14940  0.59720  0.11020  Biso   1.000  O
  O184     1.0000 0.20670  0.66250  0.13600  Biso   1.000  O
  O185     1.0000 0.29680  0.62560  0.13530  Biso   1.000  O
  O186     1.0000 0.38680  0.58710  0.13930  Biso   1.000  O
  O187     1.0000 0.37890  0.64420  0.17430  Biso   1.000  O
  O188     1.0000 0.28210  0.68850  0.17190  Biso   1.000  O
  O189     1.0000 0.28910  0.75920  0.16490  Biso   1.000  O
  O190     1.0000 0.37230  0.71580  0.16350  Biso   1.000  O
  O191     1.0000 0.43440  0.64330  0.11730  Biso   1.000  O
  O192     1.0000 0.34240  0.67880  0.11510  Biso   1.000  O
  O193     1.0000 0.25520  0.71640  0.11410  Biso   1.000  O
  O194     1.0000 0.27000  0.65510  0.08060  Biso   1.000  O
  O195     1.0000 0.35050  0.62270  0.08050  Biso   1.000  O
  O196     1.0000 0.39090  0.56050  0.07200  Biso   1.000  O
  O197     1.0000 0.17310  0.65250  0.06770  Biso   1.000  O
  O198     1.0000 0.21530  0.59070  0.05490  Biso   1.000  O
  O199     1.0000 0.29460  0.55640  0.05680  Biso   1.000  O
  O200     1.0000 0.39960  0.48910  0.07690  Biso   1.000  O
  O201     1.0000 0.30290  0.48630  0.05830  Biso   1.000  O
  O202     1.0000 0.21340  0.52460  0.05800  Biso   1.000  O
  O203     1.0000 0.12190  0.56090  0.05570  Biso   1.000  O
  O204     1.0000 0.16670  0.47030  0.07110  Biso   1.000  O
  O205     1.0000 0.22900  0.46520  0.01410  Biso   1.000  O
  O206     1.0000 0.13210  0.50630  0.01610  Biso   1.000  O
  O207     1.0000 0.14250  0.61840  0.01510  Biso   1.000  O
  O208     1.0000 0.36300  0.52240  0.01960  Biso   1.000  O
  O209     1.0000 0.44460  0.61500  0.05280  Biso   1.000  O
  O210     1.0000 0.22210  0.70730  0.05060  Biso   1.000  O
  O211     1.0000 0.34080  0.75170  0.10660  Biso   1.000  O
  O212     1.0000 0.43680  0.71080  0.11250  Biso   1.000  O
  O213     1.0000 0.51510  0.74170  0.08410  Biso   1.000  O
  O214     1.0000 0.42440  0.77180  0.07500  Biso   1.000  O
  O215     1.0000 0.29070  0.75800  0.05080  Biso   1.000  O
  O216     1.0000 0.38160  0.71960  0.05020  Biso   1.000  O
  O217     1.0000 0.47250  0.68130  0.05050  Biso   1.000  O
  O218     1.0000 0.38710  0.66230  0.01750  Biso   1.000  O
  O219     1.0000 0.30580  0.69600  0.01660  Biso   1.000  O
  O220     1.0000 0.22190  0.70690  0.98200  Biso   1.000  O
  O221     1.0000 0.44160  0.61530  0.98400  Biso   1.000  O
  O222     1.0000 0.47990  0.57550  0.93250  Biso   1.000  O
  O223     1.0000 0.35270  0.62160  0.95320  Biso   1.000  O
  O224     1.0000 0.27500  0.65650  0.95160  Biso   1.000  O
  O225     1.0000 0.15860  0.71500  0.92780  Biso   1.000  O
  O226     1.0000 0.17640  0.65260  0.96210  Biso   1.000  O
  O227     1.0000 0.39370  0.56010  0.96660  Biso   1.000  O
  O228     1.0000 0.29590  0.55660  0.97880  Biso   1.000  O
  O229     1.0000 0.21840  0.59150  0.97690  Biso   1.000  O
  O230     1.0000 0.12600  0.56200  0.97430  Biso   1.000  O
  O231     1.0000 0.21490  0.52580  0.97560  Biso   1.000  O
  O232     1.0000 0.30430  0.48400  0.97920  Biso   1.000  O
  O233     1.0000 0.16840  0.47090  0.95850  Biso   1.000  O
  O234     1.0000 0.14970  0.52770  0.92040  Biso   1.000  O
  O235     1.0000 0.25210  0.48690  0.92120  Biso   1.000  O
  O236     1.0000 0.33550  0.52020  0.92260  Biso   1.000  O
  O237     1.0000 0.24630  0.55820  0.92240  Biso   1.000  O
  O238     1.0000 0.15340  0.59610  0.92010  Biso   1.000  O
  O239     1.0000 0.21180  0.66160  0.89590  Biso   1.000  O
  O240     1.0000 0.30320  0.62490  0.89800  Biso   1.000  O
  O241     1.0000 0.38930  0.58400  0.89680  Biso   1.000  O
  O242     1.0000 0.43630  0.64020  0.92110  Biso   1.000  O
  O243     1.0000 0.34830  0.67670  0.91970  Biso   1.000  O
  O244     1.0000 0.26000  0.71730  0.91690  Biso   1.000  O
  O245     1.0000 0.29070  0.75810  0.98370  Biso   1.000  O
  O246     1.0000 0.38060  0.71840  0.98570  Biso   1.000  O
  O247     1.0000 0.47440  0.68150  0.98340  Biso   1.000  O
  O248     1.0000 0.46550  0.74120  0.01710  Biso   1.000  O
  O249     1.0000 0.36600  0.78320  0.01440  Biso   1.000  O
  O250     1.0000 0.42490  0.77040  0.95750  Biso   1.000  O
  O251     1.0000 0.44280  0.71020  0.92630  Biso   1.000  O
  O252     1.0000 0.34360  0.74940  0.92200  Biso   1.000  O
  O253     1.0000 0.38220  0.71250  0.86920  Biso   1.000  O
  O254     1.0000 0.38920  0.64220  0.86170  Biso   1.000  O
  O255     1.0000 0.28630  0.68430  0.85850  Biso   1.000  O
  O256     1.0000 0.30050  0.62130  0.83200  Biso   1.000  O
  O257     1.0000 0.31180  0.55990  0.86530  Biso   1.000  O
  O258     1.0000 0.21340  0.59710  0.86490  Biso   1.000  O
  O259     1.0000 0.22250  0.52820  0.86770  Biso   1.000  O
  N49      1.0000 0.65270  0.56940  0.10700  Biso   1.000  N
  H169     1.0000 0.64290  0.55050  0.11270  Biso   1.000  H
  N50      1.0000 0.69010  0.58210  0.12580  Biso   1.000  N
  N51      1.0000 0.65870  0.70660  0.05290  Biso   1.000  N
  H170     1.0000 0.66950  0.72180  0.03850  Biso   1.000  H
  N52      1.0000 0.61790  0.71290  0.07340  Biso   1.000  N
  N53      1.0000 0.55590  0.81180  0.09110  Biso   1.000  N
  N54      1.0000 0.51210  0.81940  0.07220  Biso   1.000  N
  H171     1.0000 0.50150  0.80840  0.05440  Biso   1.000  H
  C121     1.0000 0.48890  0.84850  0.08800  Biso   1.000  C
  C122     1.0000 0.51830  0.85880  0.11660  Biso   1.000  C
  C123     1.0000 0.55970  0.83610  0.11850  Biso   1.000  C
  N55      1.0000 0.31250  0.74160  0.23390  Biso   1.000  N
  H172     1.0000 0.29300  0.72970  0.22100  Biso   1.000  H
  N56      1.0000 0.32170  0.77670  0.23030  Biso   1.000  N
  N57      1.0000 0.06500  0.55580  0.52180  Biso   1.000  N
  N58      1.0000 0.10940  0.57030  0.52680  Biso   1.000  N
  H173     1.0000 0.13080  0.56270  0.54140  Biso   1.000  H
  N59      1.0000 0.06000  0.64950  0.40410  Biso   1.000  N
  N60      1.0000 0.02720  0.66290  0.42650  Biso   1.000  N
  H174     1.0000 0.00900  0.68030  0.42080  Biso   1.000  H
  N61      1.0000 0.06590  0.73740  0.30810  Biso   1.000  N
  H175     1.0000 0.03760  0.74160  0.31750  Biso   1.000  H
  N62      1.0000 0.09510  0.70680  0.31510  Biso   1.000  N
  N63      1.0000 0.21540  0.77860  0.21560  Biso   1.000  N
  N64      1.0000 0.18900  0.75740  0.19210  Biso   1.000  N
  H176     1.0000 0.19460  0.75580  0.17030  Biso   1.000  H
  N65      1.0000 0.25070  0.82270  0.11960  Biso   1.000  N
  H177     1.0000 0.27910  0.81410  0.11430  Biso   1.000  H
  N66      1.0000 0.23330  0.82370  0.15210  Biso   1.000  N
  C124     1.0000 0.59340  0.58730  0.06750  Biso   1.000  C
  H178     1.0000 0.58700  0.56280  0.06610  Biso   1.000  H
  H179     1.0000 0.60110  0.59610  0.04490  Biso   1.000  H
  H180     1.0000 0.56460  0.59900  0.07630  Biso   1.000  H
  C125     1.0000 0.63080  0.59290  0.08820  Biso   1.000  C
  C126     1.0000 0.65840  0.62650  0.09590  Biso   1.000  C
  C127     1.0000 0.69430  0.61340  0.12040  Biso   1.000  C
  C128     1.0000 0.73200  0.64170  0.13530  Biso   1.000  C
  H181     1.0000 0.75900  0.64480  0.11950  Biso   1.000  H
  H182     1.0000 0.74460  0.63400  0.15720  Biso   1.000  H
  H183     1.0000 0.71510  0.66350  0.13830  Biso   1.000  H
  C129     1.0000 0.72530  0.66730  0.03620  Biso   1.000  C
  H184     1.0000 0.74230  0.68790  0.02870  Biso   1.000  H
  H185     1.0000 0.71610  0.65360  0.01650  Biso   1.000  H
  H186     1.0000 0.74680  0.65390  0.05090  Biso   1.000  H
  C130     1.0000 0.67890  0.67760  0.05630  Biso   1.000  C
  C131     1.0000 0.64900  0.65980  0.07960  Biso   1.000  C
  C132     1.0000 0.61220  0.68140  0.08950  Biso   1.000  C
  C133     1.0000 0.57120  0.67310  0.11490  Biso   1.000  C
  H187     1.0000 0.56360  0.69350  0.12820  Biso   1.000  H
  H188     1.0000 0.58180  0.65480  0.13010  Biso   1.000  H
  H189     1.0000 0.54230  0.66570  0.10250  Biso   1.000  H
  C134     1.0000 0.44360  0.86180  0.07250  Biso   1.000  C
  H190     1.0000 0.45170  0.87970  0.05610  Biso   1.000  H
  H191     1.0000 0.42270  0.87120  0.09020  Biso   1.000  H
  H192     1.0000 0.42670  0.84320  0.06090  Biso   1.000  H
  C135     1.0000 0.60100  0.84050  0.14100  Biso   1.000  C
  H193     1.0000 0.59300  0.83150  0.16340  Biso   1.000  H
  H194     1.0000 0.60880  0.86480  0.14280  Biso   1.000  H
  H195     1.0000 0.62900  0.82820  0.13190  Biso   1.000  H
  C136     1.0000 0.52720  0.93820  0.09080  Biso   1.000  C
  H196     1.0000 0.55870  0.92890  0.08400  Biso   1.000  H
  H197     1.0000 0.52900  0.96320  0.09150  Biso   1.000  H
  H198     1.0000 0.50240  0.93130  0.07440  Biso   1.000  H
  C137     1.0000 0.49750  0.88700  0.16960  Biso   1.000  C
  C138     1.0000 0.51140  0.88920  0.13430  Biso   1.000  C
  C139     1.0000 0.51390  0.92500  0.12520  Biso   1.000  C
  N67      1.0000 0.50160  0.94480  0.15490  Biso   1.000  N
  N68      1.0000 0.49150  0.92140  0.18230  Biso   1.000  N
  H199     1.0000 0.48310  0.92700  0.20300  Biso   1.000  H
  C140     1.0000 0.49000  0.85560  0.19730  Biso   1.000  C
  H200     1.0000 0.46600  0.83930  0.18850  Biso   1.000  H
  H201     1.0000 0.47810  0.86500  0.21870  Biso   1.000  H
  H202     1.0000 0.52080  0.84390  0.20100  Biso   1.000  H
  C141     1.0000 0.47800  0.76050  0.28810  Biso   1.000  C
  H203     1.0000 0.48180  0.73790  0.27800  Biso   1.000  H
  H204     1.0000 0.50780  0.76750  0.29920  Biso   1.000  H
  H205     1.0000 0.46940  0.77700  0.27040  Biso   1.000  H
  C142     1.0000 0.38690  0.75430  0.30980  Biso   1.000  C
  C143     1.0000 0.36670  0.75170  0.34360  Biso   1.000  C
  N69      1.0000 0.40610  0.75510  0.36760  Biso   1.000  N
  N70      1.0000 0.45060  0.75990  0.34870  Biso   1.000  N
  H206     1.0000 0.47970  0.76260  0.35730  Biso   1.000  H
  C144     1.0000 0.43870  0.75940  0.31300  Biso   1.000  C
  C145     1.0000 0.31870  0.74930  0.34900  Biso   1.000  C
  H207     1.0000 0.30250  0.76940  0.33960  Biso   1.000  H
  H208     1.0000 0.31240  0.74800  0.37330  Biso   1.000  H
  H209     1.0000 0.30610  0.72880  0.33790  Biso   1.000  H
  C146     1.0000 0.32730  0.69110  0.27130  Biso   1.000  C
  H210     1.0000 0.29260  0.68830  0.27580  Biso   1.000  H
  H211     1.0000 0.34570  0.68600  0.29190  Biso   1.000  H
  H212     1.0000 0.33710  0.67540  0.25320  Biso   1.000  H
  C147     1.0000 0.33780  0.72890  0.25990  Biso   1.000  C
  C148     1.0000 0.36100  0.75160  0.27650  Biso   1.000  C
  C149     1.0000 0.35290  0.78520  0.25780  Biso   1.000  C
  C150     1.0000 0.37220  0.82210  0.26130  Biso   1.000  C
  H213     1.0000 0.35480  0.83700  0.24560  Biso   1.000  H
  H214     1.0000 0.40690  0.82250  0.25610  Biso   1.000  H
  H215     1.0000 0.36700  0.83010  0.28450  Biso   1.000  H
  C151     1.0000 0.98970  0.56400  0.48770  Biso   1.000  C
  H216     1.0000 0.98080  0.54150  0.49670  Biso   1.000  H
  H217     1.0000 0.98570  0.56400  0.46310  Biso   1.000  H
  H218     1.0000 0.96870  0.58140  0.49770  Biso   1.000  H
  C152     1.0000 0.04160  0.57150  0.49640  Biso   1.000  C
  C153     1.0000 0.07130  0.59920  0.48480  Biso   1.000  C
  C154     1.0000 0.11650  0.59740  0.50660  Biso   1.000  C
  C155     1.0000 0.16220  0.61820  0.50480  Biso   1.000  C
  H219     1.0000 0.15680  0.64030  0.51570  Biso   1.000  H
  H220     1.0000 0.17110  0.62170  0.48110  Biso   1.000  H
  H221     1.0000 0.18840  0.60610  0.51650  Biso   1.000  H
  C156     1.0000 0.12380  0.60510  0.41000  Biso   1.000  C
  H222     1.0000 0.11390  0.59420  0.38880  Biso   1.000  H
  H223     1.0000 0.13450  0.58770  0.42600  Biso   1.000  H
  H224     1.0000 0.15050  0.62100  0.40550  Biso   1.000  H
  C157     1.0000 0.08410  0.62330  0.42380  Biso   1.000  C
  C158     1.0000 0.06260  0.62490  0.46030  Biso   1.000  C
  C159     1.0000 0.02370  0.64920  0.45640  Biso   1.000  C
  C160     1.0000 0.99260  0.66060  0.48530  Biso   1.000  C
  H225     1.0000 0.97860  0.68300  0.48010  Biso   1.000  H
  H226     1.0000 0.01240  0.66220  0.50580  Biso   1.000  H
  H227     1.0000 0.96650  0.64410  0.48890  Biso   1.000  H
  C161     1.0000 0.17490  0.68830  0.29180  Biso   1.000  C
  H228     1.0000 0.18450  0.68260  0.31500  Biso   1.000  H
  H229     1.0000 0.20100  0.70110  0.28080  Biso   1.000  H
  H230     1.0000 0.16880  0.66730  0.27910  Biso   1.000  H
  C162     1.0000 0.13070  0.70900  0.29250  Biso   1.000  C
  C163     1.0000 0.12330  0.73880  0.27110  Biso   1.000  C
  C164     1.0000 0.08700  0.75780  0.28600  Biso   1.000  C
  C165     1.0000 0.06060  0.79190  0.27490  Biso   1.000  C
  H231     1.0000 0.02990  0.78630  0.26370  Biso   1.000  H
  H232     1.0000 0.08140  0.80450  0.25920  Biso   1.000  H
  H233     1.0000 0.05420  0.80590  0.29490  Biso   1.000  H
  C166     1.0000 0.21990  0.79220  0.27580  Biso   1.000  C
  H234     1.0000 0.25250  0.80040  0.27000  Biso   1.000  H
  H235     1.0000 0.22200  0.77640  0.29490  Biso   1.000  H
  H236     1.0000 0.19940  0.81160  0.28210  Biso   1.000  H
  C167     1.0000 0.19780  0.77390  0.24520  Biso   1.000  C
  C168     1.0000 0.15900  0.74790  0.24510  Biso   1.000  C
  C169     1.0000 0.15210  0.73940  0.21030  Biso   1.000  C
  C170     1.0000 0.12350  0.71600  0.19540  Biso   1.000  C
  H237     1.0000 0.09090  0.71710  0.20520  Biso   1.000  H
  H238     1.0000 0.13710  0.69320  0.19900  Biso   1.000  H
  H239     1.0000 0.12170  0.72070  0.17100  Biso   1.000  H
  C171     1.0000 0.15340  0.84200  0.17770  Biso   1.000  C
  H240     1.0000 0.12960  0.82350  0.17710  Biso   1.000  H
  H241     1.0000 0.13660  0.86400  0.17730  Biso   1.000  H
  H242     1.0000 0.17280  0.84020  0.19840  Biso   1.000  H
  C172     1.0000 0.18630  0.83930  0.14720  Biso   1.000  C
  C173     1.0000 0.17770  0.84710  0.11380  Biso   1.000  C
  C174     1.0000 0.21930  0.83650  0.09560  Biso   1.000  C
  C175     1.0000 0.23110  0.84130  0.05620  Biso   1.000  C
  H243     1.0000 0.26430  0.84980  0.05360  Biso   1.000  H
  H244     1.0000 0.20830  0.85770  0.04640  Biso   1.000  H
  H245     1.0000 0.22790  0.81930  0.04460  Biso   1.000  H
  C176     1.0000 0.09890  0.81630  0.05320  Biso   1.000  C
  H246     1.0000 0.08180  0.80010  0.06770  Biso   1.000  H
  H247     1.0000 0.13120  0.80730  0.04770  Biso   1.000  H
  H248     1.0000 0.08050  0.81970  0.03230  Biso   1.000  H
  C177     1.0000 0.12550  0.89950  0.10440  Biso   1.000  C
  N71      1.0000 0.08600  0.90900  0.08210  Biso   1.000  N
  N72      1.0000 0.07290  0.87940  0.06230  Biso   1.000  N
  H249     1.0000 0.05000  0.87840  0.04690  Biso   1.000  H
  C178     1.0000 0.10430  0.85150  0.07230  Biso   1.000  C
  C179     1.0000 0.13680  0.86400  0.09830  Biso   1.000  C
  C180     1.0000 0.14700  0.92500  0.12770  Biso   1.000  C
  H250     1.0000 0.14520  0.94770  0.11750  Biso   1.000  H
  H251     1.0000 0.18100  0.91910  0.13200  Biso   1.000  H
  H252     1.0000 0.12900  0.92490  0.14910  Biso   1.000  H
  O260     1.0000 0.31860  0.61050  0.01860  Biso   1.000  O
  K6       1.0000 0.35030  0.59880  0.01800  Biso   1.000  K
  O261     1.0000 0.27200  0.62960  0.01360  Biso   1.000  O
  W91      1.0000 0.32488  0.93190  0.64476  Biso   1.000  W
  W92      1.0000 0.22723  0.98472  0.64283  Biso   1.000  W
  W93      1.0000 0.15749  0.90455  0.67422  Biso   1.000  W
  W94      1.0000 0.25496  0.85139  0.67532  Biso   1.000  W
  W95      1.0000 0.18785  0.77410  0.63890  Biso   1.000  W
  W96      1.0000 0.08793  0.82311  0.64989  Biso   1.000  W
  W97      1.0000 0.07684  0.90059  0.59653  Biso   1.000  W
  W98      1.0000 0.29523  0.81267  0.59400  Biso   1.000  W
  W99      1.0000 0.36219  0.89106  0.56173  Biso   1.000  W
  W100     1.0000 0.14578  0.98018  0.56792  Biso   1.000  W
  W101     1.0000 0.26216  0.03117  0.56084  Biso   1.000  W
  W102     1.0000 0.36711  0.98513  0.56840  Biso   1.000  W
  W103     1.0000 0.36678  0.98626  0.47009  Biso   1.000  W
  W104     1.0000 0.26210  0.03093  0.46274  Biso   1.000  W
  W105     1.0000 0.14611  0.98320  0.47122  Biso   1.000  W
  W106     1.0000 0.35988  0.88990  0.46501  Biso   1.000  W
  W107     1.0000 0.28934  0.81092  0.43726  Biso   1.000  W
  W108     1.0000 0.07795  0.90435  0.44062  Biso   1.000  W
  W109     1.0000 0.03394  0.85359  0.51680  Biso   1.000  W
  W110     1.0000 0.25047  0.76298  0.51669  Biso   1.000  W
  W111     1.0000 0.14392  0.72478  0.56010  Biso   1.000  W
  W112     1.0000 0.04336  0.77391  0.57022  Biso   1.000  W
  W113     1.0000 0.03762  0.76962  0.47338  Biso   1.000  W
  W114     1.0000 0.14644  0.72907  0.46391  Biso   1.000  W
  W115     1.0000 0.18549  0.78060  0.38521  Biso   1.000  W
  W116     1.0000 0.07601  0.82032  0.39367  Biso   1.000  W
  W117     1.0000 0.14424  0.89762  0.35888  Biso   1.000  W
  W118     1.0000 0.25533  0.86042  0.35874  Biso   1.000  W
  W119     1.0000 0.32493  0.94017  0.38961  Biso   1.000  W
  W120     1.0000 0.21419  0.97768  0.38831  Biso   1.000  W
  Co13     1.0000 0.95828  0.95372  0.42383  Biso   1.000  Co
  Co14     1.0000 0.91130  0.73744  0.58071  Biso   1.000  Co
  Co15     1.0000 0.22281  0.69569  0.69312  Biso   1.000  Co
  Co16     1.0000 0.42176  0.82356  0.85903  Biso   1.000  Co
  K7       1.0000 0.25830  0.85607  0.51519  Biso   1.000  K
  P16      1.0000 0.18490  0.85507  0.60280  Biso   1.000  P
  P17      1.0000 0.25920  0.94122  0.56890  Biso   1.000  P
  P18      1.0000 0.25590  0.94146  0.46360  Biso   1.000  P
  P19      1.0000 0.18090  0.85558  0.43080  Biso   1.000  P
  P20      1.0000 0.13620  0.80197  0.51700  Biso   1.000  P
  O262     1.0000 0.20760  0.87800  0.69990  Biso   1.000  O
  O263     1.0000 0.19680  0.94320  0.66930  Biso   1.000  O
  O264     1.0000 0.29130  0.89820  0.66760  Biso   1.000  O
  O265     1.0000 0.28630  0.97030  0.66500  Biso   1.000  O
  O266     1.0000 0.35440  0.97220  0.61140  Biso   1.000  O
  O267     1.0000 0.25510  0.01510  0.61230  Biso   1.000  O
  O268     1.0000 0.17060  0.97940  0.61390  Biso   1.000  O
  O269     1.0000 0.26060  0.94170  0.60950  Biso   1.000  O
  O270     1.0000 0.35060  0.90280  0.61020  Biso   1.000  O
  O271     1.0000 0.29330  0.83750  0.63600  Biso   1.000  O
  O272     1.0000 0.20320  0.87440  0.63530  Biso   1.000  O
  O273     1.0000 0.11320  0.91290  0.63930  Biso   1.000  O
  O274     1.0000 0.12110  0.85580  0.67430  Biso   1.000  O
  O275     1.0000 0.21790  0.81150  0.67190  Biso   1.000  O
  O276     1.0000 0.21090  0.74080  0.66490  Biso   1.000  O
  O277     1.0000 0.12770  0.78420  0.66350  Biso   1.000  O
  O278     1.0000 0.06560  0.85670  0.61730  Biso   1.000  O
  O279     1.0000 0.15760  0.82120  0.61510  Biso   1.000  O
  O280     1.0000 0.24480  0.78360  0.61410  Biso   1.000  O
  O281     1.0000 0.23000  0.84490  0.58060  Biso   1.000  O
  O282     1.0000 0.14950  0.87730  0.58050  Biso   1.000  O
  O283     1.0000 0.10910  0.93950  0.57200  Biso   1.000  O
  O284     1.0000 0.32690  0.84750  0.56770  Biso   1.000  O
  O285     1.0000 0.28470  0.90930  0.55490  Biso   1.000  O
  O286     1.0000 0.20540  0.94360  0.55680  Biso   1.000  O
  O287     1.0000 0.10040  0.01090  0.57690  Biso   1.000  O
  O288     1.0000 0.19710  0.01370  0.55830  Biso   1.000  O
  O289     1.0000 0.28660  0.97540  0.55800  Biso   1.000  O
  O290     1.0000 0.37810  0.93910  0.55570  Biso   1.000  O
  O291     1.0000 0.33330  0.02970  0.57110  Biso   1.000  O
  O292     1.0000 0.27100  0.03480  0.51410  Biso   1.000  O
  O293     1.0000 0.36790  0.99370  0.51610  Biso   1.000  O
  O294     1.0000 0.35750  0.88160  0.51510  Biso   1.000  O
  O295     1.0000 0.13700  0.97760  0.51960  Biso   1.000  O
  O296     1.0000 0.05540  0.88500  0.55280  Biso   1.000  O
  O297     1.0000 0.27790  0.79270  0.55060  Biso   1.000  O
  O298     1.0000 0.15920  0.74830  0.60660  Biso   1.000  O
  O299     1.0000 0.06320  0.78920  0.61250  Biso   1.000  O
  O300     1.0000 0.98490  0.75830  0.58410  Biso   1.000  O
  O301     1.0000 0.07560  0.72820  0.57500  Biso   1.000  O
  O302     1.0000 0.20930  0.74200  0.55080  Biso   1.000  O
  O303     1.0000 0.11840  0.78040  0.55020  Biso   1.000  O
  O304     1.0000 0.02750  0.81870  0.55050  Biso   1.000  O
  O305     1.0000 0.11290  0.83770  0.51750  Biso   1.000  O
  O306     1.0000 0.19420  0.80400  0.51660  Biso   1.000  O
  O307     1.0000 0.27810  0.79310  0.48200  Biso   1.000  O
  O308     1.0000 0.05840  0.88470  0.48400  Biso   1.000  O
  O309     1.0000 0.02010  0.92450  0.43250  Biso   1.000  O
  O310     1.0000 0.14730  0.87840  0.45320  Biso   1.000  O
  O311     1.0000 0.22500  0.84350  0.45160  Biso   1.000  O
  O312     1.0000 0.34140  0.78500  0.42780  Biso   1.000  O
  O313     1.0000 0.32360  0.84740  0.46210  Biso   1.000  O
  O314     1.0000 0.10630  0.93990  0.46660  Biso   1.000  O
  O315     1.0000 0.20410  0.94340  0.47880  Biso   1.000  O
  O316     1.0000 0.28160  0.90850  0.47690  Biso   1.000  O
  O317     1.0000 0.37400  0.93800  0.47430  Biso   1.000  O
  O318     1.0000 0.28510  0.97420  0.47560  Biso   1.000  O
  O319     1.0000 0.19570  0.01600  0.47920  Biso   1.000  O
  O320     1.0000 0.33160  0.02910  0.45850  Biso   1.000  O
  O321     1.0000 0.35030  0.97230  0.42040  Biso   1.000  O
  O322     1.0000 0.24790  0.01310  0.42120  Biso   1.000  O
  O323     1.0000 0.16450  0.97980  0.42260  Biso   1.000  O
  O324     1.0000 0.25370  0.94180  0.42240  Biso   1.000  O
  O325     1.0000 0.34660  0.90390  0.42010  Biso   1.000  O
  O326     1.0000 0.28820  0.83840  0.39590  Biso   1.000  O
  O327     1.0000 0.19680  0.87510  0.39800  Biso   1.000  O
  O328     1.0000 0.11070  0.91600  0.39680  Biso   1.000  O
  O329     1.0000 0.06370  0.85980  0.42110  Biso   1.000  O
  O330     1.0000 0.15170  0.82330  0.41970  Biso   1.000  O
  O331     1.0000 0.24000  0.78270  0.41690  Biso   1.000  O
  O332     1.0000 0.20930  0.74190  0.48370  Biso   1.000  O
  O333     1.0000 0.11940  0.78160  0.48570  Biso   1.000  O
  O334     1.0000 0.02560  0.81850  0.48340  Biso   1.000  O
  O335     1.0000 0.03450  0.75880  0.51710  Biso   1.000  O
  O336     1.0000 0.13400  0.71680  0.51440  Biso   1.000  O
  O337     1.0000 0.07510  0.72960  0.45750  Biso   1.000  O
  O338     1.0000 0.05720  0.78980  0.42630  Biso   1.000  O
  O339     1.0000 0.15640  0.75060  0.42200  Biso   1.000  O
  O340     1.0000 0.11780  0.78750  0.36920  Biso   1.000  O
  O341     1.0000 0.11080  0.85780  0.36170  Biso   1.000  O
  O342     1.0000 0.21370  0.81570  0.35850  Biso   1.000  O
  O343     1.0000 0.19950  0.87870  0.33200  Biso   1.000  O
  O344     1.0000 0.18820  0.94010  0.36530  Biso   1.000  O
  O345     1.0000 0.28660  0.90290  0.36490  Biso   1.000  O
  O346     1.0000 0.27750  0.97180  0.36770  Biso   1.000  O
  N73      1.0000 0.84730  0.93060  0.60700  Biso   1.000  N
  H253     1.0000 0.85710  0.94950  0.61270  Biso   1.000  H
  N74      1.0000 0.80990  0.91790  0.62580  Biso   1.000  N
  N75      1.0000 0.84130  0.79340  0.55290  Biso   1.000  N
  H254     1.0000 0.83050  0.77820  0.53850  Biso   1.000  H
  N76      1.0000 0.88210  0.78710  0.57340  Biso   1.000  N
  N77      1.0000 0.94410  0.68820  0.59110  Biso   1.000  N
  N78      1.0000 0.98790  0.68060  0.57220  Biso   1.000  N
  H255     1.0000 0.99850  0.69160  0.55440  Biso   1.000  H
  C181     1.0000 0.01110  0.65150  0.58800  Biso   1.000  C
  C182     1.0000 0.98170  0.64120  0.61660  Biso   1.000  C
  C183     1.0000 0.94030  0.66390  0.61850  Biso   1.000  C
  N79      1.0000 0.18750  0.75840  0.73390  Biso   1.000  N
  H256     1.0000 0.20700  0.77030  0.72100  Biso   1.000  H
  N80      1.0000 0.17830  0.72330  0.73030  Biso   1.000  N
  N81      1.0000 0.43500  0.94420  0.02180  Biso   1.000  N
  N82      1.0000 0.39060  0.92970  0.02680  Biso   1.000  N
  H257     1.0000 0.36920  0.93730  0.04140  Biso   1.000  H
  N83      1.0000 0.44000  0.85050  0.90410  Biso   1.000  N
  N84      1.0000 0.47280  0.83710  0.92650  Biso   1.000  N
  H258     1.0000 0.49100  0.81970  0.92080  Biso   1.000  H
  N85      1.0000 0.43410  0.76260  0.80810  Biso   1.000  N
  H259     1.0000 0.46240  0.75840  0.81750  Biso   1.000  H
  N86      1.0000 0.40490  0.79320  0.81510  Biso   1.000  N
  N87      1.0000 0.28460  0.72140  0.71560  Biso   1.000  N
  N88      1.0000 0.31100  0.74260  0.69210  Biso   1.000  N
  H260     1.0000 0.30540  0.74420  0.67030  Biso   1.000  H
  N89      1.0000 0.24930  0.67730  0.61960  Biso   1.000  N
  H261     1.0000 0.22090  0.68590  0.61430  Biso   1.000  H
  N90      1.0000 0.26670  0.67630  0.65210  Biso   1.000  N
  C184     1.0000 0.90660  0.91270  0.56750  Biso   1.000  C
  H262     1.0000 0.91300  0.93720  0.56610  Biso   1.000  H
  H263     1.0000 0.89890  0.90390  0.54490  Biso   1.000  H
  H264     1.0000 0.93540  0.90100  0.57630  Biso   1.000  H
  C185     1.0000 0.86920  0.90710  0.58820  Biso   1.000  C
  C186     1.0000 0.84160  0.87350  0.59590  Biso   1.000  C
  C187     1.0000 0.80570  0.88660  0.62040  Biso   1.000  C
  C188     1.0000 0.76800  0.85830  0.63530  Biso   1.000  C
  H265     1.0000 0.74100  0.85520  0.61950  Biso   1.000  H
  H266     1.0000 0.75540  0.86600  0.65720  Biso   1.000  H
  H267     1.0000 0.78490  0.83650  0.63830  Biso   1.000  H
  C189     1.0000 0.77470  0.83270  0.53620  Biso   1.000  C
  H268     1.0000 0.75770  0.81210  0.52870  Biso   1.000  H
  H269     1.0000 0.78390  0.84640  0.51650  Biso   1.000  H
  H270     1.0000 0.75320  0.84610  0.55090  Biso   1.000  H
  C190     1.0000 0.82110  0.82240  0.55630  Biso   1.000  C
  C191     1.0000 0.85100  0.84020  0.57960  Biso   1.000  C
  C192     1.0000 0.88780  0.81860  0.58950  Biso   1.000  C
  C193     1.0000 0.92880  0.82690  0.61490  Biso   1.000  C
  H271     1.0000 0.93640  0.80650  0.62820  Biso   1.000  H
  H272     1.0000 0.91820  0.84520  0.63010  Biso   1.000  H
  H273     1.0000 0.95770  0.83430  0.60250  Biso   1.000  H
  C194     1.0000 0.05640  0.63820  0.57250  Biso   1.000  C
  H274     1.0000 0.04830  0.62030  0.55610  Biso   1.000  H
  H275     1.0000 0.07730  0.62880  0.59020  Biso   1.000  H
  H276     1.0000 0.07330  0.65680  0.56090  Biso   1.000  H
  C195     1.0000 0.89900  0.65950  0.64100  Biso   1.000  C
  H277     1.0000 0.90700  0.66850  0.66340  Biso   1.000  H
  H278     1.0000 0.89120  0.63520  0.64280  Biso   1.000  H
  H279     1.0000 0.87100  0.67180  0.63190  Biso   1.000  H
  C196     1.0000 0.97280  0.56180  0.59080  Biso   1.000  C
  H280     1.0000 0.94130  0.57110  0.58400  Biso   1.000  H
  H281     1.0000 0.97100  0.53680  0.59150  Biso   1.000  H
  H282     1.0000 0.99760  0.56870  0.57440  Biso   1.000  H
  C197     1.0000 0.00250  0.61300  0.66960  Biso   1.000  C
  C198     1.0000 0.98860  0.61080  0.63430  Biso   1.000  C
  C199     1.0000 0.98610  0.57500  0.62520  Biso   1.000  C
  N91      1.0000 0.99840  0.55520  0.65490  Biso   1.000  N
  N92      1.0000 0.00850  0.57860  0.68230  Biso   1.000  N
  H283     1.0000 0.01690  0.57300  0.70300  Biso   1.000  H
  C200     1.0000 0.01000  0.64440  0.69730  Biso   1.000  C
  H284     1.0000 0.03400  0.66070  0.68850  Biso   1.000  H
  H285     1.0000 0.02190  0.63500  0.71870  Biso   1.000  H
  H286     1.0000 0.97920  0.65610  0.70100  Biso   1.000  H
  C201     1.0000 0.02200  0.73950  0.78810  Biso   1.000  C
  H287     1.0000 0.01820  0.76210  0.77800  Biso   1.000  H
  H288     1.0000 0.99220  0.73250  0.79920  Biso   1.000  H
  H289     1.0000 0.03060  0.72300  0.77040  Biso   1.000  H
  C202     1.0000 0.11310  0.74570  0.80980  Biso   1.000  C
  C203     1.0000 0.13330  0.74830  0.84360  Biso   1.000  C
  N93      1.0000 0.09390  0.74490  0.86760  Biso   1.000  N
  N94      1.0000 0.04940  0.74010  0.84870  Biso   1.000  N
  H290     1.0000 0.02030  0.73740  0.85730  Biso   1.000  H
  C204     1.0000 0.06130  0.74060  0.81300  Biso   1.000  C
  C205     1.0000 0.18130  0.75070  0.84900  Biso   1.000  C
  H291     1.0000 0.19750  0.73060  0.83960  Biso   1.000  H
  H292     1.0000 0.18760  0.75200  0.87330  Biso   1.000  H
  H293     1.0000 0.19390  0.77120  0.83790  Biso   1.000  H
  C206     1.0000 0.17270  0.80890  0.77130  Biso   1.000  C
  H294     1.0000 0.20740  0.81170  0.77580  Biso   1.000  H
  H295     1.0000 0.15430  0.81400  0.79190  Biso   1.000  H
  H296     1.0000 0.16290  0.82460  0.75320  Biso   1.000  H
  C207     1.0000 0.16220  0.77110  0.75990  Biso   1.000  C
  C208     1.0000 0.13900  0.74840  0.77650  Biso   1.000  C
  C209     1.0000 0.14710  0.71480  0.75780  Biso   1.000  C
  C210     1.0000 0.12780  0.67790  0.76130  Biso   1.000  C
  H297     1.0000 0.14520  0.66300  0.74560  Biso   1.000  H
  H298     1.0000 0.09310  0.67750  0.75610  Biso   1.000  H
  H299     1.0000 0.13300  0.66990  0.78450  Biso   1.000  H
  C211     1.0000 0.51030  0.93600  0.98770  Biso   1.000  C
  H300     1.0000 0.51920  0.95850  0.99670  Biso   1.000  H
  H301     1.0000 0.51430  0.93600  0.96310  Biso   1.000  H
  H302     1.0000 0.53130  0.91860  0.99770  Biso   1.000  H
  C212     1.0000 0.45840  0.92850  0.99640  Biso   1.000  C
  C213     1.0000 0.42870  0.90080  0.98480  Biso   1.000  C
  C214     1.0000 0.38350  0.90260  0.00660  Biso   1.000  C
  C215     1.0000 0.33780  0.88180  0.00480  Biso   1.000  C
  H303     1.0000 0.34320  0.85970  0.01570  Biso   1.000  H
  H304     1.0000 0.32890  0.87830  0.98110  Biso   1.000  H
  H305     1.0000 0.31160  0.89390  0.01650  Biso   1.000  H
  C216     1.0000 0.37620  0.89490  0.91000  Biso   1.000  C
  H306     1.0000 0.38610  0.90580  0.88880  Biso   1.000  H
  H307     1.0000 0.36550  0.91230  0.92600  Biso   1.000  H
  H308     1.0000 0.34950  0.87900  0.90550  Biso   1.000  H
  C217     1.0000 0.41590  0.87670  0.92380  Biso   1.000  C
  C218     1.0000 0.43740  0.87510  0.96030  Biso   1.000  C
  C219     1.0000 0.47630  0.85080  0.95640  Biso   1.000  C
  C220     1.0000 0.50740  0.83940  0.98530  Biso   1.000  C
  H309     1.0000 0.52140  0.81700  0.98010  Biso   1.000  H
  H310     1.0000 0.48760  0.83780  0.00580  Biso   1.000  H
  H311     1.0000 0.53350  0.85590  0.98890  Biso   1.000  H
  C221     1.0000 0.32510  0.81170  0.79180  Biso   1.000  C
  H312     1.0000 0.31550  0.81740  0.81500  Biso   1.000  H
  H313     1.0000 0.29900  0.79890  0.78080  Biso   1.000  H
  H314     1.0000 0.33120  0.83270  0.77910  Biso   1.000  H
  C222     1.0000 0.36930  0.79100  0.79250  Biso   1.000  C
  C223     1.0000 0.37670  0.76120  0.77110  Biso   1.000  C
  C224     1.0000 0.41300  0.74220  0.78600  Biso   1.000  C
  C225     1.0000 0.43940  0.70810  0.77490  Biso   1.000  C
  H315     1.0000 0.47010  0.71370  0.76370  Biso   1.000  H
  H316     1.0000 0.41860  0.69550  0.75920  Biso   1.000  H
  H317     1.0000 0.44580  0.69410  0.79490  Biso   1.000  H
  C226     1.0000 0.28010  0.70780  0.77580  Biso   1.000  C
  H318     1.0000 0.24750  0.69960  0.77000  Biso   1.000  H
  H319     1.0000 0.27800  0.72360  0.79490  Biso   1.000  H
  H320     1.0000 0.30060  0.68840  0.78210  Biso   1.000  H
  C227     1.0000 0.30220  0.72610  0.74520  Biso   1.000  C
  C228     1.0000 0.34100  0.75210  0.74510  Biso   1.000  C
  C229     1.0000 0.34790  0.76060  0.71030  Biso   1.000  C
  C230     1.0000 0.37650  0.78400  0.69540  Biso   1.000  C
  H321     1.0000 0.40910  0.78290  0.70520  Biso   1.000  H
  H322     1.0000 0.36290  0.80680  0.69900  Biso   1.000  H
  H323     1.0000 0.37830  0.77930  0.67100  Biso   1.000  H
  C231     1.0000 0.34660  0.65800  0.67770  Biso   1.000  C
  H324     1.0000 0.37040  0.67650  0.67710  Biso   1.000  H
  H325     1.0000 0.36340  0.63600  0.67730  Biso   1.000  H
  H326     1.0000 0.32720  0.65980  0.69840  Biso   1.000  H
  C232     1.0000 0.31370  0.66070  0.64720  Biso   1.000  C
  C233     1.0000 0.32230  0.65290  0.61380  Biso   1.000  C
  C234     1.0000 0.28070  0.66350  0.59560  Biso   1.000  C
  C235     1.0000 0.26890  0.65870  0.55620  Biso   1.000  C
  H327     1.0000 0.23570  0.65020  0.55360  Biso   1.000  H
  H328     1.0000 0.29170  0.64230  0.54640  Biso   1.000  H
  H329     1.0000 0.27210  0.68070  0.54460  Biso   1.000  H
  C236     1.0000 0.40110  0.68370  0.55320  Biso   1.000  C
  H330     1.0000 0.41820  0.69990  0.56770  Biso   1.000  H
  H331     1.0000 0.36880  0.69270  0.54770  Biso   1.000  H
  H332     1.0000 0.41950  0.68030  0.53230  Biso   1.000  H
  C237     1.0000 0.37450  0.60050  0.60440  Biso   1.000  C
  N95      1.0000 0.41400  0.59100  0.58210  Biso   1.000  N
  N96      1.0000 0.42710  0.62060  0.56230  Biso   1.000  N
  H333     1.0000 0.45000  0.62160  0.54690  Biso   1.000  H
  C238     1.0000 0.39570  0.64850  0.57230  Biso   1.000  C
  C239     1.0000 0.36320  0.63600  0.59830  Biso   1.000  C
  C240     1.0000 0.35300  0.57500  0.62770  Biso   1.000  C
  H334     1.0000 0.35480  0.55230  0.61750  Biso   1.000  H
  H335     1.0000 0.31900  0.58090  0.63200  Biso   1.000  H
  H336     1.0000 0.37100  0.57510  0.64910  Biso   1.000  H
  O347     1.0000 0.18140  0.88950  0.51860  Biso   1.000  O
  K8       1.0000 0.14970  0.90120  0.51800  Biso   1.000  K
  O348     1.0000 0.22800  0.87040  0.51360  Biso   1.000  O
  W121     1.0000 0.17512  0.43190  0.64476  Biso   1.000  W
  W122     1.0000 0.27277  0.48472  0.64283  Biso   1.000  W
  W123     1.0000 0.34251  0.40455  0.67422  Biso   1.000  W
  W124     1.0000 0.24504  0.35139  0.67532  Biso   1.000  W
  W125     1.0000 0.31215  0.27410  0.63890  Biso   1.000  W
  W126     1.0000 0.41207  0.32311  0.64989  Biso   1.000  W
  W127     1.0000 0.42316  0.40059  0.59653  Biso   1.000  W
  W128     1.0000 0.20477  0.31267  0.59400  Biso   1.000  W
  W129     1.0000 0.13781  0.39106  0.56173  Biso   1.000  W
  W130     1.0000 0.35422  0.48018  0.56792  Biso   1.000  W
  W131     1.0000 0.23784  0.53117  0.56084  Biso   1.000  W
  W132     1.0000 0.13289  0.48513  0.56840  Biso   1.000  W
  W133     1.0000 0.13322  0.48626  0.47009  Biso   1.000  W
  W134     1.0000 0.23790  0.53093  0.46274  Biso   1.000  W
  W135     1.0000 0.35389  0.48320  0.47122  Biso   1.000  W
  W136     1.0000 0.14012  0.38990  0.46501  Biso   1.000  W
  W137     1.0000 0.21066  0.31092  0.43726  Biso   1.000  W
  W138     1.0000 0.42205  0.40435  0.44062  Biso   1.000  W
  W139     1.0000 0.46606  0.35359  0.51680  Biso   1.000  W
  W140     1.0000 0.24953  0.26298  0.51669  Biso   1.000  W
  W141     1.0000 0.35608  0.22478  0.56010  Biso   1.000  W
  W142     1.0000 0.45664  0.27391  0.57022  Biso   1.000  W
  W143     1.0000 0.46238  0.26962  0.47338  Biso   1.000  W
  W144     1.0000 0.35356  0.22907  0.46391  Biso   1.000  W
  W145     1.0000 0.31451  0.28060  0.38521  Biso   1.000  W
  W146     1.0000 0.42399  0.32032  0.39367  Biso   1.000  W
  W147     1.0000 0.35576  0.39762  0.35888  Biso   1.000  W
  W148     1.0000 0.24467  0.36042  0.35874  Biso   1.000  W
  W149     1.0000 0.17507  0.44017  0.38961  Biso   1.000  W
  W150     1.0000 0.28581  0.47768  0.38831  Biso   1.000  W
  Co17     1.0000 0.54172  0.45372  0.42383  Biso   1.000  Co
  Co18     1.0000 0.58870  0.23744  0.58071  Biso   1.000  Co
  Co19     1.0000 0.27719  0.19569  0.69312  Biso   1.000  Co
  Co20     1.0000 0.07824  0.32356  0.85903  Biso   1.000  Co
  K9       1.0000 0.24170  0.35607  0.51519  Biso   1.000  K
  P21      1.0000 0.31510  0.35507  0.60280  Biso   1.000  P
  P22      1.0000 0.24080  0.44122  0.56890  Biso   1.000  P
  P23      1.0000 0.24410  0.44146  0.46360  Biso   1.000  P
  P24      1.0000 0.31910  0.35558  0.43080  Biso   1.000  P
  P25      1.0000 0.36380  0.30197  0.51700  Biso   1.000  P
  O349     1.0000 0.29240  0.37800  0.69990  Biso   1.000  O
  O350     1.0000 0.30320  0.44320  0.66930  Biso   1.000  O
  O351     1.0000 0.20870  0.39820  0.66760  Biso   1.000  O
  O352     1.0000 0.21370  0.47030  0.66500  Biso   1.000  O
  O353     1.0000 0.14560  0.47220  0.61140  Biso   1.000  O
  O354     1.0000 0.24490  0.51510  0.61230  Biso   1.000  O
  O355     1.0000 0.32940  0.47940  0.61390  Biso   1.000  O
  O356     1.0000 0.23940  0.44170  0.60950  Biso   1.000  O
  O357     1.0000 0.14940  0.40280  0.61020  Biso   1.000  O
  O358     1.0000 0.20670  0.33750  0.63600  Biso   1.000  O
  O359     1.0000 0.29680  0.37440  0.63530  Biso   1.000  O
  O360     1.0000 0.38680  0.41290  0.63930  Biso   1.000  O
  O361     1.0000 0.37890  0.35580  0.67430  Biso   1.000  O
  O362     1.0000 0.28210  0.31150  0.67190  Biso   1.000  O
  O363     1.0000 0.28910  0.24080  0.66490  Biso   1.000  O
  O364     1.0000 0.37230  0.28420  0.66350  Biso   1.000  O
  O365     1.0000 0.43440  0.35670  0.61730  Biso   1.000  O
  O366     1.0000 0.34240  0.32120  0.61510  Biso   1.000  O
  O367     1.0000 0.25520  0.28360  0.61410  Biso   1.000  O
  O368     1.0000 0.27000  0.34490  0.58060  Biso   1.000  O
  O369     1.0000 0.35050  0.37730  0.58050  Biso   1.000  O
  O370     1.0000 0.39090  0.43950  0.57200  Biso   1.000  O
  O371     1.0000 0.17310  0.34750  0.56770  Biso   1.000  O
  O372     1.0000 0.21530  0.40930  0.55490  Biso   1.000  O
  O373     1.0000 0.29460  0.44360  0.55680  Biso   1.000  O
  O374     1.0000 0.39960  0.51090  0.57690  Biso   1.000  O
  O375     1.0000 0.30290  0.51370  0.55830  Biso   1.000  O
  O376     1.0000 0.21340  0.47540  0.55800  Biso   1.000  O
  O377     1.0000 0.12190  0.43910  0.55570  Biso   1.000  O
  O378     1.0000 0.16670  0.52970  0.57110  Biso   1.000  O
  O379     1.0000 0.22900  0.53480  0.51410  Biso   1.000  O
  O380     1.0000 0.13210  0.49370  0.51610  Biso   1.000  O
  O381     1.0000 0.14250  0.38160  0.51510  Biso   1.000  O
  O382     1.0000 0.36300  0.47760  0.51960  Biso   1.000  O
  O383     1.0000 0.44460  0.38500  0.55280  Biso   1.000  O
  O384     1.0000 0.22210  0.29270  0.55060  Biso   1.000  O
  O385     1.0000 0.34080  0.24830  0.60660  Biso   1.000  O
  O386     1.0000 0.43680  0.28920  0.61250  Biso   1.000  O
  O387     1.0000 0.51510  0.25830  0.58410  Biso   1.000  O
  O388     1.0000 0.42440  0.22820  0.57500  Biso   1.000  O
  O389     1.0000 0.29070  0.24200  0.55080  Biso   1.000  O
  O390     1.0000 0.38160  0.28040  0.55020  Biso   1.000  O
  O391     1.0000 0.47250  0.31870  0.55050  Biso   1.000  O
  O392     1.0000 0.38710  0.33770  0.51750  Biso   1.000  O
  O393     1.0000 0.30580  0.30400  0.51660  Biso   1.000  O
  O394     1.0000 0.22190  0.29310  0.48200  Biso   1.000  O
  O395     1.0000 0.44160  0.38470  0.48400  Biso   1.000  O
  O396     1.0000 0.47990  0.42450  0.43250  Biso   1.000  O
  O397     1.0000 0.35270  0.37840  0.45320  Biso   1.000  O
  O398     1.0000 0.27500  0.34350  0.45160  Biso   1.000  O
  O399     1.0000 0.15860  0.28500  0.42780  Biso   1.000  O
  O400     1.0000 0.17640  0.34740  0.46210  Biso   1.000  O
  O401     1.0000 0.39370  0.43990  0.46660  Biso   1.000  O
  O402     1.0000 0.29590  0.44340  0.47880  Biso   1.000  O
  O403     1.0000 0.21840  0.40850  0.47690  Biso   1.000  O
  O404     1.0000 0.12600  0.43800  0.47430  Biso   1.000  O
  O405     1.0000 0.21490  0.47420  0.47560  Biso   1.000  O
  O406     1.0000 0.30430  0.51600  0.47920  Biso   1.000  O
  O407     1.0000 0.16840  0.52910  0.45850  Biso   1.000  O
  O408     1.0000 0.14970  0.47230  0.42040  Biso   1.000  O
  O409     1.0000 0.25210  0.51310  0.42120  Biso   1.000  O
  O410     1.0000 0.33550  0.47980  0.42260  Biso   1.000  O
  O411     1.0000 0.24630  0.44180  0.42240  Biso   1.000  O
  O412     1.0000 0.15340  0.40390  0.42010  Biso   1.000  O
  O413     1.0000 0.21180  0.33840  0.39590  Biso   1.000  O
  O414     1.0000 0.30320  0.37510  0.39800  Biso   1.000  O
  O415     1.0000 0.38930  0.41600  0.39680  Biso   1.000  O
  O416     1.0000 0.43630  0.35980  0.42110  Biso   1.000  O
  O417     1.0000 0.34830  0.32330  0.41970  Biso   1.000  O
  O418     1.0000 0.26000  0.28270  0.41690  Biso   1.000  O
  O419     1.0000 0.29070  0.24190  0.48370  Biso   1.000  O
  O420     1.0000 0.38060  0.28160  0.48570  Biso   1.000  O
  O421     1.0000 0.47440  0.31850  0.48340  Biso   1.000  O
  O422     1.0000 0.46550  0.25880  0.51710  Biso   1.000  O
  O423     1.0000 0.36600  0.21680  0.51440  Biso   1.000  O
  O424     1.0000 0.42490  0.22960  0.45750  Biso   1.000  O
  O425     1.0000 0.44280  0.28980  0.42630  Biso   1.000  O
  O426     1.0000 0.34360  0.25060  0.42200  Biso   1.000  O
  O427     1.0000 0.38220  0.28750  0.36920  Biso   1.000  O
  O428     1.0000 0.38920  0.35780  0.36170  Biso   1.000  O
  O429     1.0000 0.28630  0.31570  0.35850  Biso   1.000  O
  O430     1.0000 0.30050  0.37870  0.33200  Biso   1.000  O
  O431     1.0000 0.31180  0.44010  0.36530  Biso   1.000  O
  O432     1.0000 0.21340  0.40290  0.36490  Biso   1.000  O
  O433     1.0000 0.22250  0.47180  0.36770  Biso   1.000  O
  N97      1.0000 0.65270  0.43060  0.60700  Biso   1.000  N
  H337     1.0000 0.64290  0.44950  0.61270  Biso   1.000  H
  N98      1.0000 0.69010  0.41790  0.62580  Biso   1.000  N
  N99      1.0000 0.65870  0.29340  0.55290  Biso   1.000  N
  H338     1.0000 0.66950  0.27820  0.53850  Biso   1.000  H
  N100     1.0000 0.61790  0.28710  0.57340  Biso   1.000  N
  N101     1.0000 0.55590  0.18820  0.59110  Biso   1.000  N
  N102     1.0000 0.51210  0.18060  0.57220  Biso   1.000  N
  H339     1.0000 0.50150  0.19160  0.55440  Biso   1.000  H
  C241     1.0000 0.48890  0.15150  0.58800  Biso   1.000  C
  C242     1.0000 0.51830  0.14120  0.61660  Biso   1.000  C
  C243     1.0000 0.55970  0.16390  0.61850  Biso   1.000  C
  N103     1.0000 0.31250  0.25840  0.73390  Biso   1.000  N
  H340     1.0000 0.29300  0.27030  0.72100  Biso   1.000  H
  N104     1.0000 0.32170  0.22330  0.73030  Biso   1.000  N
  N105     1.0000 0.06500  0.44420  0.02180  Biso   1.000  N
  N106     1.0000 0.10940  0.42970  0.02680  Biso   1.000  N
  H341     1.0000 0.13080  0.43730  0.04140  Biso   1.000  H
  N107     1.0000 0.06000  0.35050  0.90410  Biso   1.000  N
  N108     1.0000 0.02720  0.33710  0.92650  Biso   1.000  N
  H342     1.0000 0.00900  0.31970  0.92080  Biso   1.000  H
  N109     1.0000 0.06590  0.26260  0.80810  Biso   1.000  N
  H343     1.0000 0.03760  0.25840  0.81750  Biso   1.000  H
  N110     1.0000 0.09510  0.29320  0.81510  Biso   1.000  N
  N111     1.0000 0.21540  0.22140  0.71560  Biso   1.000  N
  N112     1.0000 0.18900  0.24260  0.69210  Biso   1.000  N
  H344     1.0000 0.19460  0.24420  0.67030  Biso   1.000  H
  N113     1.0000 0.25070  0.17730  0.61960  Biso   1.000  N
  H345     1.0000 0.27910  0.18590  0.61430  Biso   1.000  H
  N114     1.0000 0.23330  0.17630  0.65210  Biso   1.000  N
  C244     1.0000 0.59340  0.41270  0.56750  Biso   1.000  C
  H346     1.0000 0.58700  0.43720  0.56610  Biso   1.000  H
  H347     1.0000 0.60110  0.40390  0.54490  Biso   1.000  H
  H348     1.0000 0.56460  0.40100  0.57630  Biso   1.000  H
  C245     1.0000 0.63080  0.40710  0.58820  Biso   1.000  C
  C246     1.0000 0.65840  0.37350  0.59590  Biso   1.000  C
  C247     1.0000 0.69430  0.38660  0.62040  Biso   1.000  C
  C248     1.0000 0.73200  0.35830  0.63530  Biso   1.000  C
  H349     1.0000 0.75900  0.35520  0.61950  Biso   1.000  H
  H350     1.0000 0.74460  0.36600  0.65720  Biso   1.000  H
  H351     1.0000 0.71510  0.33650  0.63830  Biso   1.000  H
  C249     1.0000 0.72530  0.33270  0.53620  Biso   1.000  C
  H352     1.0000 0.74230  0.31210  0.52870  Biso   1.000  H
  H353     1.0000 0.71610  0.34640  0.51650  Biso   1.000  H
  H354     1.0000 0.74680  0.34610  0.55090  Biso   1.000  H
  C250     1.0000 0.67890  0.32240  0.55630  Biso   1.000  C
  C251     1.0000 0.64900  0.34020  0.57960  Biso   1.000  C
  C252     1.0000 0.61220  0.31860  0.58950  Biso   1.000  C
  C253     1.0000 0.57120  0.32690  0.61490  Biso   1.000  C
  H355     1.0000 0.56360  0.30650  0.62820  Biso   1.000  H
  H356     1.0000 0.58180  0.34520  0.63010  Biso   1.000  H
  H357     1.0000 0.54230  0.33430  0.60250  Biso   1.000  H
  C254     1.0000 0.44360  0.13820  0.57250  Biso   1.000  C
  H358     1.0000 0.45170  0.12030  0.55610  Biso   1.000  H
  H359     1.0000 0.42270  0.12880  0.59020  Biso   1.000  H
  H360     1.0000 0.42670  0.15680  0.56090  Biso   1.000  H
  C255     1.0000 0.60100  0.15950  0.64100  Biso   1.000  C
  H361     1.0000 0.59300  0.16850  0.66340  Biso   1.000  H
  H362     1.0000 0.60880  0.13520  0.64280  Biso   1.000  H
  H363     1.0000 0.62900  0.17180  0.63190  Biso   1.000  H
  C256     1.0000 0.52720  0.06180  0.59080  Biso   1.000  C
  H364     1.0000 0.55870  0.07110  0.58400  Biso   1.000  H
  H365     1.0000 0.52900  0.03680  0.59150  Biso   1.000  H
  H366     1.0000 0.50240  0.06870  0.57440  Biso   1.000  H
  C257     1.0000 0.49750  0.11300  0.66960  Biso   1.000  C
  C258     1.0000 0.51140  0.11080  0.63430  Biso   1.000  C
  C259     1.0000 0.51390  0.07500  0.62520  Biso   1.000  C
  N115     1.0000 0.50160  0.05520  0.65490  Biso   1.000  N
  N116     1.0000 0.49150  0.07860  0.68230  Biso   1.000  N
  H367     1.0000 0.48310  0.07300  0.70300  Biso   1.000  H
  C260     1.0000 0.49000  0.14440  0.69730  Biso   1.000  C
  H368     1.0000 0.46600  0.16070  0.68850  Biso   1.000  H
  H369     1.0000 0.47810  0.13500  0.71870  Biso   1.000  H
  H370     1.0000 0.52080  0.15610  0.70100  Biso   1.000  H
  C261     1.0000 0.47800  0.23950  0.78810  Biso   1.000  C
  H371     1.0000 0.48180  0.26210  0.77800  Biso   1.000  H
  H372     1.0000 0.50780  0.23250  0.79920  Biso   1.000  H
  H373     1.0000 0.46940  0.22300  0.77040  Biso   1.000  H
  C262     1.0000 0.38690  0.24570  0.80980  Biso   1.000  C
  C263     1.0000 0.36670  0.24830  0.84360  Biso   1.000  C
  N117     1.0000 0.40610  0.24490  0.86760  Biso   1.000  N
  N118     1.0000 0.45060  0.24010  0.84870  Biso   1.000  N
  H374     1.0000 0.47970  0.23740  0.85730  Biso   1.000  H
  C264     1.0000 0.43870  0.24060  0.81300  Biso   1.000  C
  C265     1.0000 0.31870  0.25070  0.84900  Biso   1.000  C
  H375     1.0000 0.30250  0.23060  0.83960  Biso   1.000  H
  H376     1.0000 0.31240  0.25200  0.87330  Biso   1.000  H
  H377     1.0000 0.30610  0.27120  0.83790  Biso   1.000  H
  C266     1.0000 0.32730  0.30890  0.77130  Biso   1.000  C
  H378     1.0000 0.29260  0.31170  0.77580  Biso   1.000  H
  H379     1.0000 0.34570  0.31400  0.79190  Biso   1.000  H
  H380     1.0000 0.33710  0.32460  0.75320  Biso   1.000  H
  C267     1.0000 0.33780  0.27110  0.75990  Biso   1.000  C
  C268     1.0000 0.36100  0.24840  0.77650  Biso   1.000  C
  C269     1.0000 0.35290  0.21480  0.75780  Biso   1.000  C
  C270     1.0000 0.37220  0.17790  0.76130  Biso   1.000  C
  H381     1.0000 0.35480  0.16300  0.74560  Biso   1.000  H
  H382     1.0000 0.40690  0.17750  0.75610  Biso   1.000  H
  H383     1.0000 0.36700  0.16990  0.78450  Biso   1.000  H
  C271     1.0000 0.98970  0.43600  0.98770  Biso   1.000  C
  H384     1.0000 0.98080  0.45850  0.99670  Biso   1.000  H
  H385     1.0000 0.98570  0.43600  0.96310  Biso   1.000  H
  H386     1.0000 0.96870  0.41860  0.99770  Biso   1.000  H
  C272     1.0000 0.04160  0.42850  0.99640  Biso   1.000  C
  C273     1.0000 0.07130  0.40080  0.98480  Biso   1.000  C
  C274     1.0000 0.11650  0.40260  0.00660  Biso   1.000  C
  C275     1.0000 0.16220  0.38180  0.00480  Biso   1.000  C
  H387     1.0000 0.15680  0.35970  0.01570  Biso   1.000  H
  H388     1.0000 0.17110  0.37830  0.98110  Biso   1.000  H
  H389     1.0000 0.18840  0.39390  0.01650  Biso   1.000  H
  C276     1.0000 0.12380  0.39490  0.91000  Biso   1.000  C
  H390     1.0000 0.11390  0.40580  0.88880  Biso   1.000  H
  H391     1.0000 0.13450  0.41230  0.92600  Biso   1.000  H
  H392     1.0000 0.15050  0.37900  0.90550  Biso   1.000  H
  C277     1.0000 0.08410  0.37670  0.92380  Biso   1.000  C
  C278     1.0000 0.06260  0.37510  0.96030  Biso   1.000  C
  C279     1.0000 0.02370  0.35080  0.95640  Biso   1.000  C
  C280     1.0000 0.99260  0.33940  0.98530  Biso   1.000  C
  H393     1.0000 0.97860  0.31700  0.98010  Biso   1.000  H
  H394     1.0000 0.01240  0.33780  0.00580  Biso   1.000  H
  H395     1.0000 0.96650  0.35590  0.98890  Biso   1.000  H
  C281     1.0000 0.17490  0.31170  0.79180  Biso   1.000  C
  H396     1.0000 0.18450  0.31740  0.81500  Biso   1.000  H
  H397     1.0000 0.20100  0.29890  0.78080  Biso   1.000  H
  H398     1.0000 0.16880  0.33270  0.77910  Biso   1.000  H
  C282     1.0000 0.13070  0.29100  0.79250  Biso   1.000  C
  C283     1.0000 0.12330  0.26120  0.77110  Biso   1.000  C
  C284     1.0000 0.08700  0.24220  0.78600  Biso   1.000  C
  C285     1.0000 0.06060  0.20810  0.77490  Biso   1.000  C
  H399     1.0000 0.02990  0.21370  0.76370  Biso   1.000  H
  H400     1.0000 0.08140  0.19550  0.75920  Biso   1.000  H
  H401     1.0000 0.05420  0.19410  0.79490  Biso   1.000  H
  C286     1.0000 0.21990  0.20780  0.77580  Biso   1.000  C
  H402     1.0000 0.25250  0.19960  0.77000  Biso   1.000  H
  H403     1.0000 0.22200  0.22360  0.79490  Biso   1.000  H
  H404     1.0000 0.19940  0.18840  0.78210  Biso   1.000  H
  C287     1.0000 0.19780  0.22610  0.74520  Biso   1.000  C
  C288     1.0000 0.15900  0.25210  0.74510  Biso   1.000  C
  C289     1.0000 0.15210  0.26060  0.71030  Biso   1.000  C
  C290     1.0000 0.12350  0.28400  0.69540  Biso   1.000  C
  H405     1.0000 0.09090  0.28290  0.70520  Biso   1.000  H
  H406     1.0000 0.13710  0.30680  0.69900  Biso   1.000  H
  H407     1.0000 0.12170  0.27930  0.67100  Biso   1.000  H
  C291     1.0000 0.15340  0.15800  0.67770  Biso   1.000  C
  H408     1.0000 0.12960  0.17650  0.67710  Biso   1.000  H
  H409     1.0000 0.13660  0.13600  0.67730  Biso   1.000  H
  H410     1.0000 0.17280  0.15980  0.69840  Biso   1.000  H
  C292     1.0000 0.18630  0.16070  0.64720  Biso   1.000  C
  C293     1.0000 0.17770  0.15290  0.61380  Biso   1.000  C
  C294     1.0000 0.21930  0.16350  0.59560  Biso   1.000  C
  C295     1.0000 0.23110  0.15870  0.55620  Biso   1.000  C
  H411     1.0000 0.26430  0.15020  0.55360  Biso   1.000  H
  H412     1.0000 0.20830  0.14230  0.54640  Biso   1.000  H
  H413     1.0000 0.22790  0.18070  0.54460  Biso   1.000  H
  C296     1.0000 0.09890  0.18370  0.55320  Biso   1.000  C
  H414     1.0000 0.08180  0.19990  0.56770  Biso   1.000  H
  H415     1.0000 0.13120  0.19270  0.54770  Biso   1.000  H
  H416     1.0000 0.08050  0.18030  0.53230  Biso   1.000  H
  C297     1.0000 0.12550  0.10050  0.60440  Biso   1.000  C
  N119     1.0000 0.08600  0.09100  0.58210  Biso   1.000  N
  N120     1.0000 0.07290  0.12060  0.56230  Biso   1.000  N
  H417     1.0000 0.05000  0.12160  0.54690  Biso   1.000  H
  C298     1.0000 0.10430  0.14850  0.57230  Biso   1.000  C
  C299     1.0000 0.13680  0.13600  0.59830  Biso   1.000  C
  C300     1.0000 0.14700  0.07500  0.62770  Biso   1.000  C
  H418     1.0000 0.14520  0.05230  0.61750  Biso   1.000  H
  H419     1.0000 0.18100  0.08090  0.63200  Biso   1.000  H
  H420     1.0000 0.12900  0.07510  0.64910  Biso   1.000  H
  O434     1.0000 0.31860  0.38950  0.51860  Biso   1.000  O
  K10      1.0000 0.35030  0.40120  0.51800  Biso   1.000  K
  O435     1.0000 0.27200  0.37040  0.51360  Biso   1.000  O
  W151     1.0000 0.32488  0.06810  0.14476  Biso   1.000  W
  W152     1.0000 0.22723  0.01528  0.14283  Biso   1.000  W
  W153     1.0000 0.15749  0.09545  0.17422  Biso   1.000  W
  W154     1.0000 0.25496  0.14861  0.17532  Biso   1.000  W
  W155     1.0000 0.18785  0.22590  0.13890  Biso   1.000  W
  W156     1.0000 0.08793  0.17689  0.14989  Biso   1.000  W
  W157     1.0000 0.07684  0.09941  0.09653  Biso   1.000  W
  W158     1.0000 0.29523  0.18733  0.09400  Biso   1.000  W
  W159     1.0000 0.36219  0.10894  0.06173  Biso   1.000  W
  W160     1.0000 0.14578  0.01982  0.06792  Biso   1.000  W
  W161     1.0000 0.26216  0.96883  0.06084  Biso   1.000  W
  W162     1.0000 0.36711  0.01487  0.06840  Biso   1.000  W
  W163     1.0000 0.36678  0.01374  0.97009  Biso   1.000  W
  W164     1.0000 0.26210  0.96907  0.96274  Biso   1.000  W
  W165     1.0000 0.14611  0.01680  0.97122  Biso   1.000  W
  W166     1.0000 0.35988  0.11010  0.96501  Biso   1.000  W
  W167     1.0000 0.28934  0.18908  0.93726  Biso   1.000  W
  W168     1.0000 0.07795  0.09565  0.94062  Biso   1.000  W
  W169     1.0000 0.03394  0.14641  0.01680  Biso   1.000  W
  W170     1.0000 0.25047  0.23702  0.01669  Biso   1.000  W
  W171     1.0000 0.14392  0.27522  0.06010  Biso   1.000  W
  W172     1.0000 0.04336  0.22609  0.07022  Biso   1.000  W
  W173     1.0000 0.03762  0.23038  0.97338  Biso   1.000  W
  W174     1.0000 0.14644  0.27093  0.96391  Biso   1.000  W
  W175     1.0000 0.18549  0.21940  0.88521  Biso   1.000  W
  W176     1.0000 0.07601  0.17968  0.89367  Biso   1.000  W
  W177     1.0000 0.14424  0.10238  0.85888  Biso   1.000  W
  W178     1.0000 0.25533  0.13958  0.85874  Biso   1.000  W
  W179     1.0000 0.32493  0.05983  0.88961  Biso   1.000  W
  W180     1.0000 0.21419  0.02232  0.88831  Biso   1.000  W
  Co21     1.0000 0.95828  0.04628  0.92383  Biso   1.000  Co
  Co22     1.0000 0.91130  0.26256  0.08071  Biso   1.000  Co
  Co23     1.0000 0.22281  0.30431  0.19312  Biso   1.000  Co
  Co24     1.0000 0.42176  0.17644  0.35903  Biso   1.000  Co
  K11      1.0000 0.25830  0.14393  0.01519  Biso   1.000  K
  P26      1.0000 0.18490  0.14493  0.10280  Biso   1.000  P
  P27      1.0000 0.25920  0.05878  0.06890  Biso   1.000  P
  P28      1.0000 0.25590  0.05854  0.96360  Biso   1.000  P
  P29      1.0000 0.18090  0.14442  0.93080  Biso   1.000  P
  P30      1.0000 0.13620  0.19803  0.01700  Biso   1.000  P
  O436     1.0000 0.20760  0.12200  0.19990  Biso   1.000  O
  O437     1.0000 0.19680  0.05680  0.16930  Biso   1.000  O
  O438     1.0000 0.29130  0.10180  0.16760  Biso   1.000  O
  O439     1.0000 0.28630  0.02970  0.16500  Biso   1.000  O
  O440     1.0000 0.35440  0.02780  0.11140  Biso   1.000  O
  O441     1.0000 0.25510  0.98490  0.11230  Biso   1.000  O
  O442     1.0000 0.17060  0.02060  0.11390  Biso   1.000  O
  O443     1.0000 0.26060  0.05830  0.10950  Biso   1.000  O
  O444     1.0000 0.35060  0.09720  0.11020  Biso   1.000  O
  O445     1.0000 0.29330  0.16250  0.13600  Biso   1.000  O
  O446     1.0000 0.20320  0.12560  0.13530  Biso   1.000  O
  O447     1.0000 0.11320  0.08710  0.13930  Biso   1.000  O
  O448     1.0000 0.12110  0.14420  0.17430  Biso   1.000  O
  O449     1.0000 0.21790  0.18850  0.17190  Biso   1.000  O
  O450     1.0000 0.21090  0.25920  0.16490  Biso   1.000  O
  O451     1.0000 0.12770  0.21580  0.16350  Biso   1.000  O
  O452     1.0000 0.06560  0.14330  0.11730  Biso   1.000  O
  O453     1.0000 0.15760  0.17880  0.11510  Biso   1.000  O
  O454     1.0000 0.24480  0.21640  0.11410  Biso   1.000  O
  O455     1.0000 0.23000  0.15510  0.08060  Biso   1.000  O
  O456     1.0000 0.14950  0.12270  0.08050  Biso   1.000  O
  O457     1.0000 0.10910  0.06050  0.07200  Biso   1.000  O
  O458     1.0000 0.32690  0.15250  0.06770  Biso   1.000  O
  O459     1.0000 0.28470  0.09070  0.05490  Biso   1.000  O
  O460     1.0000 0.20540  0.05640  0.05680  Biso   1.000  O
  O461     1.0000 0.10040  0.98910  0.07690  Biso   1.000  O
  O462     1.0000 0.19710  0.98630  0.05830  Biso   1.000  O
  O463     1.0000 0.28660  0.02460  0.05800  Biso   1.000  O
  O464     1.0000 0.37810  0.06090  0.05570  Biso   1.000  O
  O465     1.0000 0.33330  0.97030  0.07110  Biso   1.000  O
  O466     1.0000 0.27100  0.96520  0.01410  Biso   1.000  O
  O467     1.0000 0.36790  0.00630  0.01610  Biso   1.000  O
  O468     1.0000 0.35750  0.11840  0.01510  Biso   1.000  O
  O469     1.0000 0.13700  0.02240  0.01960  Biso   1.000  O
  O470     1.0000 0.05540  0.11500  0.05280  Biso   1.000  O
  O471     1.0000 0.27790  0.20730  0.05060  Biso   1.000  O
  O472     1.0000 0.15920  0.25170  0.10660  Biso   1.000  O
  O473     1.0000 0.06320  0.21080  0.11250  Biso   1.000  O
  O474     1.0000 0.98490  0.24170  0.08410  Biso   1.000  O
  O475     1.0000 0.07560  0.27180  0.07500  Biso   1.000  O
  O476     1.0000 0.20930  0.25800  0.05080  Biso   1.000  O
  O477     1.0000 0.11840  0.21960  0.05020  Biso   1.000  O
  O478     1.0000 0.02750  0.18130  0.05050  Biso   1.000  O
  O479     1.0000 0.11290  0.16230  0.01750  Biso   1.000  O
  O480     1.0000 0.19420  0.19600  0.01660  Biso   1.000  O
  O481     1.0000 0.27810  0.20690  0.98200  Biso   1.000  O
  O482     1.0000 0.05840  0.11530  0.98400  Biso   1.000  O
  O483     1.0000 0.02010  0.07550  0.93250  Biso   1.000  O
  O484     1.0000 0.14730  0.12160  0.95320  Biso   1.000  O
  O485     1.0000 0.22500  0.15650  0.95160  Biso   1.000  O
  O486     1.0000 0.34140  0.21500  0.92780  Biso   1.000  O
  O487     1.0000 0.32360  0.15260  0.96210  Biso   1.000  O
  O488     1.0000 0.10630  0.06010  0.96660  Biso   1.000  O
  O489     1.0000 0.20410  0.05660  0.97880  Biso   1.000  O
  O490     1.0000 0.28160  0.09150  0.97690  Biso   1.000  O
  O491     1.0000 0.37400  0.06200  0.97430  Biso   1.000  O
  O492     1.0000 0.28510  0.02580  0.97560  Biso   1.000  O
  O493     1.0000 0.19570  0.98400  0.97920  Biso   1.000  O
  O494     1.0000 0.33160  0.97090  0.95850  Biso   1.000  O
  O495     1.0000 0.35030  0.02770  0.92040  Biso   1.000  O
  O496     1.0000 0.24790  0.98690  0.92120  Biso   1.000  O
  O497     1.0000 0.16450  0.02020  0.92260  Biso   1.000  O
  O498     1.0000 0.25370  0.05820  0.92240  Biso   1.000  O
  O499     1.0000 0.34660  0.09610  0.92010  Biso   1.000  O
  O500     1.0000 0.28820  0.16160  0.89590  Biso   1.000  O
  O501     1.0000 0.19680  0.12490  0.89800  Biso   1.000  O
  O502     1.0000 0.11070  0.08400  0.89680  Biso   1.000  O
  O503     1.0000 0.06370  0.14020  0.92110  Biso   1.000  O
  O504     1.0000 0.15170  0.17670  0.91970  Biso   1.000  O
  O505     1.0000 0.24000  0.21730  0.91690  Biso   1.000  O
  O506     1.0000 0.20930  0.25810  0.98370  Biso   1.000  O
  O507     1.0000 0.11940  0.21840  0.98570  Biso   1.000  O
  O508     1.0000 0.02560  0.18150  0.98340  Biso   1.000  O
  O509     1.0000 0.03450  0.24120  0.01710  Biso   1.000  O
  O510     1.0000 0.13400  0.28320  0.01440  Biso   1.000  O
  O511     1.0000 0.07510  0.27040  0.95750  Biso   1.000  O
  O512     1.0000 0.05720  0.21020  0.92630  Biso   1.000  O
  O513     1.0000 0.15640  0.24940  0.92200  Biso   1.000  O
  O514     1.0000 0.11780  0.21250  0.86920  Biso   1.000  O
  O515     1.0000 0.11080  0.14220  0.86170  Biso   1.000  O
  O516     1.0000 0.21370  0.18430  0.85850  Biso   1.000  O
  O517     1.0000 0.19950  0.12130  0.83200  Biso   1.000  O
  O518     1.0000 0.18820  0.05990  0.86530  Biso   1.000  O
  O519     1.0000 0.28660  0.09710  0.86490  Biso   1.000  O
  O520     1.0000 0.27750  0.02820  0.86770  Biso   1.000  O
  N121     1.0000 0.84730  0.06940  0.10700  Biso   1.000  N
  H421     1.0000 0.85710  0.05050  0.11270  Biso   1.000  H
  N122     1.0000 0.80990  0.08210  0.12580  Biso   1.000  N
  N123     1.0000 0.84130  0.20660  0.05290  Biso   1.000  N
  H422     1.0000 0.83050  0.22180  0.03850  Biso   1.000  H
  N124     1.0000 0.88210  0.21290  0.07340  Biso   1.000  N
  N125     1.0000 0.94410  0.31180  0.09110  Biso   1.000  N
  N126     1.0000 0.98790  0.31940  0.07220  Biso   1.000  N
  H423     1.0000 0.99850  0.30840  0.05440  Biso   1.000  H
  C301     1.0000 0.01110  0.34850  0.08800  Biso   1.000  C
  C302     1.0000 0.98170  0.35880  0.11660  Biso   1.000  C
  C303     1.0000 0.94030  0.33610  0.11850  Biso   1.000  C
  N127     1.0000 0.18750  0.24160  0.23390  Biso   1.000  N
  H424     1.0000 0.20700  0.22970  0.22100  Biso   1.000  H
  N128     1.0000 0.17830  0.27670  0.23030  Biso   1.000  N
  N129     1.0000 0.43500  0.05580  0.52180  Biso   1.000  N
  N130     1.0000 0.39060  0.07030  0.52680  Biso   1.000  N
  H425     1.0000 0.36920  0.06270  0.54140  Biso   1.000  H
  N131     1.0000 0.44000  0.14950  0.40410  Biso   1.000  N
  N132     1.0000 0.47280  0.16290  0.42650  Biso   1.000  N
  H426     1.0000 0.49100  0.18030  0.42080  Biso   1.000  H
  N133     1.0000 0.43410  0.23740  0.30810  Biso   1.000  N
  H427     1.0000 0.46240  0.24160  0.31750  Biso   1.000  H
  N134     1.0000 0.40490  0.20680  0.31510  Biso   1.000  N
  N135     1.0000 0.28460  0.27860  0.21560  Biso   1.000  N
  N136     1.0000 0.31100  0.25740  0.19210  Biso   1.000  N
  H428     1.0000 0.30540  0.25580  0.17030  Biso   1.000  H
  N137     1.0000 0.24930  0.32270  0.11960  Biso   1.000  N
  H429     1.0000 0.22090  0.31410  0.11430  Biso   1.000  H
  N138     1.0000 0.26670  0.32370  0.15210  Biso   1.000  N
  C304     1.0000 0.90660  0.08730  0.06750  Biso   1.000  C
  H430     1.0000 0.91300  0.06280  0.06610  Biso   1.000  H
  H431     1.0000 0.89890  0.09610  0.04490  Biso   1.000  H
  H432     1.0000 0.93540  0.09900  0.07630  Biso   1.000  H
  C305     1.0000 0.86920  0.09290  0.08820  Biso   1.000  C
  C306     1.0000 0.84160  0.12650  0.09590  Biso   1.000  C
  C307     1.0000 0.80570  0.11340  0.12040  Biso   1.000  C
  C308     1.0000 0.76800  0.14170  0.13530  Biso   1.000  C
  H433     1.0000 0.74100  0.14480  0.11950  Biso   1.000  H
  H434     1.0000 0.75540  0.13400  0.15720  Biso   1.000  H
  H435     1.0000 0.78490  0.16350  0.13830  Biso   1.000  H
  C309     1.0000 0.77470  0.16730  0.03620  Biso   1.000  C
  H436     1.0000 0.75770  0.18790  0.02870  Biso   1.000  H
  H437     1.0000 0.78390  0.15360  0.01650  Biso   1.000  H
  H438     1.0000 0.75320  0.15390  0.05090  Biso   1.000  H
  C310     1.0000 0.82110  0.17760  0.05630  Biso   1.000  C
  C311     1.0000 0.85100  0.15980  0.07960  Biso   1.000  C
  C312     1.0000 0.88780  0.18140  0.08950  Biso   1.000  C
  C313     1.0000 0.92880  0.17310  0.11490  Biso   1.000  C
  H439     1.0000 0.93640  0.19350  0.12820  Biso   1.000  H
  H440     1.0000 0.91820  0.15480  0.13010  Biso   1.000  H
  H441     1.0000 0.95770  0.16570  0.10250  Biso   1.000  H
  C314     1.0000 0.05640  0.36180  0.07250  Biso   1.000  C
  H442     1.0000 0.04830  0.37970  0.05610  Biso   1.000  H
  H443     1.0000 0.07730  0.37120  0.09020  Biso   1.000  H
  H444     1.0000 0.07330  0.34320  0.06090  Biso   1.000  H
  C315     1.0000 0.89900  0.34050  0.14100  Biso   1.000  C
  H445     1.0000 0.90700  0.33150  0.16340  Biso   1.000  H
  H446     1.0000 0.89120  0.36480  0.14280  Biso   1.000  H
  H447     1.0000 0.87100  0.32820  0.13190  Biso   1.000  H
  C316     1.0000 0.97280  0.43820  0.09080  Biso   1.000  C
  H448     1.0000 0.94130  0.42890  0.08400  Biso   1.000  H
  H449     1.0000 0.97100  0.46320  0.09150  Biso   1.000  H
  H450     1.0000 0.99760  0.43130  0.07440  Biso   1.000  H
  C317     1.0000 0.00250  0.38700  0.16960  Biso   1.000  C
  C318     1.0000 0.98860  0.38920  0.13430  Biso   1.000  C
  C319     1.0000 0.98610  0.42500  0.12520  Biso   1.000  C
  N139     1.0000 0.99840  0.44480  0.15490  Biso   1.000  N
  N140     1.0000 0.00850  0.42140  0.18230  Biso   1.000  N
  H451     1.0000 0.01690  0.42700  0.20300  Biso   1.000  H
  C320     1.0000 0.01000  0.35560  0.19730  Biso   1.000  C
  H452     1.0000 0.03400  0.33930  0.18850  Biso   1.000  H
  H453     1.0000 0.02190  0.36500  0.21870  Biso   1.000  H
  H454     1.0000 0.97920  0.34390  0.20100  Biso   1.000  H
  C321     1.0000 0.02200  0.26050  0.28810  Biso   1.000  C
  H455     1.0000 0.01820  0.23790  0.27800  Biso   1.000  H
  H456     1.0000 0.99220  0.26750  0.29920  Biso   1.000  H
  H457     1.0000 0.03060  0.27700  0.27040  Biso   1.000  H
  C322     1.0000 0.11310  0.25430  0.30980  Biso   1.000  C
  C323     1.0000 0.13330  0.25170  0.34360  Biso   1.000  C
  N141     1.0000 0.09390  0.25510  0.36760  Biso   1.000  N
  N142     1.0000 0.04940  0.25990  0.34870  Biso   1.000  N
  H458     1.0000 0.02030  0.26260  0.35730  Biso   1.000  H
  C324     1.0000 0.06130  0.25940  0.31300  Biso   1.000  C
  C325     1.0000 0.18130  0.24930  0.34900  Biso   1.000  C
  H459     1.0000 0.19750  0.26940  0.33960  Biso   1.000  H
  H460     1.0000 0.18760  0.24800  0.37330  Biso   1.000  H
  H461     1.0000 0.19390  0.22880  0.33790  Biso   1.000  H
  C326     1.0000 0.17270  0.19110  0.27130  Biso   1.000  C
  H462     1.0000 0.20740  0.18830  0.27580  Biso   1.000  H
  H463     1.0000 0.15430  0.18600  0.29190  Biso   1.000  H
  H464     1.0000 0.16290  0.17540  0.25320  Biso   1.000  H
  C327     1.0000 0.16220  0.22890  0.25990  Biso   1.000  C
  C328     1.0000 0.13900  0.25160  0.27650  Biso   1.000  C
  C329     1.0000 0.14710  0.28520  0.25780  Biso   1.000  C
  C330     1.0000 0.12780  0.32210  0.26130  Biso   1.000  C
  H465     1.0000 0.14520  0.33700  0.24560  Biso   1.000  H
  H466     1.0000 0.09310  0.32250  0.25610  Biso   1.000  H
  H467     1.0000 0.13300  0.33010  0.28450  Biso   1.000  H
  C331     1.0000 0.51030  0.06400  0.48770  Biso   1.000  C
  H468     1.0000 0.51920  0.04150  0.49670  Biso   1.000  H
  H469     1.0000 0.51430  0.06400  0.46310  Biso   1.000  H
  H470     1.0000 0.53130  0.08140  0.49770  Biso   1.000  H
  C332     1.0000 0.45840  0.07150  0.49640  Biso   1.000  C
  C333     1.0000 0.42870  0.09920  0.48480  Biso   1.000  C
  C334     1.0000 0.38350  0.09740  0.50660  Biso   1.000  C
  C335     1.0000 0.33780  0.11820  0.50480  Biso   1.000  C
  H471     1.0000 0.34320  0.14030  0.51570  Biso   1.000  H
  H472     1.0000 0.32890  0.12170  0.48110  Biso   1.000  H
  H473     1.0000 0.31160  0.10610  0.51650  Biso   1.000  H
  C336     1.0000 0.37620  0.10510  0.41000  Biso   1.000  C
  H474     1.0000 0.38610  0.09420  0.38880  Biso   1.000  H
  H475     1.0000 0.36550  0.08770  0.42600  Biso   1.000  H
  H476     1.0000 0.34950  0.12100  0.40550  Biso   1.000  H
  C337     1.0000 0.41590  0.12330  0.42380  Biso   1.000  C
  C338     1.0000 0.43740  0.12490  0.46030  Biso   1.000  C
  C339     1.0000 0.47630  0.14920  0.45640  Biso   1.000  C
  C340     1.0000 0.50740  0.16060  0.48530  Biso   1.000  C
  H477     1.0000 0.52140  0.18300  0.48010  Biso   1.000  H
  H478     1.0000 0.48760  0.16220  0.50580  Biso   1.000  H
  H479     1.0000 0.53350  0.14410  0.48890  Biso   1.000  H
  C341     1.0000 0.32510  0.18830  0.29180  Biso   1.000  C
  H480     1.0000 0.31550  0.18260  0.31500  Biso   1.000  H
  H481     1.0000 0.29900  0.20110  0.28080  Biso   1.000  H
  H482     1.0000 0.33120  0.16730  0.27910  Biso   1.000  H
  C342     1.0000 0.36930  0.20900  0.29250  Biso   1.000  C
  C343     1.0000 0.37670  0.23880  0.27110  Biso   1.000  C
  C344     1.0000 0.41300  0.25780  0.28600  Biso   1.000  C
  C345     1.0000 0.43940  0.29190  0.27490  Biso   1.000  C
  H483     1.0000 0.47010  0.28630  0.26370  Biso   1.000  H
  H484     1.0000 0.41860  0.30450  0.25920  Biso   1.000  H
  H485     1.0000 0.44580  0.30590  0.29490  Biso   1.000  H
  C346     1.0000 0.28010  0.29220  0.27580  Biso   1.000  C
  H486     1.0000 0.24750  0.30040  0.27000  Biso   1.000  H
  H487     1.0000 0.27800  0.27640  0.29490  Biso   1.000  H
  H488     1.0000 0.30060  0.31160  0.28210  Biso   1.000  H
  C347     1.0000 0.30220  0.27390  0.24520  Biso   1.000  C
  C348     1.0000 0.34100  0.24790  0.24510  Biso   1.000  C
  C349     1.0000 0.34790  0.23940  0.21030  Biso   1.000  C
  C350     1.0000 0.37650  0.21600  0.19540  Biso   1.000  C
  H489     1.0000 0.40910  0.21710  0.20520  Biso   1.000  H
  H490     1.0000 0.36290  0.19320  0.19900  Biso   1.000  H
  H491     1.0000 0.37830  0.22070  0.17100  Biso   1.000  H
  C351     1.0000 0.34660  0.34200  0.17770  Biso   1.000  C
  H492     1.0000 0.37040  0.32350  0.17710  Biso   1.000  H
  H493     1.0000 0.36340  0.36400  0.17730  Biso   1.000  H
  H494     1.0000 0.32720  0.34020  0.19840  Biso   1.000  H
  C352     1.0000 0.31370  0.33930  0.14720  Biso   1.000  C
  C353     1.0000 0.32230  0.34710  0.11380  Biso   1.000  C
  C354     1.0000 0.28070  0.33650  0.09560  Biso   1.000  C
  C355     1.0000 0.26890  0.34130  0.05620  Biso   1.000  C
  H495     1.0000 0.23570  0.34980  0.05360  Biso   1.000  H
  H496     1.0000 0.29170  0.35770  0.04640  Biso   1.000  H
  H497     1.0000 0.27210  0.31930  0.04460  Biso   1.000  H
  C356     1.0000 0.40110  0.31630  0.05320  Biso   1.000  C
  H498     1.0000 0.41820  0.30010  0.06770  Biso   1.000  H
  H499     1.0000 0.36880  0.30730  0.04770  Biso   1.000  H
  H500     1.0000 0.41950  0.31970  0.03230  Biso   1.000  H
  C357     1.0000 0.37450  0.39950  0.10440  Biso   1.000  C
  N143     1.0000 0.41400  0.40900  0.08210  Biso   1.000  N
  N144     1.0000 0.42710  0.37940  0.06230  Biso   1.000  N
  H501     1.0000 0.45000  0.37840  0.04690  Biso   1.000  H
  C358     1.0000 0.39570  0.35150  0.07230  Biso   1.000  C
  C359     1.0000 0.36320  0.36400  0.09830  Biso   1.000  C
  C360     1.0000 0.35300  0.42500  0.12770  Biso   1.000  C
  H502     1.0000 0.35480  0.44770  0.11750  Biso   1.000  H
  H503     1.0000 0.31900  0.41910  0.13200  Biso   1.000  H
  H504     1.0000 0.37100  0.42490  0.14910  Biso   1.000  H
  O521     1.0000 0.18140  0.11050  0.01860  Biso   1.000  O
  K12      1.0000 0.14970  0.09880  0.01800  Biso   1.000  K
  O522     1.0000 0.22800  0.12960  0.01360  Biso   1.000  O
  W181     1.0000 0.82488  0.43190  0.85524  Biso   1.000  W
  W182     1.0000 0.72723  0.48472  0.85717  Biso   1.000  W
  W183     1.0000 0.65749  0.40455  0.82578  Biso   1.000  W
  W184     1.0000 0.75496  0.35139  0.82468  Biso   1.000  W
  W185     1.0000 0.68785  0.27410  0.86110  Biso   1.000  W
  W186     1.0000 0.58793  0.32311  0.85011  Biso   1.000  W
  W187     1.0000 0.57684  0.40059  0.90347  Biso   1.000  W
  W188     1.0000 0.79523  0.31267  0.90600  Biso   1.000  W
  W189     1.0000 0.86219  0.39106  0.93827  Biso   1.000  W
  W190     1.0000 0.64578  0.48018  0.93208  Biso   1.000  W
  W191     1.0000 0.76216  0.53117  0.93916  Biso   1.000  W
  W192     1.0000 0.86711  0.48513  0.93160  Biso   1.000  W
  W193     1.0000 0.86678  0.48626  0.02991  Biso   1.000  W
  W194     1.0000 0.76210  0.53093  0.03726  Biso   1.000  W
  W195     1.0000 0.64611  0.48320  0.02878  Biso   1.000  W
  W196     1.0000 0.85988  0.38990  0.03499  Biso   1.000  W
  W197     1.0000 0.78934  0.31092  0.06274  Biso   1.000  W
  W198     1.0000 0.57795  0.40435  0.05938  Biso   1.000  W
  W199     1.0000 0.53394  0.35359  0.98320  Biso   1.000  W
  W200     1.0000 0.75047  0.26298  0.98331  Biso   1.000  W
  W201     1.0000 0.64392  0.22478  0.93990  Biso   1.000  W
  W202     1.0000 0.54336  0.27391  0.92978  Biso   1.000  W
  W203     1.0000 0.53762  0.26962  0.02662  Biso   1.000  W
  W204     1.0000 0.64644  0.22907  0.03609  Biso   1.000  W
  W205     1.0000 0.68549  0.28060  0.11479  Biso   1.000  W
  W206     1.0000 0.57601  0.32032  0.10633  Biso   1.000  W
  W207     1.0000 0.64424  0.39762  0.14112  Biso   1.000  W
  W208     1.0000 0.75533  0.36042  0.14126  Biso   1.000  W
  W209     1.0000 0.82493  0.44017  0.11039  Biso   1.000  W
  W210     1.0000 0.71419  0.47768  0.11169  Biso   1.000  W
  Co25     1.0000 0.45828  0.45372  0.07617  Biso   1.000  Co
  Co26     1.0000 0.41130  0.23744  0.91929  Biso   1.000  Co
  Co27     1.0000 0.72281  0.19569  0.80688  Biso   1.000  Co
  Co28     1.0000 0.92176  0.32356  0.64097  Biso   1.000  Co
  K13      1.0000 0.75830  0.35607  0.98481  Biso   1.000  K
  P31      1.0000 0.68490  0.35507  0.89720  Biso   1.000  P
  P32      1.0000 0.75920  0.44122  0.93110  Biso   1.000  P
  P33      1.0000 0.75590  0.44146  0.03640  Biso   1.000  P
  P34      1.0000 0.68090  0.35558  0.06920  Biso   1.000  P
  P35      1.0000 0.63620  0.30197  0.98300  Biso   1.000  P
  O523     1.0000 0.70760  0.37800  0.80010  Biso   1.000  O
  O524     1.0000 0.69680  0.44320  0.83070  Biso   1.000  O
  O525     1.0000 0.79130  0.39820  0.83240  Biso   1.000  O
  O526     1.0000 0.78630  0.47030  0.83500  Biso   1.000  O
  O527     1.0000 0.85440  0.47220  0.88860  Biso   1.000  O
  O528     1.0000 0.75510  0.51510  0.88770  Biso   1.000  O
  O529     1.0000 0.67060  0.47940  0.88610  Biso   1.000  O
  O530     1.0000 0.76060  0.44170  0.89050  Biso   1.000  O
  O531     1.0000 0.85060  0.40280  0.88980  Biso   1.000  O
  O532     1.0000 0.79330  0.33750  0.86400  Biso   1.000  O
  O533     1.0000 0.70320  0.37440  0.86470  Biso   1.000  O
  O534     1.0000 0.61320  0.41290  0.86070  Biso   1.000  O
  O535     1.0000 0.62110  0.35580  0.82570  Biso   1.000  O
  O536     1.0000 0.71790  0.31150  0.82810  Biso   1.000  O
  O537     1.0000 0.71090  0.24080  0.83510  Biso   1.000  O
  O538     1.0000 0.62770  0.28420  0.83650  Biso   1.000  O
  O539     1.0000 0.56560  0.35670  0.88270  Biso   1.000  O
  O540     1.0000 0.65760  0.32120  0.88490  Biso   1.000  O
  O541     1.0000 0.74480  0.28360  0.88590  Biso   1.000  O
  O542     1.0000 0.73000  0.34490  0.91940  Biso   1.000  O
  O543     1.0000 0.64950  0.37730  0.91950  Biso   1.000  O
  O544     1.0000 0.60910  0.43950  0.92800  Biso   1.000  O
  O545     1.0000 0.82690  0.34750  0.93230  Biso   1.000  O
  O546     1.0000 0.78470  0.40930  0.94510  Biso   1.000  O
  O547     1.0000 0.70540  0.44360  0.94320  Biso   1.000  O
  O548     1.0000 0.60040  0.51090  0.92310  Biso   1.000  O
  O549     1.0000 0.69710  0.51370  0.94170  Biso   1.000  O
  O550     1.0000 0.78660  0.47540  0.94200  Biso   1.000  O
  O551     1.0000 0.87810  0.43910  0.94430  Biso   1.000  O
  O552     1.0000 0.83330  0.52970  0.92890  Biso   1.000  O
  O553     1.0000 0.77100  0.53480  0.98590  Biso   1.000  O
  O554     1.0000 0.86790  0.49370  0.98390  Biso   1.000  O
  O555     1.0000 0.85750  0.38160  0.98490  Biso   1.000  O
  O556     1.0000 0.63700  0.47760  0.98040  Biso   1.000  O
  O557     1.0000 0.55540  0.38500  0.94720  Biso   1.000  O
  O558     1.0000 0.77790  0.29270  0.94940  Biso   1.000  O
  O559     1.0000 0.65920  0.24830  0.89340  Biso   1.000  O
  O560     1.0000 0.56320  0.28920  0.88750  Biso   1.000  O
  O561     1.0000 0.48490  0.25830  0.91590  Biso   1.000  O
  O562     1.0000 0.57560  0.22820  0.92500  Biso   1.000  O
  O563     1.0000 0.70930  0.24200  0.94920  Biso   1.000  O
  O564     1.0000 0.61840  0.28040  0.94980  Biso   1.000  O
  O565     1.0000 0.52750  0.31870  0.94950  Biso   1.000  O
  O566     1.0000 0.61290  0.33770  0.98250  Biso   1.000  O
  O567     1.0000 0.69420  0.30400  0.98340  Biso   1.000  O
  O568     1.0000 0.77810  0.29310  0.01800  Biso   1.000  O
  O569     1.0000 0.55840  0.38470  0.01600  Biso   1.000  O
  O570     1.0000 0.52010  0.42450  0.06750  Biso   1.000  O
  O571     1.0000 0.64730  0.37840  0.04680  Biso   1.000  O
  O572     1.0000 0.72500  0.34350  0.04840  Biso   1.000  O
  O573     1.0000 0.84140  0.28500  0.07220  Biso   1.000  O
  O574     1.0000 0.82360  0.34740  0.03790  Biso   1.000  O
  O575     1.0000 0.60630  0.43990  0.03340  Biso   1.000  O
  O576     1.0000 0.70410  0.44340  0.02120  Biso   1.000  O
  O577     1.0000 0.78160  0.40850  0.02310  Biso   1.000  O
  O578     1.0000 0.87400  0.43800  0.02570  Biso   1.000  O
  O579     1.0000 0.78510  0.47420  0.02440  Biso   1.000  O
  O580     1.0000 0.69570  0.51600  0.02080  Biso   1.000  O
  O581     1.0000 0.83160  0.52910  0.04150  Biso   1.000  O
  O582     1.0000 0.85030  0.47230  0.07960  Biso   1.000  O
  O583     1.0000 0.74790  0.51310  0.07880  Biso   1.000  O
  O584     1.0000 0.66450  0.47980  0.07740  Biso   1.000  O
  O585     1.0000 0.75370  0.44180  0.07760  Biso   1.000  O
  O586     1.0000 0.84660  0.40390  0.07990  Biso   1.000  O
  O587     1.0000 0.78820  0.33840  0.10410  Biso   1.000  O
  O588     1.0000 0.69680  0.37510  0.10200  Biso   1.000  O
  O589     1.0000 0.61070  0.41600  0.10320  Biso   1.000  O
  O590     1.0000 0.56370  0.35980  0.07890  Biso   1.000  O
  O591     1.0000 0.65170  0.32330  0.08030  Biso   1.000  O
  O592     1.0000 0.74000  0.28270  0.08310  Biso   1.000  O
  O593     1.0000 0.70930  0.24190  0.01630  Biso   1.000  O
  O594     1.0000 0.61940  0.28160  0.01430  Biso   1.000  O
  O595     1.0000 0.52560  0.31850  0.01660  Biso   1.000  O
  O596     1.0000 0.53450  0.25880  0.98290  Biso   1.000  O
  O597     1.0000 0.63400  0.21680  0.98560  Biso   1.000  O
  O598     1.0000 0.57510  0.22960  0.04250  Biso   1.000  O
  O599     1.0000 0.55720  0.28980  0.07370  Biso   1.000  O
  O600     1.0000 0.65640  0.25060  0.07800  Biso   1.000  O
  O601     1.0000 0.61780  0.28750  0.13080  Biso   1.000  O
  O602     1.0000 0.61080  0.35780  0.13830  Biso   1.000  O
  O603     1.0000 0.71370  0.31570  0.14150  Biso   1.000  O
  O604     1.0000 0.69950  0.37870  0.16800  Biso   1.000  O
  O605     1.0000 0.68820  0.44010  0.13470  Biso   1.000  O
  O606     1.0000 0.78660  0.40290  0.13510  Biso   1.000  O
  O607     1.0000 0.77750  0.47180  0.13230  Biso   1.000  O
  N145     1.0000 0.34730  0.43060  0.89300  Biso   1.000  N
  H505     1.0000 0.35710  0.44950  0.88730  Biso   1.000  H
  N146     1.0000 0.30990  0.41790  0.87420  Biso   1.000  N
  N147     1.0000 0.34130  0.29340  0.94710  Biso   1.000  N
  H506     1.0000 0.33050  0.27820  0.96150  Biso   1.000  H
  N148     1.0000 0.38210  0.28710  0.92660  Biso   1.000  N
  N149     1.0000 0.44410  0.18820  0.90890  Biso   1.000  N
  N150     1.0000 0.48790  0.18060  0.92780  Biso   1.000  N
  H507     1.0000 0.49850  0.19160  0.94560  Biso   1.000  H
  C361     1.0000 0.51110  0.15150  0.91200  Biso   1.000  C
  C362     1.0000 0.48170  0.14120  0.88340  Biso   1.000  C
  C363     1.0000 0.44030  0.16390  0.88150  Biso   1.000  C
  N151     1.0000 0.68750  0.25840  0.76610  Biso   1.000  N
  H508     1.0000 0.70700  0.27030  0.77900  Biso   1.000  H
  N152     1.0000 0.67830  0.22330  0.76970  Biso   1.000  N
  N153     1.0000 0.93500  0.44420  0.47820  Biso   1.000  N
  N154     1.0000 0.89060  0.42970  0.47320  Biso   1.000  N
  H509     1.0000 0.86920  0.43730  0.45860  Biso   1.000  H
  N155     1.0000 0.94000  0.35050  0.59590  Biso   1.000  N
  N156     1.0000 0.97280  0.33710  0.57350  Biso   1.000  N
  H510     1.0000 0.99100  0.31970  0.57920  Biso   1.000  H
  N157     1.0000 0.93410  0.26260  0.69190  Biso   1.000  N
  H511     1.0000 0.96240  0.25840  0.68250  Biso   1.000  H
  N158     1.0000 0.90490  0.29320  0.68490  Biso   1.000  N
  N159     1.0000 0.78460  0.22140  0.78440  Biso   1.000  N
  N160     1.0000 0.81100  0.24260  0.80790  Biso   1.000  N
  H512     1.0000 0.80540  0.24420  0.82970  Biso   1.000  H
  N161     1.0000 0.74930  0.17730  0.88040  Biso   1.000  N
  H513     1.0000 0.72090  0.18590  0.88570  Biso   1.000  H
  N162     1.0000 0.76670  0.17630  0.84790  Biso   1.000  N
  C364     1.0000 0.40660  0.41270  0.93250  Biso   1.000  C
  H514     1.0000 0.41300  0.43720  0.93390  Biso   1.000  H
  H515     1.0000 0.39890  0.40390  0.95510  Biso   1.000  H
  H516     1.0000 0.43540  0.40100  0.92370  Biso   1.000  H
  C365     1.0000 0.36920  0.40710  0.91180  Biso   1.000  C
  C366     1.0000 0.34160  0.37350  0.90410  Biso   1.000  C
  C367     1.0000 0.30570  0.38660  0.87960  Biso   1.000  C
  C368     1.0000 0.26800  0.35830  0.86470  Biso   1.000  C
  H517     1.0000 0.24100  0.35520  0.88050  Biso   1.000  H
  H518     1.0000 0.25540  0.36600  0.84280  Biso   1.000  H
  H519     1.0000 0.28490  0.33650  0.86170  Biso   1.000  H
  C369     1.0000 0.27470  0.33270  0.96380  Biso   1.000  C
  H520     1.0000 0.25770  0.31210  0.97130  Biso   1.000  H
  H521     1.0000 0.28390  0.34640  0.98350  Biso   1.000  H
  H522     1.0000 0.25320  0.34610  0.94910  Biso   1.000  H
  C370     1.0000 0.32110  0.32240  0.94370  Biso   1.000  C
  C371     1.0000 0.35100  0.34020  0.92040  Biso   1.000  C
  C372     1.0000 0.38780  0.31860  0.91050  Biso   1.000  C
  C373     1.0000 0.42880  0.32690  0.88510  Biso   1.000  C
  H523     1.0000 0.43640  0.30650  0.87180  Biso   1.000  H
  H524     1.0000 0.41820  0.34520  0.86990  Biso   1.000  H
  H525     1.0000 0.45770  0.33430  0.89750  Biso   1.000  H
  C374     1.0000 0.55640  0.13820  0.92750  Biso   1.000  C
  H526     1.0000 0.54830  0.12030  0.94390  Biso   1.000  H
  H527     1.0000 0.57730  0.12880  0.90980  Biso   1.000  H
  H528     1.0000 0.57330  0.15680  0.93910  Biso   1.000  H
  C375     1.0000 0.39900  0.15950  0.85900  Biso   1.000  C
  H529     1.0000 0.40700  0.16850  0.83660  Biso   1.000  H
  H530     1.0000 0.39120  0.13520  0.85720  Biso   1.000  H
  H531     1.0000 0.37100  0.17180  0.86810  Biso   1.000  H
  C376     1.0000 0.47280  0.06180  0.90920  Biso   1.000  C
  H532     1.0000 0.44130  0.07110  0.91600  Biso   1.000  H
  H533     1.0000 0.47100  0.03680  0.90850  Biso   1.000  H
  H534     1.0000 0.49760  0.06870  0.92560  Biso   1.000  H
  C377     1.0000 0.50250  0.11300  0.83040  Biso   1.000  C
  C378     1.0000 0.48860  0.11080  0.86570  Biso   1.000  C
  C379     1.0000 0.48610  0.07500  0.87480  Biso   1.000  C
  N163     1.0000 0.49840  0.05520  0.84510  Biso   1.000  N
  N164     1.0000 0.50850  0.07860  0.81770  Biso   1.000  N
  H535     1.0000 0.51690  0.07300  0.79700  Biso   1.000  H
  C380     1.0000 0.51000  0.14440  0.80270  Biso   1.000  C
  H536     1.0000 0.53400  0.16070  0.81150  Biso   1.000  H
  H537     1.0000 0.52190  0.13500  0.78130  Biso   1.000  H
  H538     1.0000 0.47920  0.15610  0.79900  Biso   1.000  H
  C381     1.0000 0.52200  0.23950  0.71190  Biso   1.000  C
  H539     1.0000 0.51820  0.26210  0.72200  Biso   1.000  H
  H540     1.0000 0.49220  0.23250  0.70080  Biso   1.000  H
  H541     1.0000 0.53060  0.22300  0.72960  Biso   1.000  H
  C382     1.0000 0.61310  0.24570  0.69020  Biso   1.000  C
  C383     1.0000 0.63330  0.24830  0.65640  Biso   1.000  C
  N165     1.0000 0.59390  0.24490  0.63240  Biso   1.000  N
  N166     1.0000 0.54940  0.24010  0.65130  Biso   1.000  N
  H542     1.0000 0.52030  0.23740  0.64270  Biso   1.000  H
  C384     1.0000 0.56130  0.24060  0.68700  Biso   1.000  C
  C385     1.0000 0.68130  0.25070  0.65100  Biso   1.000  C
  H543     1.0000 0.69750  0.23060  0.66040  Biso   1.000  H
  H544     1.0000 0.68760  0.25200  0.62670  Biso   1.000  H
  H545     1.0000 0.69390  0.27120  0.66210  Biso   1.000  H
  C386     1.0000 0.67270  0.30890  0.72870  Biso   1.000  C
  H546     1.0000 0.70740  0.31170  0.72420  Biso   1.000  H
  H547     1.0000 0.65430  0.31400  0.70810  Biso   1.000  H
  H548     1.0000 0.66290  0.32460  0.74680  Biso   1.000  H
  C387     1.0000 0.66220  0.27110  0.74010  Biso   1.000  C
  C388     1.0000 0.63900  0.24840  0.72350  Biso   1.000  C
  C389     1.0000 0.64710  0.21480  0.74220  Biso   1.000  C
  C390     1.0000 0.62780  0.17790  0.73870  Biso   1.000  C
  H549     1.0000 0.64520  0.16300  0.75440  Biso   1.000  H
  H550     1.0000 0.59310  0.17750  0.74390  Biso   1.000  H
  H551     1.0000 0.63300  0.16990  0.71550  Biso   1.000  H
  C391     1.0000 0.01030  0.43600  0.51230  Biso   1.000  C
  H552     1.0000 0.01920  0.45850  0.50330  Biso   1.000  H
  H553     1.0000 0.01430  0.43600  0.53690  Biso   1.000  H
  H554     1.0000 0.03130  0.41860  0.50230  Biso   1.000  H
  C392     1.0000 0.95840  0.42850  0.50360  Biso   1.000  C
  C393     1.0000 0.92870  0.40080  0.51520  Biso   1.000  C
  C394     1.0000 0.88350  0.40260  0.49340  Biso   1.000  C
  C395     1.0000 0.83780  0.38180  0.49520  Biso   1.000  C
  H555     1.0000 0.84320  0.35970  0.48430  Biso   1.000  H
  H556     1.0000 0.82890  0.37830  0.51890  Biso   1.000  H
  H557     1.0000 0.81160  0.39390  0.48350  Biso   1.000  H
  C396     1.0000 0.87620  0.39490  0.59000  Biso   1.000  C
  H558     1.0000 0.88610  0.40580  0.61120  Biso   1.000  H
  H559     1.0000 0.86550  0.41230  0.57400  Biso   1.000  H
  H560     1.0000 0.84950  0.37900  0.59450  Biso   1.000  H
  C397     1.0000 0.91590  0.37670  0.57620  Biso   1.000  C
  C398     1.0000 0.93740  0.37510  0.53970  Biso   1.000  C
  C399     1.0000 0.97630  0.35080  0.54360  Biso   1.000  C
  C400     1.0000 0.00740  0.33940  0.51470  Biso   1.000  C
  H561     1.0000 0.02140  0.31700  0.51990  Biso   1.000  H
  H562     1.0000 0.98760  0.33780  0.49420  Biso   1.000  H
  H563     1.0000 0.03350  0.35590  0.51110  Biso   1.000  H
  C401     1.0000 0.82510  0.31170  0.70820  Biso   1.000  C
  H564     1.0000 0.81550  0.31740  0.68500  Biso   1.000  H
  H565     1.0000 0.79900  0.29890  0.71920  Biso   1.000  H
  H566     1.0000 0.83120  0.33270  0.72090  Biso   1.000  H
  C402     1.0000 0.86930  0.29100  0.70750  Biso   1.000  C
  C403     1.0000 0.87670  0.26120  0.72890  Biso   1.000  C
  C404     1.0000 0.91300  0.24220  0.71400  Biso   1.000  C
  C405     1.0000 0.93940  0.20810  0.72510  Biso   1.000  C
  H567     1.0000 0.97010  0.21370  0.73630  Biso   1.000  H
  H568     1.0000 0.91860  0.19550  0.74080  Biso   1.000  H
  H569     1.0000 0.94580  0.19410  0.70510  Biso   1.000  H
  C406     1.0000 0.78010  0.20780  0.72420  Biso   1.000  C
  H570     1.0000 0.74750  0.19960  0.73000  Biso   1.000  H
  H571     1.0000 0.77800  0.22360  0.70510  Biso   1.000  H
  H572     1.0000 0.80060  0.18840  0.71790  Biso   1.000  H
  C407     1.0000 0.80220  0.22610  0.75480  Biso   1.000  C
  C408     1.0000 0.84100  0.25210  0.75490  Biso   1.000  C
  C409     1.0000 0.84790  0.26060  0.78970  Biso   1.000  C
  C410     1.0000 0.87650  0.28400  0.80460  Biso   1.000  C
  H573     1.0000 0.90910  0.28290  0.79480  Biso   1.000  H
  H574     1.0000 0.86290  0.30680  0.80100  Biso   1.000  H
  H575     1.0000 0.87830  0.27930  0.82900  Biso   1.000  H
  C411     1.0000 0.84660  0.15800  0.82230  Biso   1.000  C
  H576     1.0000 0.87040  0.17650  0.82290  Biso   1.000  H
  H577     1.0000 0.86340  0.13600  0.82270  Biso   1.000  H
  H578     1.0000 0.82720  0.15980  0.80160  Biso   1.000  H
  C412     1.0000 0.81370  0.16070  0.85280  Biso   1.000  C
  C413     1.0000 0.82230  0.15290  0.88620  Biso   1.000  C
  C414     1.0000 0.78070  0.16350  0.90440  Biso   1.000  C
  C415     1.0000 0.76890  0.15870  0.94380  Biso   1.000  C
  H579     1.0000 0.73570  0.15020  0.94640  Biso   1.000  H
  H580     1.0000 0.79170  0.14230  0.95360  Biso   1.000  H
  H581     1.0000 0.77210  0.18070  0.95540  Biso   1.000  H
  C416     1.0000 0.90110  0.18370  0.94680  Biso   1.000  C
  H582     1.0000 0.91820  0.19990  0.93230  Biso   1.000  H
  H583     1.0000 0.86880  0.19270  0.95230  Biso   1.000  H
  H584     1.0000 0.91950  0.18030  0.96770  Biso   1.000  H
  C417     1.0000 0.87450  0.10050  0.89560  Biso   1.000  C
  N167     1.0000 0.91400  0.09100  0.91790  Biso   1.000  N
  N168     1.0000 0.92710  0.12060  0.93770  Biso   1.000  N
  H585     1.0000 0.95000  0.12160  0.95310  Biso   1.000  H
  C418     1.0000 0.89570  0.14850  0.92770  Biso   1.000  C
  C419     1.0000 0.86320  0.13600  0.90170  Biso   1.000  C
  C420     1.0000 0.85300  0.07500  0.87230  Biso   1.000  C
  H586     1.0000 0.85480  0.05230  0.88250  Biso   1.000  H
  H587     1.0000 0.81900  0.08090  0.86800  Biso   1.000  H
  H588     1.0000 0.87100  0.07510  0.85090  Biso   1.000  H
  O608     1.0000 0.68140  0.38950  0.98140  Biso   1.000  O
  K14      1.0000 0.64970  0.40120  0.98200  Biso   1.000  K
  O609     1.0000 0.72800  0.37040  0.98640  Biso   1.000  O
  W211     1.0000 0.67512  0.06810  0.35524  Biso   1.000  W
  W212     1.0000 0.77277  0.01528  0.35717  Biso   1.000  W
  W213     1.0000 0.84251  0.09545  0.32578  Biso   1.000  W
  W214     1.0000 0.74504  0.14861  0.32468  Biso   1.000  W
  W215     1.0000 0.81215  0.22590  0.36110  Biso   1.000  W
  W216     1.0000 0.91207  0.17689  0.35011  Biso   1.000  W
  W217     1.0000 0.92316  0.09941  0.40347  Biso   1.000  W
  W218     1.0000 0.70477  0.18733  0.40600  Biso   1.000  W
  W219     1.0000 0.63781  0.10894  0.43827  Biso   1.000  W
  W220     1.0000 0.85422  0.01982  0.43208  Biso   1.000  W
  W221     1.0000 0.73784  0.96883  0.43916  Biso   1.000  W
  W222     1.0000 0.63289  0.01487  0.43160  Biso   1.000  W
  W223     1.0000 0.63322  0.01374  0.52991  Biso   1.000  W
  W224     1.0000 0.73790  0.96907  0.53726  Biso   1.000  W
  W225     1.0000 0.85389  0.01680  0.52878  Biso   1.000  W
  W226     1.0000 0.64012  0.11010  0.53499  Biso   1.000  W
  W227     1.0000 0.71066  0.18908  0.56274  Biso   1.000  W
  W228     1.0000 0.92205  0.09565  0.55938  Biso   1.000  W
  W229     1.0000 0.96606  0.14641  0.48320  Biso   1.000  W
  W230     1.0000 0.74953  0.23702  0.48331  Biso   1.000  W
  W231     1.0000 0.85608  0.27522  0.43990  Biso   1.000  W
  W232     1.0000 0.95664  0.22609  0.42978  Biso   1.000  W
  W233     1.0000 0.96238  0.23038  0.52662  Biso   1.000  W
  W234     1.0000 0.85356  0.27093  0.53609  Biso   1.000  W
  W235     1.0000 0.81451  0.21940  0.61479  Biso   1.000  W
  W236     1.0000 0.92399  0.17968  0.60633  Biso   1.000  W
  W237     1.0000 0.85576  0.10238  0.64112  Biso   1.000  W
  W238     1.0000 0.74467  0.13958  0.64126  Biso   1.000  W
  W239     1.0000 0.67507  0.05983  0.61039  Biso   1.000  W
  W240     1.0000 0.78581  0.02232  0.61169  Biso   1.000  W
  Co29     1.0000 0.04172  0.04628  0.57617  Biso   1.000  Co
  Co30     1.0000 0.08870  0.26256  0.41929  Biso   1.000  Co
  Co31     1.0000 0.77719  0.30431  0.30688  Biso   1.000  Co
  Co32     1.0000 0.57824  0.17644  0.14097  Biso   1.000  Co
  K15      1.0000 0.74170  0.14393  0.48481  Biso   1.000  K
  P36      1.0000 0.81510  0.14493  0.39720  Biso   1.000  P
  P37      1.0000 0.74080  0.05878  0.43110  Biso   1.000  P
  P38      1.0000 0.74410  0.05854  0.53640  Biso   1.000  P
  P39      1.0000 0.81910  0.14442  0.56920  Biso   1.000  P
  P40      1.0000 0.86380  0.19803  0.48300  Biso   1.000  P
  O610     1.0000 0.79240  0.12200  0.30010  Biso   1.000  O
  O611     1.0000 0.80320  0.05680  0.33070  Biso   1.000  O
  O612     1.0000 0.70870  0.10180  0.33240  Biso   1.000  O
  O613     1.0000 0.71370  0.02970  0.33500  Biso   1.000  O
  O614     1.0000 0.64560  0.02780  0.38860  Biso   1.000  O
  O615     1.0000 0.74490  0.98490  0.38770  Biso   1.000  O
  O616     1.0000 0.82940  0.02060  0.38610  Biso   1.000  O
  O617     1.0000 0.73940  0.05830  0.39050  Biso   1.000  O
  O618     1.0000 0.64940  0.09720  0.38980  Biso   1.000  O
  O619     1.0000 0.70670  0.16250  0.36400  Biso   1.000  O
  O620     1.0000 0.79680  0.12560  0.36470  Biso   1.000  O
  O621     1.0000 0.88680  0.08710  0.36070  Biso   1.000  O
  O622     1.0000 0.87890  0.14420  0.32570  Biso   1.000  O
  O623     1.0000 0.78210  0.18850  0.32810  Biso   1.000  O
  O624     1.0000 0.78910  0.25920  0.33510  Biso   1.000  O
  O625     1.0000 0.87230  0.21580  0.33650  Biso   1.000  O
  O626     1.0000 0.93440  0.14330  0.38270  Biso   1.000  O
  O627     1.0000 0.84240  0.17880  0.38490  Biso   1.000  O
  O628     1.0000 0.75520  0.21640  0.38590  Biso   1.000  O
  O629     1.0000 0.77000  0.15510  0.41940  Biso   1.000  O
  O630     1.0000 0.85050  0.12270  0.41950  Biso   1.000  O
  O631     1.0000 0.89090  0.06050  0.42800  Biso   1.000  O
  O632     1.0000 0.67310  0.15250  0.43230  Biso   1.000  O
  O633     1.0000 0.71530  0.09070  0.44510  Biso   1.000  O
  O634     1.0000 0.79460  0.05640  0.44320  Biso   1.000  O
  O635     1.0000 0.89960  0.98910  0.42310  Biso   1.000  O
  O636     1.0000 0.80290  0.98630  0.44170  Biso   1.000  O
  O637     1.0000 0.71340  0.02460  0.44200  Biso   1.000  O
  O638     1.0000 0.62190  0.06090  0.44430  Biso   1.000  O
  O639     1.0000 0.66670  0.97030  0.42890  Biso   1.000  O
  O640     1.0000 0.72900  0.96520  0.48590  Biso   1.000  O
  O641     1.0000 0.63210  0.00630  0.48390  Biso   1.000  O
  O642     1.0000 0.64250  0.11840  0.48490  Biso   1.000  O
  O643     1.0000 0.86300  0.02240  0.48040  Biso   1.000  O
  O644     1.0000 0.94460  0.11500  0.44720  Biso   1.000  O
  O645     1.0000 0.72210  0.20730  0.44940  Biso   1.000  O
  O646     1.0000 0.84080  0.25170  0.39340  Biso   1.000  O
  O647     1.0000 0.93680  0.21080  0.38750  Biso   1.000  O
  O648     1.0000 0.01510  0.24170  0.41590  Biso   1.000  O
  O649     1.0000 0.92440  0.27180  0.42500  Biso   1.000  O
  O650     1.0000 0.79070  0.25800  0.44920  Biso   1.000  O
  O651     1.0000 0.88160  0.21960  0.44980  Biso   1.000  O
  O652     1.0000 0.97250  0.18130  0.44950  Biso   1.000  O
  O653     1.0000 0.88710  0.16230  0.48250  Biso   1.000  O
  O654     1.0000 0.80580  0.19600  0.48340  Biso   1.000  O
  O655     1.0000 0.72190  0.20690  0.51800  Biso   1.000  O
  O656     1.0000 0.94160  0.11530  0.51600  Biso   1.000  O
  O657     1.0000 0.97990  0.07550  0.56750  Biso   1.000  O
  O658     1.0000 0.85270  0.12160  0.54680  Biso   1.000  O
  O659     1.0000 0.77500  0.15650  0.54840  Biso   1.000  O
  O660     1.0000 0.65860  0.21500  0.57220  Biso   1.000  O
  O661     1.0000 0.67640  0.15260  0.53790  Biso   1.000  O
  O662     1.0000 0.89370  0.06010  0.53340  Biso   1.000  O
  O663     1.0000 0.79590  0.05660  0.52120  Biso   1.000  O
  O664     1.0000 0.71840  0.09150  0.52310  Biso   1.000  O
  O665     1.0000 0.62600  0.06200  0.52570  Biso   1.000  O
  O666     1.0000 0.71490  0.02580  0.52440  Biso   1.000  O
  O667     1.0000 0.80430  0.98400  0.52080  Biso   1.000  O
  O668     1.0000 0.66840  0.97090  0.54150  Biso   1.000  O
  O669     1.0000 0.64970  0.02770  0.57960  Biso   1.000  O
  O670     1.0000 0.75210  0.98690  0.57880  Biso   1.000  O
  O671     1.0000 0.83550  0.02020  0.57740  Biso   1.000  O
  O672     1.0000 0.74630  0.05820  0.57760  Biso   1.000  O
  O673     1.0000 0.65340  0.09610  0.57990  Biso   1.000  O
  O674     1.0000 0.71180  0.16160  0.60410  Biso   1.000  O
  O675     1.0000 0.80320  0.12490  0.60200  Biso   1.000  O
  O676     1.0000 0.88930  0.08400  0.60320  Biso   1.000  O
  O677     1.0000 0.93630  0.14020  0.57890  Biso   1.000  O
  O678     1.0000 0.84830  0.17670  0.58030  Biso   1.000  O
  O679     1.0000 0.76000  0.21730  0.58310  Biso   1.000  O
  O680     1.0000 0.79070  0.25810  0.51630  Biso   1.000  O
  O681     1.0000 0.88060  0.21840  0.51430  Biso   1.000  O
  O682     1.0000 0.97440  0.18150  0.51660  Biso   1.000  O
  O683     1.0000 0.96550  0.24120  0.48290  Biso   1.000  O
  O684     1.0000 0.86600  0.28320  0.48560  Biso   1.000  O
  O685     1.0000 0.92490  0.27040  0.54250  Biso   1.000  O
  O686     1.0000 0.94280  0.21020  0.57370  Biso   1.000  O
  O687     1.0000 0.84360  0.24940  0.57800  Biso   1.000  O
  O688     1.0000 0.88220  0.21250  0.63080  Biso   1.000  O
  O689     1.0000 0.88920  0.14220  0.63830  Biso   1.000  O
  O690     1.0000 0.78630  0.18430  0.64150  Biso   1.000  O
  O691     1.0000 0.80050  0.12130  0.66800  Biso   1.000  O
  O692     1.0000 0.81180  0.05990  0.63470  Biso   1.000  O
  O693     1.0000 0.71340  0.09710  0.63510  Biso   1.000  O
  O694     1.0000 0.72250  0.02820  0.63230  Biso   1.000  O
  N169     1.0000 0.15270  0.06940  0.39300  Biso   1.000  N
  H589     1.0000 0.14290  0.05050  0.38730  Biso   1.000  H
  N170     1.0000 0.19010  0.08210  0.37420  Biso   1.000  N
  N171     1.0000 0.15870  0.20660  0.44710  Biso   1.000  N
  H590     1.0000 0.16950  0.22180  0.46150  Biso   1.000  H
  N172     1.0000 0.11790  0.21290  0.42660  Biso   1.000  N
  N173     1.0000 0.05590  0.31180  0.40890  Biso   1.000  N
  N174     1.0000 0.01210  0.31940  0.42780  Biso   1.000  N
  H591     1.0000 0.00150  0.30840  0.44560  Biso   1.000  H
  C421     1.0000 0.98890  0.34850  0.41200  Biso   1.000  C
  C422     1.0000 0.01830  0.35880  0.38340  Biso   1.000  C
  C423     1.0000 0.05970  0.33610  0.38150  Biso   1.000  C
  N175     1.0000 0.81250  0.24160  0.26610  Biso   1.000  N
  H592     1.0000 0.79300  0.22970  0.27900  Biso   1.000  H
  N176     1.0000 0.82170  0.27670  0.26970  Biso   1.000  N
  N177     1.0000 0.56500  0.05580  0.97820  Biso   1.000  N
  N178     1.0000 0.60940  0.07030  0.97320  Biso   1.000  N
  H593     1.0000 0.63080  0.06270  0.95860  Biso   1.000  H
  N179     1.0000 0.56000  0.14950  0.09590  Biso   1.000  N
  N180     1.0000 0.52720  0.16290  0.07350  Biso   1.000  N
  H594     1.0000 0.50900  0.18030  0.07920  Biso   1.000  H
  N181     1.0000 0.56590  0.23740  0.19190  Biso   1.000  N
  H595     1.0000 0.53760  0.24160  0.18250  Biso   1.000  H
  N182     1.0000 0.59510  0.20680  0.18490  Biso   1.000  N
  N183     1.0000 0.71540  0.27860  0.28440  Biso   1.000  N
  N184     1.0000 0.68900  0.25740  0.30790  Biso   1.000  N
  H596     1.0000 0.69460  0.25580  0.32970  Biso   1.000  H
  N185     1.0000 0.75070  0.32270  0.38040  Biso   1.000  N
  H597     1.0000 0.77910  0.31410  0.38570  Biso   1.000  H
  N186     1.0000 0.73330  0.32370  0.34790  Biso   1.000  N
  C424     1.0000 0.09340  0.08730  0.43250  Biso   1.000  C
  H598     1.0000 0.08700  0.06280  0.43390  Biso   1.000  H
  H599     1.0000 0.10110  0.09610  0.45510  Biso   1.000  H
  H600     1.0000 0.06460  0.09900  0.42370  Biso   1.000  H
  C425     1.0000 0.13080  0.09290  0.41180  Biso   1.000  C
  C426     1.0000 0.15840  0.12650  0.40410  Biso   1.000  C
  C427     1.0000 0.19430  0.11340  0.37960  Biso   1.000  C
  C428     1.0000 0.23200  0.14170  0.36470  Biso   1.000  C
  H601     1.0000 0.25900  0.14480  0.38050  Biso   1.000  H
  H602     1.0000 0.24460  0.13400  0.34280  Biso   1.000  H
  H603     1.0000 0.21510  0.16350  0.36170  Biso   1.000  H
  C429     1.0000 0.22530  0.16730  0.46380  Biso   1.000  C
  H604     1.0000 0.24230  0.18790  0.47130  Biso   1.000  H
  H605     1.0000 0.21610  0.15360  0.48350  Biso   1.000  H
  H606     1.0000 0.24680  0.15390  0.44910  Biso   1.000  H
  C430     1.0000 0.17890  0.17760  0.44370  Biso   1.000  C
  C431     1.0000 0.14900  0.15980  0.42040  Biso   1.000  C
  C432     1.0000 0.11220  0.18140  0.41050  Biso   1.000  C
  C433     1.0000 0.07120  0.17310  0.38510  Biso   1.000  C
  H607     1.0000 0.06360  0.19350  0.37180  Biso   1.000  H
  H608     1.0000 0.08180  0.15480  0.36990  Biso   1.000  H
  H609     1.0000 0.04230  0.16570  0.39750  Biso   1.000  H
  C434     1.0000 0.94360  0.36180  0.42750  Biso   1.000  C
  H610     1.0000 0.95170  0.37970  0.44390  Biso   1.000  H
  H611     1.0000 0.92270  0.37120  0.40980  Biso   1.000  H
  H612     1.0000 0.92670  0.34320  0.43910  Biso   1.000  H
  C435     1.0000 0.10100  0.34050  0.35900  Biso   1.000  C
  H613     1.0000 0.09300  0.33150  0.33660  Biso   1.000  H
  H614     1.0000 0.10880  0.36480  0.35720  Biso   1.000  H
  H615     1.0000 0.12900  0.32820  0.36810  Biso   1.000  H
  C436     1.0000 0.02720  0.43820  0.40920  Biso   1.000  C
  H616     1.0000 0.05870  0.42890  0.41600  Biso   1.000  H
  H617     1.0000 0.02900  0.46320  0.40850  Biso   1.000  H
  H618     1.0000 0.00240  0.43130  0.42560  Biso   1.000  H
  C437     1.0000 0.99750  0.38700  0.33040  Biso   1.000  C
  C438     1.0000 0.01140  0.38920  0.36570  Biso   1.000  C
  C439     1.0000 0.01390  0.42500  0.37480  Biso   1.000  C
  N187     1.0000 0.00160  0.44480  0.34510  Biso   1.000  N
  N188     1.0000 0.99150  0.42140  0.31770  Biso   1.000  N
  H619     1.0000 0.98310  0.42700  0.29700  Biso   1.000  H
  C440     1.0000 0.99000  0.35560  0.30270  Biso   1.000  C
  H620     1.0000 0.96600  0.33930  0.31150  Biso   1.000  H
  H621     1.0000 0.97810  0.36500  0.28130  Biso   1.000  H
  H622     1.0000 0.02080  0.34390  0.29900  Biso   1.000  H
  C441     1.0000 0.97800  0.26050  0.21190  Biso   1.000  C
  H623     1.0000 0.98180  0.23790  0.22200  Biso   1.000  H
  H624     1.0000 0.00780  0.26750  0.20080  Biso   1.000  H
  H625     1.0000 0.96940  0.27700  0.22960  Biso   1.000  H
  C442     1.0000 0.88690  0.25430  0.19020  Biso   1.000  C
  C443     1.0000 0.86670  0.25170  0.15640  Biso   1.000  C
  N189     1.0000 0.90610  0.25510  0.13240  Biso   1.000  N
  N190     1.0000 0.95060  0.25990  0.15130  Biso   1.000  N
  H626     1.0000 0.97970  0.26260  0.14270  Biso   1.000  H
  C444     1.0000 0.93870  0.25940  0.18700  Biso   1.000  C
  C445     1.0000 0.81870  0.24930  0.15100  Biso   1.000  C
  H627     1.0000 0.80250  0.26940  0.16040  Biso   1.000  H
  H628     1.0000 0.81240  0.24800  0.12670  Biso   1.000  H
  H629     1.0000 0.80610  0.22880  0.16210  Biso   1.000  H
  C446     1.0000 0.82730  0.19110  0.22870  Biso   1.000  C
  H630     1.0000 0.79260  0.18830  0.22420  Biso   1.000  H
  H631     1.0000 0.84570  0.18600  0.20810  Biso   1.000  H
  H632     1.0000 0.83710  0.17540  0.24680  Biso   1.000  H
  C447     1.0000 0.83780  0.22890  0.24010  Biso   1.000  C
  C448     1.0000 0.86100  0.25160  0.22350  Biso   1.000  C
  C449     1.0000 0.85290  0.28520  0.24220  Biso   1.000  C
  C450     1.0000 0.87220  0.32210  0.23870  Biso   1.000  C
  H633     1.0000 0.85480  0.33700  0.25440  Biso   1.000  H
  H634     1.0000 0.90690  0.32250  0.24390  Biso   1.000  H
  H635     1.0000 0.86700  0.33010  0.21550  Biso   1.000  H
  C451     1.0000 0.48970  0.06400  0.01230  Biso   1.000  C
  H636     1.0000 0.48080  0.04150  0.00330  Biso   1.000  H
  H637     1.0000 0.48570  0.06400  0.03690  Biso   1.000  H
  H638     1.0000 0.46870  0.08140  0.00230  Biso   1.000  H
  C452     1.0000 0.54160  0.07150  0.00360  Biso   1.000  C
  C453     1.0000 0.57130  0.09920  0.01520  Biso   1.000  C
  C454     1.0000 0.61650  0.09740  0.99340  Biso   1.000  C
  C455     1.0000 0.66220  0.11820  0.99520  Biso   1.000  C
  H639     1.0000 0.65680  0.14030  0.98430  Biso   1.000  H
  H640     1.0000 0.67110  0.12170  0.01890  Biso   1.000  H
  H641     1.0000 0.68840  0.10610  0.98350  Biso   1.000  H
  C456     1.0000 0.62380  0.10510  0.09000  Biso   1.000  C
  H642     1.0000 0.61390  0.09420  0.11120  Biso   1.000  H
  H643     1.0000 0.63450  0.08770  0.07400  Biso   1.000  H
  H644     1.0000 0.65050  0.12100  0.09450  Biso   1.000  H
  C457     1.0000 0.58410  0.12330  0.07620  Biso   1.000  C
  C458     1.0000 0.56260  0.12490  0.03970  Biso   1.000  C
  C459     1.0000 0.52370  0.14920  0.04360  Biso   1.000  C
  C460     1.0000 0.49260  0.16060  0.01470  Biso   1.000  C
  H645     1.0000 0.47860  0.18300  0.01990  Biso   1.000  H
  H646     1.0000 0.51240  0.16220  0.99420  Biso   1.000  H
  H647     1.0000 0.46650  0.14410  0.01110  Biso   1.000  H
  C461     1.0000 0.67490  0.18830  0.20820  Biso   1.000  C
  H648     1.0000 0.68450  0.18260  0.18500  Biso   1.000  H
  H649     1.0000 0.70100  0.20110  0.21920  Biso   1.000  H
  H650     1.0000 0.66880  0.16730  0.22090  Biso   1.000  H
  C462     1.0000 0.63070  0.20900  0.20750  Biso   1.000  C
  C463     1.0000 0.62330  0.23880  0.22890  Biso   1.000  C
  C464     1.0000 0.58700  0.25780  0.21400  Biso   1.000  C
  C465     1.0000 0.56060  0.29190  0.22510  Biso   1.000  C
  H651     1.0000 0.52990  0.28630  0.23630  Biso   1.000  H
  H652     1.0000 0.58140  0.30450  0.24080  Biso   1.000  H
  H653     1.0000 0.55420  0.30590  0.20510  Biso   1.000  H
  C466     1.0000 0.71990  0.29220  0.22420  Biso   1.000  C
  H654     1.0000 0.75250  0.30040  0.23000  Biso   1.000  H
  H655     1.0000 0.72200  0.27640  0.20510  Biso   1.000  H
  H656     1.0000 0.69940  0.31160  0.21790  Biso   1.000  H
  C467     1.0000 0.69780  0.27390  0.25480  Biso   1.000  C
  C468     1.0000 0.65900  0.24790  0.25490  Biso   1.000  C
  C469     1.0000 0.65210  0.23940  0.28970  Biso   1.000  C
  C470     1.0000 0.62350  0.21600  0.30460  Biso   1.000  C
  H657     1.0000 0.59090  0.21710  0.29480  Biso   1.000  H
  H658     1.0000 0.63710  0.19320  0.30100  Biso   1.000  H
  H659     1.0000 0.62170  0.22070  0.32900  Biso   1.000  H
  C471     1.0000 0.65340  0.34200  0.32230  Biso   1.000  C
  H660     1.0000 0.62960  0.32350  0.32290  Biso   1.000  H
  H661     1.0000 0.63660  0.36400  0.32270  Biso   1.000  H
  H662     1.0000 0.67280  0.34020  0.30160  Biso   1.000  H
  C472     1.0000 0.68630  0.33930  0.35280  Biso   1.000  C
  C473     1.0000 0.67770  0.34710  0.38620  Biso   1.000  C
  C474     1.0000 0.71930  0.33650  0.40440  Biso   1.000  C
  C475     1.0000 0.73110  0.34130  0.44380  Biso   1.000  C
  H663     1.0000 0.76430  0.34980  0.44640  Biso   1.000  H
  H664     1.0000 0.70830  0.35770  0.45360  Biso   1.000  H
  H665     1.0000 0.72790  0.31930  0.45540  Biso   1.000  H
  C476     1.0000 0.59890  0.31630  0.44680  Biso   1.000  C
  H666     1.0000 0.58180  0.30010  0.43230  Biso   1.000  H
  H667     1.0000 0.63120  0.30730  0.45230  Biso   1.000  H
  H668     1.0000 0.58050  0.31970  0.46770  Biso   1.000  H
  C477     1.0000 0.62550  0.39950  0.39560  Biso   1.000  C
  N191     1.0000 0.58600  0.40900  0.41790  Biso   1.000  N
  N192     1.0000 0.57290  0.37940  0.43770  Biso   1.000  N
  H669     1.0000 0.55000  0.37840  0.45310  Biso   1.000  H
  C478     1.0000 0.60430  0.35150  0.42770  Biso   1.000  C
  C479     1.0000 0.63680  0.36400  0.40170  Biso   1.000  C
  C480     1.0000 0.64700  0.42500  0.37230  Biso   1.000  C
  H670     1.0000 0.64520  0.44770  0.38250  Biso   1.000  H
  H671     1.0000 0.68100  0.41910  0.36800  Biso   1.000  H
  H672     1.0000 0.62900  0.42490  0.35090  Biso   1.000  H
  O695     1.0000 0.81860  0.11050  0.48140  Biso   1.000  O
  K16      1.0000 0.85030  0.09880  0.48200  Biso   1.000  K
  O696     1.0000 0.77200  0.12960  0.48640  Biso   1.000  O
