data_image0
_cell_length_a       19.4256
_cell_length_b       21.1949
_cell_length_c       26.6468
_cell_angle_alpha    90
_cell_angle_beta     90
_cell_angle_gamma    90

_symmetry_space_group_name_H-M    "P 1"
_symmetry_int_tables_number       1

loop_
  _symmetry_equiv_pos_as_xyz
  'x, y, z'

loop_
  _atom_site_label
  _atom_site_occupancy
  _atom_site_fract_x
  _atom_site_fract_y
  _atom_site_fract_z
  _atom_site_thermal_displace_type
  _atom_site_B_iso_or_equiv
  _atom_site_type_symbol
  C1       1.0000 0.67260  0.37840  0.66880  Biso   1.000  C
  C2       1.0000 0.65380  0.33300  0.59690  Biso   1.000  C
  C3       1.0000 0.58190  0.31170  0.66270  Biso   1.000  C
  C4       1.0000 0.71470  0.41830  0.70440  Biso   1.000  C
  C5       1.0000 0.69680  0.42660  0.75320  Biso   1.000  C
  H1       1.0000 0.65990  0.40480  0.76720  Biso   1.000  H
  C6       1.0000 0.73460  0.46790  0.78090  Biso   1.000  C
  H2       1.0000 0.71980  0.47460  0.81370  Biso   1.000  H
  C7       1.0000 0.80870  0.49530  0.71720  Biso   1.000  C
  H3       1.0000 0.84470  0.51970  0.70480  Biso   1.000  H
  C8       1.0000 0.77120  0.45070  0.68240  Biso   1.000  C
  H4       1.0000 0.78420  0.44490  0.64910  Biso   1.000  H
  C9       1.0000 0.66230  0.32080  0.54260  Biso   1.000  C
  C10      1.0000 0.71690  0.35830  0.52030  Biso   1.000  C
  H5       1.0000 0.74030  0.38830  0.53920  Biso   1.000  H
  C11      1.0000 0.73400  0.34820  0.46820  Biso   1.000  C
  H6       1.0000 0.76800  0.37260  0.45300  Biso   1.000  H
  C12      1.0000 0.64550  0.27000  0.46440  Biso   1.000  C
  H7       1.0000 0.61580  0.24540  0.44520  Biso   1.000  H
  C13      1.0000 0.63420  0.27370  0.51560  Biso   1.000  C
  H8       1.0000 0.60710  0.24350  0.53140  Biso   1.000  H
  C14      1.0000 0.52320  0.27800  0.68240  Biso   1.000  C
  C15      1.0000 0.49310  0.22950  0.65710  Biso   1.000  C
  H9       1.0000 0.51070  0.21700  0.62620  Biso   1.000  H
  C16      1.0000 0.43560  0.19820  0.67740  Biso   1.000  C
  H10      1.0000 0.41620  0.16450  0.66010  Biso   1.000  H
  C17      1.0000 0.43970  0.25860  0.74710  Biso   1.000  C
  H11      1.0000 0.42370  0.26860  0.77900  Biso   1.000  H
  C18      1.0000 0.49570  0.29030  0.73140  Biso   1.000  C
  H12      1.0000 0.51640  0.32000  0.75220  Biso   1.000  H
  C19      1.0000 0.94420  0.55980  0.02210  Biso   1.000  C
  C20      1.0000 0.94490  0.52230  0.10220  Biso   1.000  C
  C21      1.0000 0.02020  0.59580  0.07690  Biso   1.000  C
  C22      1.0000 0.92220  0.55910  0.96830  Biso   1.000  C
  C23      1.0000 0.95670  0.59350  0.93010  Biso   1.000  C
  H13      1.0000 0.99700  0.61540  0.93730  Biso   1.000  H
  C24      1.0000 0.93090  0.59380  0.88410  Biso   1.000  C
  H14      1.0000 0.95200  0.61980  0.86060  Biso   1.000  H
  C25      1.0000 0.84540  0.52270  0.90460  Biso   1.000  C
  H15      1.0000 0.80790  0.49800  0.89540  Biso   1.000  H
  C26      1.0000 0.86720  0.52000  0.95470  Biso   1.000  C
  H16      1.0000 0.84610  0.49340  0.97790  Biso   1.000  H
  C27      1.0000 0.91150  0.48290  0.13870  Biso   1.000  C
  C28      1.0000 0.85290  0.44240  0.12470  Biso   1.000  C
  H17      1.0000 0.83290  0.44570  0.09310  Biso   1.000  H
  C29      1.0000 0.82960  0.40200  0.15740  Biso   1.000  C
  H18      1.0000 0.79310  0.37620  0.14800  Biso   1.000  H
  C30      1.0000 0.91260  0.43470  0.21940  Biso   1.000  C
  H19      1.0000 0.92990  0.43230  0.25190  Biso   1.000  H
  C31      1.0000 0.94180  0.47570  0.18680  Biso   1.000  C
  H20      1.0000 0.98080  0.49850  0.19570  Biso   1.000  H
  C32      1.0000 0.08120  0.63690  0.08920  Biso   1.000  C
  C33      1.0000 0.11760  0.63450  0.13750  Biso   1.000  C
  H21      1.0000 0.10420  0.60610  0.16230  Biso   1.000  H
  C34      1.0000 0.16750  0.67170  0.14470  Biso   1.000  C
  H22      1.0000 0.19010  0.66840  0.17540  Biso   1.000  H
  C35      1.0000 0.15570  0.72200  0.07120  Biso   1.000  C
  H23      1.0000 0.16490  0.75670  0.05090  Biso   1.000  H
  C36      1.0000 0.10330  0.67830  0.05570  Biso   1.000  C
  H24      1.0000 0.08560  0.67910  0.02330  Biso   1.000  H
  Cu1      1.0000 0.82951  0.57419  0.80198  Biso   1.000  Cu
  Cu2      1.0000 0.72691  0.27774  0.37161  Biso   1.000  Cu
  I1       1.0000 0.84871  0.63036  0.60063  Biso   1.000  I
  N1       1.0000 0.69330  0.37140  0.62350  Biso   1.000  N
  N2       1.0000 0.59620  0.30010  0.61580  Biso   1.000  N
  N3       1.0000 0.61700  0.34960  0.69120  Biso   1.000  N
  N4       1.0000 0.79080  0.50030  0.76650  Biso   1.000  N
  N5       1.0000 0.69910  0.30120  0.44010  Biso   1.000  N
  N6       1.0000 0.40690  0.21760  0.72400  Biso   1.000  N
  N7       1.0000 0.91750  0.52080  0.05440  Biso   1.000  N
  N8       1.0000 0.99690  0.56010  0.11490  Biso   1.000  N
  N9       1.0000 0.00300  0.59650  0.03120  Biso   1.000  N
  N10      1.0000 0.87530  0.55910  0.86830  Biso   1.000  N
  Cu3      1.0000 0.31985  0.17349  0.74619  Biso   1.000  Cu
  N11      1.0000 0.85650  0.39530  0.20600  Biso   1.000  N
  N12      1.0000 0.19140  0.71520  0.11310  Biso   1.000  N
  Cu4      1.0000 0.83832  0.66535  0.68398  Biso   1.000  Cu
  S1       1.0000 0.89719  0.63725  0.75254  Biso   1.000  S
  S2       1.0000 0.24317  0.23566  0.78789  Biso   1.000  S
  S3       1.0000 0.73795  0.63894  0.82376  Biso   1.000  S
  S4       1.0000 0.64801  0.22610  0.32447  Biso   1.000  S
  W1       1.0000 0.81294  0.69792  0.77736  Biso   1.000  W
  C37      1.0000 0.82740  0.62160  0.16880  Biso   1.000  C
  C38      1.0000 0.84620  0.66700  0.09690  Biso   1.000  C
  C39      1.0000 0.91810  0.68830  0.16270  Biso   1.000  C
  C40      1.0000 0.78530  0.58170  0.20440  Biso   1.000  C
  C41      1.0000 0.80320  0.57340  0.25320  Biso   1.000  C
  H25      1.0000 0.84010  0.59520  0.26720  Biso   1.000  H
  C42      1.0000 0.76540  0.53210  0.28090  Biso   1.000  C
  H26      1.0000 0.78020  0.52540  0.31370  Biso   1.000  H
  C43      1.0000 0.69130  0.50470  0.21720  Biso   1.000  C
  H27      1.0000 0.65530  0.48030  0.20480  Biso   1.000  H
  C44      1.0000 0.72880  0.54930  0.18240  Biso   1.000  C
  H28      1.0000 0.71580  0.55510  0.14910  Biso   1.000  H
  C45      1.0000 0.83770  0.67920  0.04260  Biso   1.000  C
  C46      1.0000 0.78310  0.64170  0.02030  Biso   1.000  C
  H29      1.0000 0.75970  0.61170  0.03920  Biso   1.000  H
  C47      1.0000 0.76600  0.65180  0.96820  Biso   1.000  C
  H30      1.0000 0.73200  0.62740  0.95300  Biso   1.000  H
  C48      1.0000 0.85450  0.73000  0.96440  Biso   1.000  C
  H31      1.0000 0.88420  0.75460  0.94520  Biso   1.000  H
  C49      1.0000 0.86580  0.72630  0.01560  Biso   1.000  C
  H32      1.0000 0.89290  0.75650  0.03140  Biso   1.000  H
  C50      1.0000 0.97680  0.72200  0.18240  Biso   1.000  C
  C51      1.0000 0.00690  0.77050  0.15710  Biso   1.000  C
  H33      1.0000 0.98930  0.78300  0.12620  Biso   1.000  H
  C52      1.0000 0.06440  0.80180  0.17740  Biso   1.000  C
  H34      1.0000 0.08380  0.83550  0.16010  Biso   1.000  H
  C53      1.0000 0.06030  0.74140  0.24710  Biso   1.000  C
  H35      1.0000 0.07630  0.73140  0.27900  Biso   1.000  H
  C54      1.0000 0.00430  0.70970  0.23140  Biso   1.000  C
  H36      1.0000 0.98360  0.68000  0.25220  Biso   1.000  H
  C55      1.0000 0.55580  0.44020  0.52210  Biso   1.000  C
  C56      1.0000 0.55510  0.47770  0.60220  Biso   1.000  C
  C57      1.0000 0.47980  0.40420  0.57690  Biso   1.000  C
  C58      1.0000 0.57780  0.44090  0.46830  Biso   1.000  C
  C59      1.0000 0.54330  0.40650  0.43010  Biso   1.000  C
  H37      1.0000 0.50300  0.38460  0.43730  Biso   1.000  H
  C60      1.0000 0.56910  0.40620  0.38410  Biso   1.000  C
  H38      1.0000 0.54800  0.38020  0.36060  Biso   1.000  H
  C61      1.0000 0.65460  0.47730  0.40460  Biso   1.000  C
  H39      1.0000 0.69210  0.50200  0.39540  Biso   1.000  H
  C62      1.0000 0.63280  0.48000  0.45470  Biso   1.000  C
  H40      1.0000 0.65390  0.50660  0.47790  Biso   1.000  H
  C63      1.0000 0.58850  0.51710  0.63870  Biso   1.000  C
  C64      1.0000 0.64710  0.55760  0.62470  Biso   1.000  C
  H41      1.0000 0.66710  0.55430  0.59310  Biso   1.000  H
  C65      1.0000 0.67040  0.59800  0.65740  Biso   1.000  C
  H42      1.0000 0.70690  0.62380  0.64800  Biso   1.000  H
  C66      1.0000 0.58740  0.56530  0.71940  Biso   1.000  C
  H43      1.0000 0.57010  0.56770  0.75190  Biso   1.000  H
  C67      1.0000 0.55820  0.52430  0.68680  Biso   1.000  C
  H44      1.0000 0.51920  0.50150  0.69570  Biso   1.000  H
  C68      1.0000 0.41880  0.36310  0.58920  Biso   1.000  C
  C69      1.0000 0.38240  0.36550  0.63750  Biso   1.000  C
  H45      1.0000 0.39580  0.39390  0.66230  Biso   1.000  H
  C70      1.0000 0.33250  0.32830  0.64470  Biso   1.000  C
  H46      1.0000 0.30990  0.33160  0.67540  Biso   1.000  H
  C71      1.0000 0.34430  0.27800  0.57120  Biso   1.000  C
  H47      1.0000 0.33510  0.24330  0.55090  Biso   1.000  H
  C72      1.0000 0.39670  0.32170  0.55570  Biso   1.000  C
  H48      1.0000 0.41440  0.32090  0.52330  Biso   1.000  H
  Cu5      1.0000 0.67049  0.42581  0.30198  Biso   1.000  Cu
  Cu6      1.0000 0.77309  0.72226  0.87161  Biso   1.000  Cu
  I2       1.0000 0.65129  0.36964  0.10063  Biso   1.000  I
  N13      1.0000 0.80670  0.62860  0.12350  Biso   1.000  N
  N14      1.0000 0.90380  0.69990  0.11580  Biso   1.000  N
  N15      1.0000 0.88300  0.65040  0.19120  Biso   1.000  N
  N16      1.0000 0.70920  0.49970  0.26650  Biso   1.000  N
  N17      1.0000 0.80090  0.69880  0.94010  Biso   1.000  N
  N18      1.0000 0.09310  0.78240  0.22400  Biso   1.000  N
  N19      1.0000 0.58250  0.47920  0.55440  Biso   1.000  N
  N20      1.0000 0.50310  0.43990  0.61490  Biso   1.000  N
  N21      1.0000 0.49700  0.40350  0.53120  Biso   1.000  N
  N22      1.0000 0.62470  0.44090  0.36830  Biso   1.000  N
  Cu7      1.0000 0.18015  0.82651  0.24619  Biso   1.000  Cu
  N23      1.0000 0.64350  0.60470  0.70600  Biso   1.000  N
  N24      1.0000 0.30860  0.28480  0.61310  Biso   1.000  N
  Cu8      1.0000 0.66168  0.33465  0.18398  Biso   1.000  Cu
  S5       1.0000 0.60281  0.36275  0.25254  Biso   1.000  S
  S6       1.0000 0.25683  0.76434  0.28789  Biso   1.000  S
  S7       1.0000 0.76205  0.36106  0.32376  Biso   1.000  S
  S8       1.0000 0.85199  0.77390  0.82447  Biso   1.000  S
  W2       1.0000 0.68706  0.30208  0.27736  Biso   1.000  W
  C73      1.0000 0.32740  0.87840  0.83120  Biso   1.000  C
  C74      1.0000 0.34620  0.83300  0.90310  Biso   1.000  C
  C75      1.0000 0.41810  0.81170  0.83730  Biso   1.000  C
  C76      1.0000 0.28530  0.91830  0.79560  Biso   1.000  C
  C77      1.0000 0.30320  0.92660  0.74680  Biso   1.000  C
  H49      1.0000 0.34010  0.90480  0.73280  Biso   1.000  H
  C78      1.0000 0.26540  0.96790  0.71910  Biso   1.000  C
  H50      1.0000 0.28020  0.97460  0.68630  Biso   1.000  H
  C79      1.0000 0.19130  0.99530  0.78280  Biso   1.000  C
  H51      1.0000 0.15530  0.01970  0.79520  Biso   1.000  H
  C80      1.0000 0.22880  0.95070  0.81760  Biso   1.000  C
  H52      1.0000 0.21580  0.94490  0.85090  Biso   1.000  H
  C81      1.0000 0.33770  0.82080  0.95740  Biso   1.000  C
  C82      1.0000 0.28310  0.85830  0.97970  Biso   1.000  C
  H53      1.0000 0.25970  0.88830  0.96080  Biso   1.000  H
  C83      1.0000 0.26600  0.84820  0.03180  Biso   1.000  C
  H54      1.0000 0.23200  0.87260  0.04700  Biso   1.000  H
  C84      1.0000 0.35450  0.77000  0.03560  Biso   1.000  C
  H55      1.0000 0.38420  0.74540  0.05480  Biso   1.000  H
  C85      1.0000 0.36580  0.77370  0.98440  Biso   1.000  C
  H56      1.0000 0.39290  0.74350  0.96860  Biso   1.000  H
  C86      1.0000 0.47680  0.77800  0.81760  Biso   1.000  C
  C87      1.0000 0.50690  0.72950  0.84290  Biso   1.000  C
  H57      1.0000 0.48930  0.71700  0.87380  Biso   1.000  H
  C88      1.0000 0.56440  0.69820  0.82260  Biso   1.000  C
  H58      1.0000 0.58380  0.66450  0.83990  Biso   1.000  H
  C89      1.0000 0.56030  0.75860  0.75290  Biso   1.000  C
  H59      1.0000 0.57630  0.76860  0.72100  Biso   1.000  H
  C90      1.0000 0.50430  0.79030  0.76860  Biso   1.000  C
  H60      1.0000 0.48360  0.82000  0.74780  Biso   1.000  H
  C91      1.0000 0.05580  0.05980  0.47790  Biso   1.000  C
  C92      1.0000 0.05510  0.02230  0.39780  Biso   1.000  C
  C93      1.0000 0.97980  0.09580  0.42310  Biso   1.000  C
  C94      1.0000 0.07780  0.05910  0.53170  Biso   1.000  C
  C95      1.0000 0.04330  0.09350  0.56990  Biso   1.000  C
  H61      1.0000 0.00300  0.11540  0.56270  Biso   1.000  H
  C96      1.0000 0.06910  0.09380  0.61590  Biso   1.000  C
  H62      1.0000 0.04800  0.11980  0.63940  Biso   1.000  H
  C97      1.0000 0.15460  0.02270  0.59540  Biso   1.000  C
  H63      1.0000 0.19210  0.99800  0.60460  Biso   1.000  H
  C98      1.0000 0.13280  0.02000  0.54530  Biso   1.000  C
  H64      1.0000 0.15390  0.99340  0.52210  Biso   1.000  H
  C99      1.0000 0.08850  0.98290  0.36130  Biso   1.000  C
  C100     1.0000 0.14710  0.94240  0.37530  Biso   1.000  C
  H65      1.0000 0.16710  0.94570  0.40690  Biso   1.000  H
  C101     1.0000 0.17040  0.90200  0.34260  Biso   1.000  C
  H66      1.0000 0.20690  0.87620  0.35200  Biso   1.000  H
  C102     1.0000 0.08740  0.93470  0.28060  Biso   1.000  C
  H67      1.0000 0.07010  0.93230  0.24810  Biso   1.000  H
  C103     1.0000 0.05820  0.97570  0.31320  Biso   1.000  C
  H68      1.0000 0.01920  0.99850  0.30430  Biso   1.000  H
  C104     1.0000 0.91880  0.13690  0.41080  Biso   1.000  C
  C105     1.0000 0.88240  0.13450  0.36250  Biso   1.000  C
  H69      1.0000 0.89580  0.10610  0.33770  Biso   1.000  H
  C106     1.0000 0.83250  0.17170  0.35530  Biso   1.000  C
  H70      1.0000 0.80990  0.16840  0.32460  Biso   1.000  H
  C107     1.0000 0.84430  0.22200  0.42880  Biso   1.000  C
  H71      1.0000 0.83510  0.25670  0.44910  Biso   1.000  H
  C108     1.0000 0.89670  0.17830  0.44430  Biso   1.000  C
  H72      1.0000 0.91440  0.17910  0.47670  Biso   1.000  H
  Cu9      1.0000 0.17049  0.07419  0.69802  Biso   1.000  Cu
  Cu10     1.0000 0.27309  0.77774  0.12839  Biso   1.000  Cu
  I3       1.0000 0.15129  0.13036  0.89937  Biso   1.000  I
  N25      1.0000 0.30670  0.87140  0.87650  Biso   1.000  N
  N26      1.0000 0.40380  0.80010  0.88420  Biso   1.000  N
  N27      1.0000 0.38300  0.84960  0.80880  Biso   1.000  N
  N28      1.0000 0.20920  0.00030  0.73350  Biso   1.000  N
  N29      1.0000 0.30090  0.80120  0.05990  Biso   1.000  N
  N30      1.0000 0.59310  0.71760  0.77600  Biso   1.000  N
  N31      1.0000 0.08250  0.02080  0.44560  Biso   1.000  N
  N32      1.0000 0.00310  0.06010  0.38510  Biso   1.000  N
  N33      1.0000 0.99700  0.09650  0.46880  Biso   1.000  N
  N34      1.0000 0.12470  0.05910  0.63170  Biso   1.000  N
  Cu11     1.0000 0.68015  0.67349  0.75381  Biso   1.000  Cu
  N35      1.0000 0.14350  0.89530  0.29400  Biso   1.000  N
  N36      1.0000 0.80860  0.21520  0.38690  Biso   1.000  N
  Cu12     1.0000 0.16168  0.16535  0.81602  Biso   1.000  Cu
  S9       1.0000 0.10281  0.13725  0.74746  Biso   1.000  S
  S10      1.0000 0.75683  0.73566  0.71211  Biso   1.000  S
  S11      1.0000 0.26205  0.13894  0.67624  Biso   1.000  S
  S12      1.0000 0.35199  0.72610  0.17553  Biso   1.000  S
  W3       1.0000 0.18706  0.19792  0.72264  Biso   1.000  W
  C109     1.0000 0.17260  0.12160  0.33120  Biso   1.000  C
  C110     1.0000 0.15380  0.16700  0.40310  Biso   1.000  C
  C111     1.0000 0.08190  0.18830  0.33730  Biso   1.000  C
  C112     1.0000 0.21470  0.08170  0.29560  Biso   1.000  C
  C113     1.0000 0.19680  0.07340  0.24680  Biso   1.000  C
  H73      1.0000 0.15990  0.09520  0.23280  Biso   1.000  H
  C114     1.0000 0.23460  0.03210  0.21910  Biso   1.000  C
  H74      1.0000 0.21980  0.02540  0.18630  Biso   1.000  H
  C115     1.0000 0.30870  0.00470  0.28280  Biso   1.000  C
  H75      1.0000 0.34470  0.98030  0.29520  Biso   1.000  H
  C116     1.0000 0.27120  0.04930  0.31760  Biso   1.000  C
  H76      1.0000 0.28420  0.05510  0.35090  Biso   1.000  H
  C117     1.0000 0.16230  0.17920  0.45740  Biso   1.000  C
  C118     1.0000 0.21690  0.14170  0.47970  Biso   1.000  C
  H77      1.0000 0.24030  0.11170  0.46080  Biso   1.000  H
  C119     1.0000 0.23400  0.15180  0.53180  Biso   1.000  C
  H78      1.0000 0.26800  0.12740  0.54700  Biso   1.000  H
  C120     1.0000 0.14550  0.23000  0.53560  Biso   1.000  C
  H79      1.0000 0.11580  0.25460  0.55480  Biso   1.000  H
  C121     1.0000 0.13420  0.22630  0.48440  Biso   1.000  C
  H80      1.0000 0.10710  0.25650  0.46860  Biso   1.000  H
  C122     1.0000 0.02320  0.22200  0.31760  Biso   1.000  C
  C123     1.0000 0.99310  0.27050  0.34290  Biso   1.000  C
  H81      1.0000 0.01070  0.28300  0.37380  Biso   1.000  H
  C124     1.0000 0.93560  0.30180  0.32260  Biso   1.000  C
  H82      1.0000 0.91620  0.33550  0.33990  Biso   1.000  H
  C125     1.0000 0.93970  0.24140  0.25290  Biso   1.000  C
  H83      1.0000 0.92370  0.23140  0.22100  Biso   1.000  H
  C126     1.0000 0.99570  0.20970  0.26860  Biso   1.000  C
  H84      1.0000 0.01640  0.18000  0.24780  Biso   1.000  H
  C127     1.0000 0.44420  0.94020  0.97790  Biso   1.000  C
  C128     1.0000 0.44490  0.97770  0.89780  Biso   1.000  C
  C129     1.0000 0.52020  0.90420  0.92310  Biso   1.000  C
  C130     1.0000 0.42220  0.94090  0.03170  Biso   1.000  C
  C131     1.0000 0.45670  0.90650  0.06990  Biso   1.000  C
  H85      1.0000 0.49700  0.88460  0.06270  Biso   1.000  H
  C132     1.0000 0.43090  0.90620  0.11590  Biso   1.000  C
  H86      1.0000 0.45200  0.88020  0.13940  Biso   1.000  H
  C133     1.0000 0.34540  0.97730  0.09540  Biso   1.000  C
  H87      1.0000 0.30790  0.00200  0.10460  Biso   1.000  H
  C134     1.0000 0.36720  0.98000  0.04530  Biso   1.000  C
  H88      1.0000 0.34610  0.00660  0.02210  Biso   1.000  H
  C135     1.0000 0.41150  0.01710  0.86130  Biso   1.000  C
  C136     1.0000 0.35290  0.05760  0.87530  Biso   1.000  C
  H89      1.0000 0.33290  0.05430  0.90690  Biso   1.000  H
  C137     1.0000 0.32960  0.09800  0.84260  Biso   1.000  C
  H90      1.0000 0.29310  0.12380  0.85200  Biso   1.000  H
  C138     1.0000 0.41260  0.06530  0.78060  Biso   1.000  C
  H91      1.0000 0.42990  0.06770  0.74810  Biso   1.000  H
  C139     1.0000 0.44180  0.02430  0.81320  Biso   1.000  C
  H92      1.0000 0.48080  0.00150  0.80430  Biso   1.000  H
  C140     1.0000 0.58120  0.86310  0.91080  Biso   1.000  C
  C141     1.0000 0.61760  0.86550  0.86250  Biso   1.000  C
  H93      1.0000 0.60420  0.89390  0.83770  Biso   1.000  H
  C142     1.0000 0.66750  0.82830  0.85530  Biso   1.000  C
  H94      1.0000 0.69010  0.83160  0.82460  Biso   1.000  H
  C143     1.0000 0.65570  0.77800  0.92880  Biso   1.000  C
  H95      1.0000 0.66490  0.74330  0.94910  Biso   1.000  H
  C144     1.0000 0.60330  0.82170  0.94430  Biso   1.000  C
  H96      1.0000 0.58560  0.82090  0.97670  Biso   1.000  H
  Cu13     1.0000 0.32951  0.92581  0.19802  Biso   1.000  Cu
  Cu14     1.0000 0.22691  0.22226  0.62839  Biso   1.000  Cu
  I4       1.0000 0.34871  0.86964  0.39937  Biso   1.000  I
  N37      1.0000 0.19330  0.12860  0.37650  Biso   1.000  N
  N38      1.0000 0.09620  0.19990  0.38420  Biso   1.000  N
  N39      1.0000 0.11700  0.15040  0.30880  Biso   1.000  N
  N40      1.0000 0.29080  0.99970  0.23350  Biso   1.000  N
  N41      1.0000 0.19910  0.19880  0.55990  Biso   1.000  N
  N42      1.0000 0.90690  0.28240  0.27600  Biso   1.000  N
  N43      1.0000 0.41750  0.97920  0.94560  Biso   1.000  N
  N44      1.0000 0.49690  0.93990  0.88510  Biso   1.000  N
  N45      1.0000 0.50300  0.90350  0.96880  Biso   1.000  N
  N46      1.0000 0.37530  0.94090  0.13170  Biso   1.000  N
  Cu15     1.0000 0.81985  0.32651  0.25381  Biso   1.000  Cu
  N47      1.0000 0.35650  0.10470  0.79400  Biso   1.000  N
  N48      1.0000 0.69140  0.78480  0.88690  Biso   1.000  N
  Cu16     1.0000 0.33832  0.83465  0.31602  Biso   1.000  Cu
  S13      1.0000 0.39719  0.86275  0.24746  Biso   1.000  S
  S14      1.0000 0.74317  0.26434  0.21211  Biso   1.000  S
  S15      1.0000 0.23795  0.86106  0.17624  Biso   1.000  S
  S16      1.0000 0.14801  0.27390  0.67553  Biso   1.000  S
  W4       1.0000 0.31294  0.80208  0.22264  Biso   1.000  W
  C145     1.0000 0.32740  0.62160  0.33120  Biso   1.000  C
  C146     1.0000 0.34620  0.66700  0.40310  Biso   1.000  C
  C147     1.0000 0.41810  0.68830  0.33730  Biso   1.000  C
  C148     1.0000 0.28530  0.58170  0.29560  Biso   1.000  C
  C149     1.0000 0.30320  0.57340  0.24680  Biso   1.000  C
  H97      1.0000 0.34010  0.59520  0.23280  Biso   1.000  H
  C150     1.0000 0.26540  0.53210  0.21910  Biso   1.000  C
  H98      1.0000 0.28020  0.52540  0.18630  Biso   1.000  H
  C151     1.0000 0.19130  0.50470  0.28280  Biso   1.000  C
  H99      1.0000 0.15530  0.48030  0.29520  Biso   1.000  H
  C152     1.0000 0.22880  0.54930  0.31760  Biso   1.000  C
  H100     1.0000 0.21580  0.55510  0.35090  Biso   1.000  H
  C153     1.0000 0.33770  0.67920  0.45740  Biso   1.000  C
  C154     1.0000 0.28310  0.64170  0.47970  Biso   1.000  C
  H101     1.0000 0.25970  0.61170  0.46080  Biso   1.000  H
  C155     1.0000 0.26600  0.65180  0.53180  Biso   1.000  C
  H102     1.0000 0.23200  0.62740  0.54700  Biso   1.000  H
  C156     1.0000 0.35450  0.73000  0.53560  Biso   1.000  C
  H103     1.0000 0.38420  0.75460  0.55480  Biso   1.000  H
  C157     1.0000 0.36580  0.72630  0.48440  Biso   1.000  C
  H104     1.0000 0.39290  0.75650  0.46860  Biso   1.000  H
  C158     1.0000 0.47680  0.72200  0.31760  Biso   1.000  C
  C159     1.0000 0.50690  0.77050  0.34290  Biso   1.000  C
  H105     1.0000 0.48930  0.78300  0.37380  Biso   1.000  H
  C160     1.0000 0.56440  0.80180  0.32260  Biso   1.000  C
  H106     1.0000 0.58380  0.83550  0.33990  Biso   1.000  H
  C161     1.0000 0.56030  0.74140  0.25290  Biso   1.000  C
  H107     1.0000 0.57630  0.73140  0.22100  Biso   1.000  H
  C162     1.0000 0.50430  0.70970  0.26860  Biso   1.000  C
  H108     1.0000 0.48360  0.68000  0.24780  Biso   1.000  H
  C163     1.0000 0.05580  0.44020  0.97790  Biso   1.000  C
  C164     1.0000 0.05510  0.47770  0.89780  Biso   1.000  C
  C165     1.0000 0.97980  0.40420  0.92310  Biso   1.000  C
  C166     1.0000 0.07780  0.44090  0.03170  Biso   1.000  C
  C167     1.0000 0.04330  0.40650  0.06990  Biso   1.000  C
  H109     1.0000 0.00300  0.38460  0.06270  Biso   1.000  H
  C168     1.0000 0.06910  0.40620  0.11590  Biso   1.000  C
  H110     1.0000 0.04800  0.38020  0.13940  Biso   1.000  H
  C169     1.0000 0.15460  0.47730  0.09540  Biso   1.000  C
  H111     1.0000 0.19210  0.50200  0.10460  Biso   1.000  H
  C170     1.0000 0.13280  0.48000  0.04530  Biso   1.000  C
  H112     1.0000 0.15390  0.50660  0.02210  Biso   1.000  H
  C171     1.0000 0.08850  0.51710  0.86130  Biso   1.000  C
  C172     1.0000 0.14710  0.55760  0.87530  Biso   1.000  C
  H113     1.0000 0.16710  0.55430  0.90690  Biso   1.000  H
  C173     1.0000 0.17040  0.59800  0.84260  Biso   1.000  C
  H114     1.0000 0.20690  0.62380  0.85200  Biso   1.000  H
  C174     1.0000 0.08740  0.56530  0.78060  Biso   1.000  C
  H115     1.0000 0.07010  0.56770  0.74810  Biso   1.000  H
  C175     1.0000 0.05820  0.52430  0.81320  Biso   1.000  C
  H116     1.0000 0.01920  0.50150  0.80430  Biso   1.000  H
  C176     1.0000 0.91880  0.36310  0.91080  Biso   1.000  C
  C177     1.0000 0.88240  0.36550  0.86250  Biso   1.000  C
  H117     1.0000 0.89580  0.39390  0.83770  Biso   1.000  H
  C178     1.0000 0.83250  0.32830  0.85530  Biso   1.000  C
  H118     1.0000 0.80990  0.33160  0.82460  Biso   1.000  H
  C179     1.0000 0.84430  0.27800  0.92880  Biso   1.000  C
  H119     1.0000 0.83510  0.24330  0.94910  Biso   1.000  H
  C180     1.0000 0.89670  0.32170  0.94430  Biso   1.000  C
  H120     1.0000 0.91440  0.32090  0.97670  Biso   1.000  H
  Cu17     1.0000 0.17049  0.42581  0.19802  Biso   1.000  Cu
  Cu18     1.0000 0.27309  0.72226  0.62839  Biso   1.000  Cu
  I5       1.0000 0.15129  0.36964  0.39937  Biso   1.000  I
  N49      1.0000 0.30670  0.62860  0.37650  Biso   1.000  N
  N50      1.0000 0.40380  0.69990  0.38420  Biso   1.000  N
  N51      1.0000 0.38300  0.65040  0.30880  Biso   1.000  N
  N52      1.0000 0.20920  0.49970  0.23350  Biso   1.000  N
  N53      1.0000 0.30090  0.69880  0.55990  Biso   1.000  N
  N54      1.0000 0.59310  0.78240  0.27600  Biso   1.000  N
  N55      1.0000 0.08250  0.47920  0.94560  Biso   1.000  N
  N56      1.0000 0.00310  0.43990  0.88510  Biso   1.000  N
  N57      1.0000 0.99700  0.40350  0.96880  Biso   1.000  N
  N58      1.0000 0.12470  0.44090  0.13170  Biso   1.000  N
  Cu19     1.0000 0.68015  0.82651  0.25381  Biso   1.000  Cu
  N59      1.0000 0.14350  0.60470  0.79400  Biso   1.000  N
  N60      1.0000 0.80860  0.28480  0.88690  Biso   1.000  N
  Cu20     1.0000 0.16168  0.33465  0.31602  Biso   1.000  Cu
  S17      1.0000 0.10281  0.36275  0.24746  Biso   1.000  S
  S18      1.0000 0.75683  0.76434  0.21211  Biso   1.000  S
  S19      1.0000 0.26205  0.36106  0.17624  Biso   1.000  S
  S20      1.0000 0.35199  0.77390  0.67553  Biso   1.000  S
  W5       1.0000 0.18706  0.30208  0.22264  Biso   1.000  W
  C181     1.0000 0.17260  0.37840  0.83120  Biso   1.000  C
  C182     1.0000 0.15380  0.33300  0.90310  Biso   1.000  C
  C183     1.0000 0.08190  0.31170  0.83730  Biso   1.000  C
  C184     1.0000 0.21470  0.41830  0.79560  Biso   1.000  C
  C185     1.0000 0.19680  0.42660  0.74680  Biso   1.000  C
  H121     1.0000 0.15990  0.40480  0.73280  Biso   1.000  H
  C186     1.0000 0.23460  0.46790  0.71910  Biso   1.000  C
  H122     1.0000 0.21980  0.47460  0.68630  Biso   1.000  H
  C187     1.0000 0.30870  0.49530  0.78280  Biso   1.000  C
  H123     1.0000 0.34470  0.51970  0.79520  Biso   1.000  H
  C188     1.0000 0.27120  0.45070  0.81760  Biso   1.000  C
  H124     1.0000 0.28420  0.44490  0.85090  Biso   1.000  H
  C189     1.0000 0.16230  0.32080  0.95740  Biso   1.000  C
  C190     1.0000 0.21690  0.35830  0.97970  Biso   1.000  C
  H125     1.0000 0.24030  0.38830  0.96080  Biso   1.000  H
  C191     1.0000 0.23400  0.34820  0.03180  Biso   1.000  C
  H126     1.0000 0.26800  0.37260  0.04700  Biso   1.000  H
  C192     1.0000 0.14550  0.27000  0.03560  Biso   1.000  C
  H127     1.0000 0.11580  0.24540  0.05480  Biso   1.000  H
  C193     1.0000 0.13420  0.27370  0.98440  Biso   1.000  C
  H128     1.0000 0.10710  0.24350  0.96860  Biso   1.000  H
  C194     1.0000 0.02320  0.27800  0.81760  Biso   1.000  C
  C195     1.0000 0.99310  0.22950  0.84290  Biso   1.000  C
  H129     1.0000 0.01070  0.21700  0.87380  Biso   1.000  H
  C196     1.0000 0.93560  0.19820  0.82260  Biso   1.000  C
  H130     1.0000 0.91620  0.16450  0.83990  Biso   1.000  H
  C197     1.0000 0.93970  0.25860  0.75290  Biso   1.000  C
  H131     1.0000 0.92370  0.26860  0.72100  Biso   1.000  H
  C198     1.0000 0.99570  0.29030  0.76860  Biso   1.000  C
  H132     1.0000 0.01640  0.32000  0.74780  Biso   1.000  H
  C199     1.0000 0.44420  0.55980  0.47790  Biso   1.000  C
  C200     1.0000 0.44490  0.52230  0.39780  Biso   1.000  C
  C201     1.0000 0.52020  0.59580  0.42310  Biso   1.000  C
  C202     1.0000 0.42220  0.55910  0.53170  Biso   1.000  C
  C203     1.0000 0.45670  0.59350  0.56990  Biso   1.000  C
  H133     1.0000 0.49700  0.61540  0.56270  Biso   1.000  H
  C204     1.0000 0.43090  0.59380  0.61590  Biso   1.000  C
  H134     1.0000 0.45200  0.61980  0.63940  Biso   1.000  H
  C205     1.0000 0.34540  0.52270  0.59540  Biso   1.000  C
  H135     1.0000 0.30790  0.49800  0.60460  Biso   1.000  H
  C206     1.0000 0.36720  0.52000  0.54530  Biso   1.000  C
  H136     1.0000 0.34610  0.49340  0.52210  Biso   1.000  H
  C207     1.0000 0.41150  0.48290  0.36130  Biso   1.000  C
  C208     1.0000 0.35290  0.44240  0.37530  Biso   1.000  C
  H137     1.0000 0.33290  0.44570  0.40690  Biso   1.000  H
  C209     1.0000 0.32960  0.40200  0.34260  Biso   1.000  C
  H138     1.0000 0.29310  0.37620  0.35200  Biso   1.000  H
  C210     1.0000 0.41260  0.43470  0.28060  Biso   1.000  C
  H139     1.0000 0.42990  0.43230  0.24810  Biso   1.000  H
  C211     1.0000 0.44180  0.47570  0.31320  Biso   1.000  C
  H140     1.0000 0.48080  0.49850  0.30430  Biso   1.000  H
  C212     1.0000 0.58120  0.63690  0.41080  Biso   1.000  C
  C213     1.0000 0.61760  0.63450  0.36250  Biso   1.000  C
  H141     1.0000 0.60420  0.60610  0.33770  Biso   1.000  H
  C214     1.0000 0.66750  0.67170  0.35530  Biso   1.000  C
  H142     1.0000 0.69010  0.66840  0.32460  Biso   1.000  H
  C215     1.0000 0.65570  0.72200  0.42880  Biso   1.000  C
  H143     1.0000 0.66490  0.75670  0.44910  Biso   1.000  H
  C216     1.0000 0.60330  0.67830  0.44430  Biso   1.000  C
  H144     1.0000 0.58560  0.67910  0.47670  Biso   1.000  H
  Cu21     1.0000 0.32951  0.57419  0.69802  Biso   1.000  Cu
  Cu22     1.0000 0.22691  0.27774  0.12839  Biso   1.000  Cu
  I6       1.0000 0.34871  0.63036  0.89937  Biso   1.000  I
  N61      1.0000 0.19330  0.37140  0.87650  Biso   1.000  N
  N62      1.0000 0.09620  0.30010  0.88420  Biso   1.000  N
  N63      1.0000 0.11700  0.34960  0.80880  Biso   1.000  N
  N64      1.0000 0.29080  0.50030  0.73350  Biso   1.000  N
  N65      1.0000 0.19910  0.30120  0.05990  Biso   1.000  N
  N66      1.0000 0.90690  0.21760  0.77600  Biso   1.000  N
  N67      1.0000 0.41750  0.52080  0.44560  Biso   1.000  N
  N68      1.0000 0.49690  0.56010  0.38510  Biso   1.000  N
  N69      1.0000 0.50300  0.59650  0.46880  Biso   1.000  N
  N70      1.0000 0.37530  0.55910  0.63170  Biso   1.000  N
  Cu23     1.0000 0.81985  0.17349  0.75381  Biso   1.000  Cu
  N71      1.0000 0.35650  0.39530  0.29400  Biso   1.000  N
  N72      1.0000 0.69140  0.71520  0.38690  Biso   1.000  N
  Cu24     1.0000 0.33832  0.66535  0.81602  Biso   1.000  Cu
  S21      1.0000 0.39719  0.63725  0.74746  Biso   1.000  S
  S22      1.0000 0.74317  0.23566  0.71211  Biso   1.000  S
  S23      1.0000 0.23795  0.63894  0.67624  Biso   1.000  S
  S24      1.0000 0.14801  0.22610  0.17553  Biso   1.000  S
  W6       1.0000 0.31294  0.69792  0.72264  Biso   1.000  W
  C217     1.0000 0.67260  0.12160  0.16880  Biso   1.000  C
  C218     1.0000 0.65380  0.16700  0.09690  Biso   1.000  C
  C219     1.0000 0.58190  0.18830  0.16270  Biso   1.000  C
  C220     1.0000 0.71470  0.08170  0.20440  Biso   1.000  C
  C221     1.0000 0.69680  0.07340  0.25320  Biso   1.000  C
  H145     1.0000 0.65990  0.09520  0.26720  Biso   1.000  H
  C222     1.0000 0.73460  0.03210  0.28090  Biso   1.000  C
  H146     1.0000 0.71980  0.02540  0.31370  Biso   1.000  H
  C223     1.0000 0.80870  0.00470  0.21720  Biso   1.000  C
  H147     1.0000 0.84470  0.98030  0.20480  Biso   1.000  H
  C224     1.0000 0.77120  0.04930  0.18240  Biso   1.000  C
  H148     1.0000 0.78420  0.05510  0.14910  Biso   1.000  H
  C225     1.0000 0.66230  0.17920  0.04260  Biso   1.000  C
  C226     1.0000 0.71690  0.14170  0.02030  Biso   1.000  C
  H149     1.0000 0.74030  0.11170  0.03920  Biso   1.000  H
  C227     1.0000 0.73400  0.15180  0.96820  Biso   1.000  C
  H150     1.0000 0.76800  0.12740  0.95300  Biso   1.000  H
  C228     1.0000 0.64550  0.23000  0.96440  Biso   1.000  C
  H151     1.0000 0.61580  0.25460  0.94520  Biso   1.000  H
  C229     1.0000 0.63420  0.22630  0.01560  Biso   1.000  C
  H152     1.0000 0.60710  0.25650  0.03140  Biso   1.000  H
  C230     1.0000 0.52320  0.22200  0.18240  Biso   1.000  C
  C231     1.0000 0.49310  0.27050  0.15710  Biso   1.000  C
  H153     1.0000 0.51070  0.28300  0.12620  Biso   1.000  H
  C232     1.0000 0.43560  0.30180  0.17740  Biso   1.000  C
  H154     1.0000 0.41620  0.33550  0.16010  Biso   1.000  H
  C233     1.0000 0.43970  0.24140  0.24710  Biso   1.000  C
  H155     1.0000 0.42370  0.23140  0.27900  Biso   1.000  H
  C234     1.0000 0.49570  0.20970  0.23140  Biso   1.000  C
  H156     1.0000 0.51640  0.18000  0.25220  Biso   1.000  H
  C235     1.0000 0.94420  0.94020  0.52210  Biso   1.000  C
  C236     1.0000 0.94490  0.97770  0.60220  Biso   1.000  C
  C237     1.0000 0.02020  0.90420  0.57690  Biso   1.000  C
  C238     1.0000 0.92220  0.94090  0.46830  Biso   1.000  C
  C239     1.0000 0.95670  0.90650  0.43010  Biso   1.000  C
  H157     1.0000 0.99700  0.88460  0.43730  Biso   1.000  H
  C240     1.0000 0.93090  0.90620  0.38410  Biso   1.000  C
  H158     1.0000 0.95200  0.88020  0.36060  Biso   1.000  H
  C241     1.0000 0.84540  0.97730  0.40460  Biso   1.000  C
  H159     1.0000 0.80790  0.00200  0.39540  Biso   1.000  H
  C242     1.0000 0.86720  0.98000  0.45470  Biso   1.000  C
  H160     1.0000 0.84610  0.00660  0.47790  Biso   1.000  H
  C243     1.0000 0.91150  0.01710  0.63870  Biso   1.000  C
  C244     1.0000 0.85290  0.05760  0.62470  Biso   1.000  C
  H161     1.0000 0.83290  0.05430  0.59310  Biso   1.000  H
  C245     1.0000 0.82960  0.09800  0.65740  Biso   1.000  C
  H162     1.0000 0.79310  0.12380  0.64800  Biso   1.000  H
  C246     1.0000 0.91260  0.06530  0.71940  Biso   1.000  C
  H163     1.0000 0.92990  0.06770  0.75190  Biso   1.000  H
  C247     1.0000 0.94180  0.02430  0.68680  Biso   1.000  C
  H164     1.0000 0.98080  0.00150  0.69570  Biso   1.000  H
  C248     1.0000 0.08120  0.86310  0.58920  Biso   1.000  C
  C249     1.0000 0.11760  0.86550  0.63750  Biso   1.000  C
  H165     1.0000 0.10420  0.89390  0.66230  Biso   1.000  H
  C250     1.0000 0.16750  0.82830  0.64470  Biso   1.000  C
  H166     1.0000 0.19010  0.83160  0.67540  Biso   1.000  H
  C251     1.0000 0.15570  0.77800  0.57120  Biso   1.000  C
  H167     1.0000 0.16490  0.74330  0.55090  Biso   1.000  H
  C252     1.0000 0.10330  0.82170  0.55570  Biso   1.000  C
  H168     1.0000 0.08560  0.82090  0.52330  Biso   1.000  H
  Cu25     1.0000 0.82951  0.92581  0.30198  Biso   1.000  Cu
  Cu26     1.0000 0.72691  0.22226  0.87161  Biso   1.000  Cu
  I7       1.0000 0.84871  0.86964  0.10063  Biso   1.000  I
  N73      1.0000 0.69330  0.12860  0.12350  Biso   1.000  N
  N74      1.0000 0.59620  0.19990  0.11580  Biso   1.000  N
  N75      1.0000 0.61700  0.15040  0.19120  Biso   1.000  N
  N76      1.0000 0.79080  0.99970  0.26650  Biso   1.000  N
  N77      1.0000 0.69910  0.19880  0.94010  Biso   1.000  N
  N78      1.0000 0.40690  0.28240  0.22400  Biso   1.000  N
  N79      1.0000 0.91750  0.97920  0.55440  Biso   1.000  N
  N80      1.0000 0.99690  0.93990  0.61490  Biso   1.000  N
  N81      1.0000 0.00300  0.90350  0.53120  Biso   1.000  N
  N82      1.0000 0.87530  0.94090  0.36830  Biso   1.000  N
  Cu27     1.0000 0.31985  0.32651  0.24619  Biso   1.000  Cu
  N83      1.0000 0.85650  0.10470  0.70600  Biso   1.000  N
  N84      1.0000 0.19140  0.78480  0.61310  Biso   1.000  N
  Cu28     1.0000 0.83832  0.83465  0.18398  Biso   1.000  Cu
  S25      1.0000 0.89719  0.86275  0.25254  Biso   1.000  S
  S26      1.0000 0.24317  0.26434  0.28789  Biso   1.000  S
  S27      1.0000 0.73795  0.86106  0.32376  Biso   1.000  S
  S28      1.0000 0.64801  0.27390  0.82447  Biso   1.000  S
  W7       1.0000 0.81294  0.80208  0.27736  Biso   1.000  W
  C253     1.0000 0.82740  0.87840  0.66880  Biso   1.000  C
  C254     1.0000 0.84620  0.83300  0.59690  Biso   1.000  C
  C255     1.0000 0.91810  0.81170  0.66270  Biso   1.000  C
  C256     1.0000 0.78530  0.91830  0.70440  Biso   1.000  C
  C257     1.0000 0.80320  0.92660  0.75320  Biso   1.000  C
  H169     1.0000 0.84010  0.90480  0.76720  Biso   1.000  H
  C258     1.0000 0.76540  0.96790  0.78090  Biso   1.000  C
  H170     1.0000 0.78020  0.97460  0.81370  Biso   1.000  H
  C259     1.0000 0.69130  0.99530  0.71720  Biso   1.000  C
  H171     1.0000 0.65530  0.01970  0.70480  Biso   1.000  H
  C260     1.0000 0.72880  0.95070  0.68240  Biso   1.000  C
  H172     1.0000 0.71580  0.94490  0.64910  Biso   1.000  H
  C261     1.0000 0.83770  0.82080  0.54260  Biso   1.000  C
  C262     1.0000 0.78310  0.85830  0.52030  Biso   1.000  C
  H173     1.0000 0.75970  0.88830  0.53920  Biso   1.000  H
  C263     1.0000 0.76600  0.84820  0.46820  Biso   1.000  C
  H174     1.0000 0.73200  0.87260  0.45300  Biso   1.000  H
  C264     1.0000 0.85450  0.77000  0.46440  Biso   1.000  C
  H175     1.0000 0.88420  0.74540  0.44520  Biso   1.000  H
  C265     1.0000 0.86580  0.77370  0.51560  Biso   1.000  C
  H176     1.0000 0.89290  0.74350  0.53140  Biso   1.000  H
  C266     1.0000 0.97680  0.77800  0.68240  Biso   1.000  C
  C267     1.0000 0.00690  0.72950  0.65710  Biso   1.000  C
  H177     1.0000 0.98930  0.71700  0.62620  Biso   1.000  H
  C268     1.0000 0.06440  0.69820  0.67740  Biso   1.000  C
  H178     1.0000 0.08380  0.66450  0.66010  Biso   1.000  H
  C269     1.0000 0.06030  0.75860  0.74710  Biso   1.000  C
  H179     1.0000 0.07630  0.76860  0.77900  Biso   1.000  H
  C270     1.0000 0.00430  0.79030  0.73140  Biso   1.000  C
  H180     1.0000 0.98360  0.82000  0.75220  Biso   1.000  H
  C271     1.0000 0.55580  0.05980  0.02210  Biso   1.000  C
  C272     1.0000 0.55510  0.02230  0.10220  Biso   1.000  C
  C273     1.0000 0.47980  0.09580  0.07690  Biso   1.000  C
  C274     1.0000 0.57780  0.05910  0.96830  Biso   1.000  C
  C275     1.0000 0.54330  0.09350  0.93010  Biso   1.000  C
  H181     1.0000 0.50300  0.11540  0.93730  Biso   1.000  H
  C276     1.0000 0.56910  0.09380  0.88410  Biso   1.000  C
  H182     1.0000 0.54800  0.11980  0.86060  Biso   1.000  H
  C277     1.0000 0.65460  0.02270  0.90460  Biso   1.000  C
  H183     1.0000 0.69210  0.99800  0.89540  Biso   1.000  H
  C278     1.0000 0.63280  0.02000  0.95470  Biso   1.000  C
  H184     1.0000 0.65390  0.99340  0.97790  Biso   1.000  H
  C279     1.0000 0.58850  0.98290  0.13870  Biso   1.000  C
  C280     1.0000 0.64710  0.94240  0.12470  Biso   1.000  C
  H185     1.0000 0.66710  0.94570  0.09310  Biso   1.000  H
  C281     1.0000 0.67040  0.90200  0.15740  Biso   1.000  C
  H186     1.0000 0.70690  0.87620  0.14800  Biso   1.000  H
  C282     1.0000 0.58740  0.93470  0.21940  Biso   1.000  C
  H187     1.0000 0.57010  0.93230  0.25190  Biso   1.000  H
  C283     1.0000 0.55820  0.97570  0.18680  Biso   1.000  C
  H188     1.0000 0.51920  0.99850  0.19570  Biso   1.000  H
  C284     1.0000 0.41880  0.13690  0.08920  Biso   1.000  C
  C285     1.0000 0.38240  0.13450  0.13750  Biso   1.000  C
  H189     1.0000 0.39580  0.10610  0.16230  Biso   1.000  H
  C286     1.0000 0.33250  0.17170  0.14470  Biso   1.000  C
  H190     1.0000 0.30990  0.16840  0.17540  Biso   1.000  H
  C287     1.0000 0.34430  0.22200  0.07120  Biso   1.000  C
  H191     1.0000 0.33510  0.25670  0.05090  Biso   1.000  H
  C288     1.0000 0.39670  0.17830  0.05570  Biso   1.000  C
  H192     1.0000 0.41440  0.17910  0.02330  Biso   1.000  H
  Cu29     1.0000 0.67049  0.07419  0.80198  Biso   1.000  Cu
  Cu30     1.0000 0.77309  0.77774  0.37161  Biso   1.000  Cu
  I8       1.0000 0.65129  0.13036  0.60063  Biso   1.000  I
  N85      1.0000 0.80670  0.87140  0.62350  Biso   1.000  N
  N86      1.0000 0.90380  0.80010  0.61580  Biso   1.000  N
  N87      1.0000 0.88300  0.84960  0.69120  Biso   1.000  N
  N88      1.0000 0.70920  0.00030  0.76650  Biso   1.000  N
  N89      1.0000 0.80090  0.80120  0.44010  Biso   1.000  N
  N90      1.0000 0.09310  0.71760  0.72400  Biso   1.000  N
  N91      1.0000 0.58250  0.02080  0.05440  Biso   1.000  N
  N92      1.0000 0.50310  0.06010  0.11490  Biso   1.000  N
  N93      1.0000 0.49700  0.09650  0.03120  Biso   1.000  N
  N94      1.0000 0.62470  0.05910  0.86830  Biso   1.000  N
  Cu31     1.0000 0.18015  0.67349  0.74619  Biso   1.000  Cu
  N95      1.0000 0.64350  0.89530  0.20600  Biso   1.000  N
  N96      1.0000 0.30860  0.21520  0.11310  Biso   1.000  N
  Cu32     1.0000 0.66168  0.16535  0.68398  Biso   1.000  Cu
  S29      1.0000 0.60281  0.13725  0.75254  Biso   1.000  S
  S30      1.0000 0.25683  0.73566  0.78789  Biso   1.000  S
  S31      1.0000 0.76205  0.13894  0.82376  Biso   1.000  S
  S32      1.0000 0.85199  0.72610  0.32447  Biso   1.000  S
  W8       1.0000 0.68706  0.19792  0.77736  Biso   1.000  W
