data_image0
_cell_length_a       12.1678
_cell_length_b       22.691
_cell_length_c       34.3938
_cell_angle_alpha    90
_cell_angle_beta     90
_cell_angle_gamma    90

_symmetry_space_group_name_H-M    "P 1"
_symmetry_int_tables_number       1

loop_
  _symmetry_equiv_pos_as_xyz
  'x, y, z'

loop_
  _atom_site_label
  _atom_site_occupancy
  _atom_site_fract_x
  _atom_site_fract_y
  _atom_site_fract_z
  _atom_site_thermal_displace_type
  _atom_site_B_iso_or_equiv
  _atom_site_type_symbol
  Zn1      1.0000 0.99281  0.57513  0.75201  Biso   1.000  Zn
  N1       1.0000 0.06250  0.48980  0.74931  Biso   1.000  N
  N2       1.0000 0.13820  0.40050  0.74576  Biso   1.000  N
  O1       1.0000 0.93730  0.54120  0.80375  Biso   1.000  O
  O2       1.0000 0.93780  0.46320  0.84195  Biso   1.000  O
  C1       1.0000 0.12680  0.45300  0.72890  Biso   1.000  C
  O3       1.0000 0.01850  0.34650  0.83402  Biso   1.000  O
  O4       1.0000 0.15160  0.31210  0.79699  Biso   1.000  O
  C2       1.0000 0.07630  0.40280  0.77921  Biso   1.000  C
  C3       1.0000 0.03020  0.45760  0.78123  Biso   1.000  C
  C4       1.0000 0.18390  0.46940  0.69270  Biso   1.000  C
  N3       1.0000 0.29260  0.43910  0.63781  Biso   1.000  N
  C5       1.0000 0.07950  0.35110  0.80550  Biso   1.000  C
  C6       1.0000 0.25390  0.54050  0.64760  Biso   1.000  C
  H1       1.0000 0.26070  0.57920  0.63910  Biso   1.000  H
  C7       1.0000 0.19570  0.52750  0.68090  Biso   1.000  C
  H2       1.0000 0.16430  0.55770  0.69540  Biso   1.000  H
  C8       1.0000 0.30130  0.49550  0.62730  Biso   1.000  C
  H3       1.0000 0.34170  0.50450  0.60520  Biso   1.000  H
  C9       1.0000 0.96210  0.48770  0.81140  Biso   1.000  C
  C10      1.0000 0.23420  0.42650  0.67000  Biso   1.000  C
  H4       1.0000 0.22730  0.38730  0.67740  Biso   1.000  H
  Zn2      1.0000 0.99281  0.07513  0.25201  Biso   1.000  Zn
  N4       1.0000 0.06250  0.98980  0.24931  Biso   1.000  N
  N5       1.0000 0.13820  0.90050  0.24576  Biso   1.000  N
  O5       1.0000 0.93730  0.04120  0.30375  Biso   1.000  O
  O6       1.0000 0.93780  0.96320  0.34195  Biso   1.000  O
  C11      1.0000 0.12680  0.95300  0.22890  Biso   1.000  C
  O7       1.0000 0.01850  0.84650  0.33402  Biso   1.000  O
  O8       1.0000 0.15160  0.81210  0.29699  Biso   1.000  O
  C12      1.0000 0.07630  0.90280  0.27921  Biso   1.000  C
  C13      1.0000 0.03020  0.95760  0.28123  Biso   1.000  C
  C14      1.0000 0.18390  0.96940  0.19270  Biso   1.000  C
  N6       1.0000 0.29260  0.93910  0.13781  Biso   1.000  N
  C15      1.0000 0.07950  0.85110  0.30550  Biso   1.000  C
  C16      1.0000 0.25390  0.04050  0.14760  Biso   1.000  C
  H5       1.0000 0.26070  0.07920  0.13910  Biso   1.000  H
  C17      1.0000 0.19570  0.02750  0.18090  Biso   1.000  C
  H6       1.0000 0.16430  0.05770  0.19540  Biso   1.000  H
  C18      1.0000 0.30130  0.99550  0.12730  Biso   1.000  C
  H7       1.0000 0.34170  0.00450  0.10520  Biso   1.000  H
  C19      1.0000 0.96210  0.98770  0.31140  Biso   1.000  C
  C20      1.0000 0.23420  0.92650  0.17000  Biso   1.000  C
  H8       1.0000 0.22730  0.88730  0.17740  Biso   1.000  H
  Zn3      1.0000 0.49281  0.57513  0.25201  Biso   1.000  Zn
  N7       1.0000 0.56250  0.48980  0.24931  Biso   1.000  N
  N8       1.0000 0.63820  0.40050  0.24576  Biso   1.000  N
  O9       1.0000 0.43730  0.54120  0.30375  Biso   1.000  O
  O10      1.0000 0.43780  0.46320  0.34195  Biso   1.000  O
  C21      1.0000 0.62680  0.45300  0.22890  Biso   1.000  C
  O11      1.0000 0.51850  0.34650  0.33402  Biso   1.000  O
  O12      1.0000 0.65160  0.31210  0.29699  Biso   1.000  O
  C22      1.0000 0.57630  0.40280  0.27921  Biso   1.000  C
  C23      1.0000 0.53020  0.45760  0.28123  Biso   1.000  C
  C24      1.0000 0.68390  0.46940  0.19270  Biso   1.000  C
  N9       1.0000 0.79260  0.43910  0.13781  Biso   1.000  N
  C25      1.0000 0.57950  0.35110  0.30550  Biso   1.000  C
  C26      1.0000 0.75390  0.54050  0.14760  Biso   1.000  C
  H9       1.0000 0.76070  0.57920  0.13910  Biso   1.000  H
  C27      1.0000 0.69570  0.52750  0.18090  Biso   1.000  C
  H10      1.0000 0.66430  0.55770  0.19540  Biso   1.000  H
  C28      1.0000 0.80130  0.49550  0.12730  Biso   1.000  C
  H11      1.0000 0.84170  0.50450  0.10520  Biso   1.000  H
  C29      1.0000 0.46210  0.48770  0.31140  Biso   1.000  C
  C30      1.0000 0.73420  0.42650  0.17000  Biso   1.000  C
  H12      1.0000 0.72730  0.38730  0.17740  Biso   1.000  H
  Zn4      1.0000 0.49281  0.07513  0.75201  Biso   1.000  Zn
  N10      1.0000 0.56250  0.98980  0.74931  Biso   1.000  N
  N11      1.0000 0.63820  0.90050  0.74576  Biso   1.000  N
  O13      1.0000 0.43730  0.04120  0.80375  Biso   1.000  O
  O14      1.0000 0.43780  0.96320  0.84195  Biso   1.000  O
  C31      1.0000 0.62680  0.95300  0.72890  Biso   1.000  C
  O15      1.0000 0.51850  0.84650  0.83402  Biso   1.000  O
  O16      1.0000 0.65160  0.81210  0.79699  Biso   1.000  O
  C32      1.0000 0.57630  0.90280  0.77921  Biso   1.000  C
  C33      1.0000 0.53020  0.95760  0.78123  Biso   1.000  C
  C34      1.0000 0.68390  0.96940  0.69270  Biso   1.000  C
  N12      1.0000 0.79260  0.93910  0.63781  Biso   1.000  N
  C35      1.0000 0.57950  0.85110  0.80550  Biso   1.000  C
  C36      1.0000 0.75390  0.04050  0.64760  Biso   1.000  C
  H13      1.0000 0.76070  0.07920  0.63910  Biso   1.000  H
  C37      1.0000 0.69570  0.02750  0.68090  Biso   1.000  C
  H14      1.0000 0.66430  0.05770  0.69540  Biso   1.000  H
  C38      1.0000 0.80130  0.99550  0.62730  Biso   1.000  C
  H15      1.0000 0.84170  0.00450  0.60520  Biso   1.000  H
  C39      1.0000 0.46210  0.98770  0.81140  Biso   1.000  C
  C40      1.0000 0.73420  0.92650  0.67000  Biso   1.000  C
  H16      1.0000 0.72730  0.88730  0.67740  Biso   1.000  H
  Zn5      1.0000 0.75719  0.17487  0.75201  Biso   1.000  Zn
  N13      1.0000 0.68750  0.26020  0.74931  Biso   1.000  N
  N14      1.0000 0.61180  0.34950  0.74576  Biso   1.000  N
  O17      1.0000 0.81270  0.20880  0.80375  Biso   1.000  O
  O18      1.0000 0.81220  0.28680  0.84195  Biso   1.000  O
  C41      1.0000 0.62320  0.29700  0.72890  Biso   1.000  C
  O19      1.0000 0.73150  0.40350  0.83402  Biso   1.000  O
  O20      1.0000 0.59840  0.43790  0.79699  Biso   1.000  O
  C42      1.0000 0.67370  0.34720  0.77921  Biso   1.000  C
  C43      1.0000 0.71980  0.29240  0.78123  Biso   1.000  C
  C44      1.0000 0.56610  0.28060  0.69270  Biso   1.000  C
  N15      1.0000 0.45740  0.31090  0.63781  Biso   1.000  N
  C45      1.0000 0.67050  0.39890  0.80550  Biso   1.000  C
  C46      1.0000 0.49610  0.20950  0.64760  Biso   1.000  C
  H17      1.0000 0.48930  0.17080  0.63910  Biso   1.000  H
  C47      1.0000 0.55430  0.22250  0.68090  Biso   1.000  C
  H18      1.0000 0.58570  0.19230  0.69540  Biso   1.000  H
  C48      1.0000 0.44870  0.25450  0.62730  Biso   1.000  C
  H19      1.0000 0.40830  0.24550  0.60520  Biso   1.000  H
  C49      1.0000 0.78790  0.26230  0.81140  Biso   1.000  C
  C50      1.0000 0.51580  0.32350  0.67000  Biso   1.000  C
  H20      1.0000 0.52270  0.36270  0.67740  Biso   1.000  H
  Zn6      1.0000 0.75719  0.67487  0.25201  Biso   1.000  Zn
  N16      1.0000 0.68750  0.76020  0.24931  Biso   1.000  N
  N17      1.0000 0.61180  0.84950  0.24576  Biso   1.000  N
  O21      1.0000 0.81270  0.70880  0.30375  Biso   1.000  O
  O22      1.0000 0.81220  0.78680  0.34195  Biso   1.000  O
  C51      1.0000 0.62320  0.79700  0.22890  Biso   1.000  C
  O23      1.0000 0.73150  0.90350  0.33402  Biso   1.000  O
  O24      1.0000 0.59840  0.93790  0.29699  Biso   1.000  O
  C52      1.0000 0.67370  0.84720  0.27921  Biso   1.000  C
  C53      1.0000 0.71980  0.79240  0.28123  Biso   1.000  C
  C54      1.0000 0.56610  0.78060  0.19270  Biso   1.000  C
  N18      1.0000 0.45740  0.81090  0.13781  Biso   1.000  N
  C55      1.0000 0.67050  0.89890  0.30550  Biso   1.000  C
  C56      1.0000 0.49610  0.70950  0.14760  Biso   1.000  C
  H21      1.0000 0.48930  0.67080  0.13910  Biso   1.000  H
  C57      1.0000 0.55430  0.72250  0.18090  Biso   1.000  C
  H22      1.0000 0.58570  0.69230  0.19540  Biso   1.000  H
  C58      1.0000 0.44870  0.75450  0.12730  Biso   1.000  C
  H23      1.0000 0.40830  0.74550  0.10520  Biso   1.000  H
  C59      1.0000 0.78790  0.76230  0.31140  Biso   1.000  C
  C60      1.0000 0.51580  0.82350  0.17000  Biso   1.000  C
  H24      1.0000 0.52270  0.86270  0.17740  Biso   1.000  H
  Zn7      1.0000 0.25719  0.17487  0.25201  Biso   1.000  Zn
  N19      1.0000 0.18750  0.26020  0.24931  Biso   1.000  N
  N20      1.0000 0.11180  0.34950  0.24576  Biso   1.000  N
  O25      1.0000 0.31270  0.20880  0.30375  Biso   1.000  O
  O26      1.0000 0.31220  0.28680  0.34195  Biso   1.000  O
  C61      1.0000 0.12320  0.29700  0.22890  Biso   1.000  C
  O27      1.0000 0.23150  0.40350  0.33402  Biso   1.000  O
  O28      1.0000 0.09840  0.43790  0.29699  Biso   1.000  O
  C62      1.0000 0.17370  0.34720  0.27921  Biso   1.000  C
  C63      1.0000 0.21980  0.29240  0.28123  Biso   1.000  C
  C64      1.0000 0.06610  0.28060  0.19270  Biso   1.000  C
  N21      1.0000 0.95740  0.31090  0.13781  Biso   1.000  N
  C65      1.0000 0.17050  0.39890  0.30550  Biso   1.000  C
  C66      1.0000 0.99610  0.20950  0.14760  Biso   1.000  C
  H25      1.0000 0.98930  0.17080  0.13910  Biso   1.000  H
  C67      1.0000 0.05430  0.22250  0.18090  Biso   1.000  C
  H26      1.0000 0.08570  0.19230  0.19540  Biso   1.000  H
  C68      1.0000 0.94870  0.25450  0.12730  Biso   1.000  C
  H27      1.0000 0.90830  0.24550  0.10520  Biso   1.000  H
  C69      1.0000 0.28790  0.26230  0.31140  Biso   1.000  C
  C70      1.0000 0.01580  0.32350  0.17000  Biso   1.000  C
  H28      1.0000 0.02270  0.36270  0.17740  Biso   1.000  H
  Zn8      1.0000 0.25719  0.67487  0.75201  Biso   1.000  Zn
  N22      1.0000 0.18750  0.76020  0.74931  Biso   1.000  N
  N23      1.0000 0.11180  0.84950  0.74576  Biso   1.000  N
  O29      1.0000 0.31270  0.70880  0.80375  Biso   1.000  O
  O30      1.0000 0.31220  0.78680  0.84195  Biso   1.000  O
  C71      1.0000 0.12320  0.79700  0.72890  Biso   1.000  C
  O31      1.0000 0.23150  0.90350  0.83402  Biso   1.000  O
  O32      1.0000 0.09840  0.93790  0.79699  Biso   1.000  O
  C72      1.0000 0.17370  0.84720  0.77921  Biso   1.000  C
  C73      1.0000 0.21980  0.79240  0.78123  Biso   1.000  C
  C74      1.0000 0.06610  0.78060  0.69270  Biso   1.000  C
  N24      1.0000 0.95740  0.81090  0.63781  Biso   1.000  N
  C75      1.0000 0.17050  0.89890  0.80550  Biso   1.000  C
  C76      1.0000 0.99610  0.70950  0.64760  Biso   1.000  C
  H29      1.0000 0.98930  0.67080  0.63910  Biso   1.000  H
  C77      1.0000 0.05430  0.72250  0.68090  Biso   1.000  C
  H30      1.0000 0.08570  0.69230  0.69540  Biso   1.000  H
  C78      1.0000 0.94870  0.75450  0.62730  Biso   1.000  C
  H31      1.0000 0.90830  0.74550  0.60520  Biso   1.000  H
  C79      1.0000 0.28790  0.76230  0.81140  Biso   1.000  C
  C80      1.0000 0.01580  0.82350  0.67000  Biso   1.000  C
  H32      1.0000 0.02270  0.86270  0.67740  Biso   1.000  H
  Zn9      1.0000 0.75719  0.57513  0.99799  Biso   1.000  Zn
  N25      1.0000 0.68750  0.48980  0.00069  Biso   1.000  N
  N26      1.0000 0.61180  0.40050  0.00424  Biso   1.000  N
  O33      1.0000 0.81270  0.54120  0.94625  Biso   1.000  O
  O34      1.0000 0.81220  0.46320  0.90805  Biso   1.000  O
  C81      1.0000 0.62320  0.45300  0.02110  Biso   1.000  C
  O35      1.0000 0.73150  0.34650  0.91598  Biso   1.000  O
  O36      1.0000 0.59840  0.31210  0.95301  Biso   1.000  O
  C82      1.0000 0.67370  0.40280  0.97079  Biso   1.000  C
  C83      1.0000 0.71980  0.45760  0.96877  Biso   1.000  C
  C84      1.0000 0.56610  0.46940  0.05730  Biso   1.000  C
  N27      1.0000 0.45740  0.43910  0.11219  Biso   1.000  N
  C85      1.0000 0.67050  0.35110  0.94450  Biso   1.000  C
  C86      1.0000 0.49610  0.54050  0.10240  Biso   1.000  C
  H33      1.0000 0.48930  0.57920  0.11090  Biso   1.000  H
  C87      1.0000 0.55430  0.52750  0.06910  Biso   1.000  C
  H34      1.0000 0.58570  0.55770  0.05460  Biso   1.000  H
  C88      1.0000 0.44870  0.49550  0.12270  Biso   1.000  C
  H35      1.0000 0.40830  0.50450  0.14480  Biso   1.000  H
  C89      1.0000 0.78790  0.48770  0.93860  Biso   1.000  C
  C90      1.0000 0.51580  0.42650  0.08000  Biso   1.000  C
  H36      1.0000 0.52270  0.38730  0.07260  Biso   1.000  H
  Zn10     1.0000 0.75719  0.07513  0.49799  Biso   1.000  Zn
  N28      1.0000 0.68750  0.98980  0.50069  Biso   1.000  N
  N29      1.0000 0.61180  0.90050  0.50424  Biso   1.000  N
  O37      1.0000 0.81270  0.04120  0.44625  Biso   1.000  O
  O38      1.0000 0.81220  0.96320  0.40805  Biso   1.000  O
  C91      1.0000 0.62320  0.95300  0.52110  Biso   1.000  C
  O39      1.0000 0.73150  0.84650  0.41598  Biso   1.000  O
  O40      1.0000 0.59840  0.81210  0.45301  Biso   1.000  O
  C92      1.0000 0.67370  0.90280  0.47079  Biso   1.000  C
  C93      1.0000 0.71980  0.95760  0.46877  Biso   1.000  C
  C94      1.0000 0.56610  0.96940  0.55730  Biso   1.000  C
  N30      1.0000 0.45740  0.93910  0.61219  Biso   1.000  N
  C95      1.0000 0.67050  0.85110  0.44450  Biso   1.000  C
  C96      1.0000 0.49610  0.04050  0.60240  Biso   1.000  C
  H37      1.0000 0.48930  0.07920  0.61090  Biso   1.000  H
  C97      1.0000 0.55430  0.02750  0.56910  Biso   1.000  C
  H38      1.0000 0.58570  0.05770  0.55460  Biso   1.000  H
  C98      1.0000 0.44870  0.99550  0.62270  Biso   1.000  C
  H39      1.0000 0.40830  0.00450  0.64480  Biso   1.000  H
  C99      1.0000 0.78790  0.98770  0.43860  Biso   1.000  C
  C100     1.0000 0.51580  0.92650  0.58000  Biso   1.000  C
  H40      1.0000 0.52270  0.88730  0.57260  Biso   1.000  H
  Zn11     1.0000 0.25719  0.57513  0.49799  Biso   1.000  Zn
  N31      1.0000 0.18750  0.48980  0.50069  Biso   1.000  N
  N32      1.0000 0.11180  0.40050  0.50424  Biso   1.000  N
  O41      1.0000 0.31270  0.54120  0.44625  Biso   1.000  O
  O42      1.0000 0.31220  0.46320  0.40805  Biso   1.000  O
  C101     1.0000 0.12320  0.45300  0.52110  Biso   1.000  C
  O43      1.0000 0.23150  0.34650  0.41598  Biso   1.000  O
  O44      1.0000 0.09840  0.31210  0.45301  Biso   1.000  O
  C102     1.0000 0.17370  0.40280  0.47079  Biso   1.000  C
  C103     1.0000 0.21980  0.45760  0.46877  Biso   1.000  C
  C104     1.0000 0.06610  0.46940  0.55730  Biso   1.000  C
  N33      1.0000 0.95740  0.43910  0.61219  Biso   1.000  N
  C105     1.0000 0.17050  0.35110  0.44450  Biso   1.000  C
  C106     1.0000 0.99610  0.54050  0.60240  Biso   1.000  C
  H41      1.0000 0.98930  0.57920  0.61090  Biso   1.000  H
  C107     1.0000 0.05430  0.52750  0.56910  Biso   1.000  C
  H42      1.0000 0.08570  0.55770  0.55460  Biso   1.000  H
  C108     1.0000 0.94870  0.49550  0.62270  Biso   1.000  C
  H43      1.0000 0.90830  0.50450  0.64480  Biso   1.000  H
  C109     1.0000 0.28790  0.48770  0.43860  Biso   1.000  C
  C110     1.0000 0.01580  0.42650  0.58000  Biso   1.000  C
  H44      1.0000 0.02270  0.38730  0.57260  Biso   1.000  H
  Zn12     1.0000 0.25719  0.07513  0.99799  Biso   1.000  Zn
  N34      1.0000 0.18750  0.98980  0.00069  Biso   1.000  N
  N35      1.0000 0.11180  0.90050  0.00424  Biso   1.000  N
  O45      1.0000 0.31270  0.04120  0.94625  Biso   1.000  O
  O46      1.0000 0.31220  0.96320  0.90805  Biso   1.000  O
  C111     1.0000 0.12320  0.95300  0.02110  Biso   1.000  C
  O47      1.0000 0.23150  0.84650  0.91598  Biso   1.000  O
  O48      1.0000 0.09840  0.81210  0.95301  Biso   1.000  O
  C112     1.0000 0.17370  0.90280  0.97079  Biso   1.000  C
  C113     1.0000 0.21980  0.95760  0.96877  Biso   1.000  C
  C114     1.0000 0.06610  0.96940  0.05730  Biso   1.000  C
  N36      1.0000 0.95740  0.93910  0.11219  Biso   1.000  N
  C115     1.0000 0.17050  0.85110  0.94450  Biso   1.000  C
  C116     1.0000 0.99610  0.04050  0.10240  Biso   1.000  C
  H45      1.0000 0.98930  0.07920  0.11090  Biso   1.000  H
  C117     1.0000 0.05430  0.02750  0.06910  Biso   1.000  C
  H46      1.0000 0.08570  0.05770  0.05460  Biso   1.000  H
  C118     1.0000 0.94870  0.99550  0.12270  Biso   1.000  C
  H47      1.0000 0.90830  0.00450  0.14480  Biso   1.000  H
  C119     1.0000 0.28790  0.98770  0.93860  Biso   1.000  C
  C120     1.0000 0.01580  0.92650  0.08000  Biso   1.000  C
  H48      1.0000 0.02270  0.88730  0.07260  Biso   1.000  H
  Zn13     1.0000 0.99281  0.17487  0.99799  Biso   1.000  Zn
  N37      1.0000 0.06250  0.26020  0.00069  Biso   1.000  N
  N38      1.0000 0.13820  0.34950  0.00424  Biso   1.000  N
  O49      1.0000 0.93730  0.20880  0.94625  Biso   1.000  O
  O50      1.0000 0.93780  0.28680  0.90805  Biso   1.000  O
  C121     1.0000 0.12680  0.29700  0.02110  Biso   1.000  C
  O51      1.0000 0.01850  0.40350  0.91598  Biso   1.000  O
  O52      1.0000 0.15160  0.43790  0.95301  Biso   1.000  O
  C122     1.0000 0.07630  0.34720  0.97079  Biso   1.000  C
  C123     1.0000 0.03020  0.29240  0.96877  Biso   1.000  C
  C124     1.0000 0.18390  0.28060  0.05730  Biso   1.000  C
  N39      1.0000 0.29260  0.31090  0.11219  Biso   1.000  N
  C125     1.0000 0.07950  0.39890  0.94450  Biso   1.000  C
  C126     1.0000 0.25390  0.20950  0.10240  Biso   1.000  C
  H49      1.0000 0.26070  0.17080  0.11090  Biso   1.000  H
  C127     1.0000 0.19570  0.22250  0.06910  Biso   1.000  C
  H50      1.0000 0.16430  0.19230  0.05460  Biso   1.000  H
  C128     1.0000 0.30130  0.25450  0.12270  Biso   1.000  C
  H51      1.0000 0.34170  0.24550  0.14480  Biso   1.000  H
  C129     1.0000 0.96210  0.26230  0.93860  Biso   1.000  C
  C130     1.0000 0.23420  0.32350  0.08000  Biso   1.000  C
  H52      1.0000 0.22730  0.36270  0.07260  Biso   1.000  H
  Zn14     1.0000 0.99281  0.67487  0.49799  Biso   1.000  Zn
  N40      1.0000 0.06250  0.76020  0.50069  Biso   1.000  N
  N41      1.0000 0.13820  0.84950  0.50424  Biso   1.000  N
  O53      1.0000 0.93730  0.70880  0.44625  Biso   1.000  O
  O54      1.0000 0.93780  0.78680  0.40805  Biso   1.000  O
  C131     1.0000 0.12680  0.79700  0.52110  Biso   1.000  C
  O55      1.0000 0.01850  0.90350  0.41598  Biso   1.000  O
  O56      1.0000 0.15160  0.93790  0.45301  Biso   1.000  O
  C132     1.0000 0.07630  0.84720  0.47079  Biso   1.000  C
  C133     1.0000 0.03020  0.79240  0.46877  Biso   1.000  C
  C134     1.0000 0.18390  0.78060  0.55730  Biso   1.000  C
  N42      1.0000 0.29260  0.81090  0.61219  Biso   1.000  N
  C135     1.0000 0.07950  0.89890  0.44450  Biso   1.000  C
  C136     1.0000 0.25390  0.70950  0.60240  Biso   1.000  C
  H53      1.0000 0.26070  0.67080  0.61090  Biso   1.000  H
  C137     1.0000 0.19570  0.72250  0.56910  Biso   1.000  C
  H54      1.0000 0.16430  0.69230  0.55460  Biso   1.000  H
  C138     1.0000 0.30130  0.75450  0.62270  Biso   1.000  C
  H55      1.0000 0.34170  0.74550  0.64480  Biso   1.000  H
  C139     1.0000 0.96210  0.76230  0.43860  Biso   1.000  C
  C140     1.0000 0.23420  0.82350  0.58000  Biso   1.000  C
  H56      1.0000 0.22730  0.86270  0.57260  Biso   1.000  H
  Zn15     1.0000 0.49281  0.17487  0.49799  Biso   1.000  Zn
  N43      1.0000 0.56250  0.26020  0.50069  Biso   1.000  N
  N44      1.0000 0.63820  0.34950  0.50424  Biso   1.000  N
  O57      1.0000 0.43730  0.20880  0.44625  Biso   1.000  O
  O58      1.0000 0.43780  0.28680  0.40805  Biso   1.000  O
  C141     1.0000 0.62680  0.29700  0.52110  Biso   1.000  C
  O59      1.0000 0.51850  0.40350  0.41598  Biso   1.000  O
  O60      1.0000 0.65160  0.43790  0.45301  Biso   1.000  O
  C142     1.0000 0.57630  0.34720  0.47079  Biso   1.000  C
  C143     1.0000 0.53020  0.29240  0.46877  Biso   1.000  C
  C144     1.0000 0.68390  0.28060  0.55730  Biso   1.000  C
  N45      1.0000 0.79260  0.31090  0.61219  Biso   1.000  N
  C145     1.0000 0.57950  0.39890  0.44450  Biso   1.000  C
  C146     1.0000 0.75390  0.20950  0.60240  Biso   1.000  C
  H57      1.0000 0.76070  0.17080  0.61090  Biso   1.000  H
  C147     1.0000 0.69570  0.22250  0.56910  Biso   1.000  C
  H58      1.0000 0.66430  0.19230  0.55460  Biso   1.000  H
  C148     1.0000 0.80130  0.25450  0.62270  Biso   1.000  C
  H59      1.0000 0.84170  0.24550  0.64480  Biso   1.000  H
  C149     1.0000 0.46210  0.26230  0.43860  Biso   1.000  C
  C150     1.0000 0.73420  0.32350  0.58000  Biso   1.000  C
  H60      1.0000 0.72730  0.36270  0.57260  Biso   1.000  H
  Zn16     1.0000 0.49281  0.67487  0.99799  Biso   1.000  Zn
  N46      1.0000 0.56250  0.76020  0.00069  Biso   1.000  N
  N47      1.0000 0.63820  0.84950  0.00424  Biso   1.000  N
  O61      1.0000 0.43730  0.70880  0.94625  Biso   1.000  O
  O62      1.0000 0.43780  0.78680  0.90805  Biso   1.000  O
  C151     1.0000 0.62680  0.79700  0.02110  Biso   1.000  C
  O63      1.0000 0.51850  0.90350  0.91598  Biso   1.000  O
  O64      1.0000 0.65160  0.93790  0.95301  Biso   1.000  O
  C152     1.0000 0.57630  0.84720  0.97079  Biso   1.000  C
  C153     1.0000 0.53020  0.79240  0.96877  Biso   1.000  C
  C154     1.0000 0.68390  0.78060  0.05730  Biso   1.000  C
  N48      1.0000 0.79260  0.81090  0.11219  Biso   1.000  N
  C155     1.0000 0.57950  0.89890  0.94450  Biso   1.000  C
  C156     1.0000 0.75390  0.70950  0.10240  Biso   1.000  C
  H61      1.0000 0.76070  0.67080  0.11090  Biso   1.000  H
  C157     1.0000 0.69570  0.72250  0.06910  Biso   1.000  C
  H62      1.0000 0.66430  0.69230  0.05460  Biso   1.000  H
  C158     1.0000 0.80130  0.75450  0.12270  Biso   1.000  C
  H63      1.0000 0.84170  0.74550  0.14480  Biso   1.000  H
  C159     1.0000 0.46210  0.76230  0.93860  Biso   1.000  C
  C160     1.0000 0.73420  0.82350  0.08000  Biso   1.000  C
  H64      1.0000 0.72730  0.86270  0.07260  Biso   1.000  H
  Zn17     1.0000 0.00719  0.42487  0.24799  Biso   1.000  Zn
  N49      1.0000 0.93750  0.51020  0.25069  Biso   1.000  N
  N50      1.0000 0.86180  0.59950  0.25424  Biso   1.000  N
  O65      1.0000 0.06270  0.45880  0.19625  Biso   1.000  O
  O66      1.0000 0.06220  0.53680  0.15805  Biso   1.000  O
  C161     1.0000 0.87320  0.54700  0.27110  Biso   1.000  C
  O67      1.0000 0.98150  0.65350  0.16598  Biso   1.000  O
  O68      1.0000 0.84840  0.68790  0.20301  Biso   1.000  O
  C162     1.0000 0.92370  0.59720  0.22079  Biso   1.000  C
  C163     1.0000 0.96980  0.54240  0.21877  Biso   1.000  C
  C164     1.0000 0.81610  0.53060  0.30730  Biso   1.000  C
  N51      1.0000 0.70740  0.56090  0.36219  Biso   1.000  N
  C165     1.0000 0.92050  0.64890  0.19450  Biso   1.000  C
  C166     1.0000 0.74610  0.45950  0.35240  Biso   1.000  C
  H65      1.0000 0.73930  0.42080  0.36090  Biso   1.000  H
  C167     1.0000 0.80430  0.47250  0.31910  Biso   1.000  C
  H66      1.0000 0.83570  0.44230  0.30460  Biso   1.000  H
  C168     1.0000 0.69870  0.50450  0.37270  Biso   1.000  C
  H67      1.0000 0.65830  0.49550  0.39480  Biso   1.000  H
  C169     1.0000 0.03790  0.51230  0.18860  Biso   1.000  C
  C170     1.0000 0.76580  0.57350  0.33000  Biso   1.000  C
  H68      1.0000 0.77270  0.61270  0.32260  Biso   1.000  H
  Zn18     1.0000 0.00719  0.92487  0.74799  Biso   1.000  Zn
  N52      1.0000 0.93750  0.01020  0.75069  Biso   1.000  N
  N53      1.0000 0.86180  0.09950  0.75424  Biso   1.000  N
  O69      1.0000 0.06270  0.95880  0.69625  Biso   1.000  O
  O70      1.0000 0.06220  0.03680  0.65805  Biso   1.000  O
  C171     1.0000 0.87320  0.04700  0.77110  Biso   1.000  C
  O71      1.0000 0.98150  0.15350  0.66598  Biso   1.000  O
  O72      1.0000 0.84840  0.18790  0.70301  Biso   1.000  O
  C172     1.0000 0.92370  0.09720  0.72079  Biso   1.000  C
  C173     1.0000 0.96980  0.04240  0.71877  Biso   1.000  C
  C174     1.0000 0.81610  0.03060  0.80730  Biso   1.000  C
  N54      1.0000 0.70740  0.06090  0.86219  Biso   1.000  N
  C175     1.0000 0.92050  0.14890  0.69450  Biso   1.000  C
  C176     1.0000 0.74610  0.95950  0.85240  Biso   1.000  C
  H69      1.0000 0.73930  0.92080  0.86090  Biso   1.000  H
  C177     1.0000 0.80430  0.97250  0.81910  Biso   1.000  C
  H70      1.0000 0.83570  0.94230  0.80460  Biso   1.000  H
  C178     1.0000 0.69870  0.00450  0.87270  Biso   1.000  C
  H71      1.0000 0.65830  0.99550  0.89480  Biso   1.000  H
  C179     1.0000 0.03790  0.01230  0.68860  Biso   1.000  C
  C180     1.0000 0.76580  0.07350  0.83000  Biso   1.000  C
  H72      1.0000 0.77270  0.11270  0.82260  Biso   1.000  H
  Zn19     1.0000 0.50719  0.42487  0.74799  Biso   1.000  Zn
  N55      1.0000 0.43750  0.51020  0.75069  Biso   1.000  N
  N56      1.0000 0.36180  0.59950  0.75424  Biso   1.000  N
  O73      1.0000 0.56270  0.45880  0.69625  Biso   1.000  O
  O74      1.0000 0.56220  0.53680  0.65805  Biso   1.000  O
  C181     1.0000 0.37320  0.54700  0.77110  Biso   1.000  C
  O75      1.0000 0.48150  0.65350  0.66598  Biso   1.000  O
  O76      1.0000 0.34840  0.68790  0.70301  Biso   1.000  O
  C182     1.0000 0.42370  0.59720  0.72079  Biso   1.000  C
  C183     1.0000 0.46980  0.54240  0.71877  Biso   1.000  C
  C184     1.0000 0.31610  0.53060  0.80730  Biso   1.000  C
  N57      1.0000 0.20740  0.56090  0.86219  Biso   1.000  N
  C185     1.0000 0.42050  0.64890  0.69450  Biso   1.000  C
  C186     1.0000 0.24610  0.45950  0.85240  Biso   1.000  C
  H73      1.0000 0.23930  0.42080  0.86090  Biso   1.000  H
  C187     1.0000 0.30430  0.47250  0.81910  Biso   1.000  C
  H74      1.0000 0.33570  0.44230  0.80460  Biso   1.000  H
  C188     1.0000 0.19870  0.50450  0.87270  Biso   1.000  C
  H75      1.0000 0.15830  0.49550  0.89480  Biso   1.000  H
  C189     1.0000 0.53790  0.51230  0.68860  Biso   1.000  C
  C190     1.0000 0.26580  0.57350  0.83000  Biso   1.000  C
  H76      1.0000 0.27270  0.61270  0.82260  Biso   1.000  H
  Zn20     1.0000 0.50719  0.92487  0.24799  Biso   1.000  Zn
  N58      1.0000 0.43750  0.01020  0.25069  Biso   1.000  N
  N59      1.0000 0.36180  0.09950  0.25424  Biso   1.000  N
  O77      1.0000 0.56270  0.95880  0.19625  Biso   1.000  O
  O78      1.0000 0.56220  0.03680  0.15805  Biso   1.000  O
  C191     1.0000 0.37320  0.04700  0.27110  Biso   1.000  C
  O79      1.0000 0.48150  0.15350  0.16598  Biso   1.000  O
  O80      1.0000 0.34840  0.18790  0.20301  Biso   1.000  O
  C192     1.0000 0.42370  0.09720  0.22079  Biso   1.000  C
  C193     1.0000 0.46980  0.04240  0.21877  Biso   1.000  C
  C194     1.0000 0.31610  0.03060  0.30730  Biso   1.000  C
  N60      1.0000 0.20740  0.06090  0.36219  Biso   1.000  N
  C195     1.0000 0.42050  0.14890  0.19450  Biso   1.000  C
  C196     1.0000 0.24610  0.95950  0.35240  Biso   1.000  C
  H77      1.0000 0.23930  0.92080  0.36090  Biso   1.000  H
  C197     1.0000 0.30430  0.97250  0.31910  Biso   1.000  C
  H78      1.0000 0.33570  0.94230  0.30460  Biso   1.000  H
  C198     1.0000 0.19870  0.00450  0.37270  Biso   1.000  C
  H79      1.0000 0.15830  0.99550  0.39480  Biso   1.000  H
  C199     1.0000 0.53790  0.01230  0.18860  Biso   1.000  C
  C200     1.0000 0.26580  0.07350  0.33000  Biso   1.000  C
  H80      1.0000 0.27270  0.11270  0.32260  Biso   1.000  H
  Zn21     1.0000 0.24281  0.82513  0.24799  Biso   1.000  Zn
  N61      1.0000 0.31250  0.73980  0.25069  Biso   1.000  N
  N62      1.0000 0.38820  0.65050  0.25424  Biso   1.000  N
  O81      1.0000 0.18730  0.79120  0.19625  Biso   1.000  O
  O82      1.0000 0.18780  0.71320  0.15805  Biso   1.000  O
  C201     1.0000 0.37680  0.70300  0.27110  Biso   1.000  C
  O83      1.0000 0.26850  0.59650  0.16598  Biso   1.000  O
  O84      1.0000 0.40160  0.56210  0.20301  Biso   1.000  O
  C202     1.0000 0.32630  0.65280  0.22079  Biso   1.000  C
  C203     1.0000 0.28020  0.70760  0.21877  Biso   1.000  C
  C204     1.0000 0.43390  0.71940  0.30730  Biso   1.000  C
  N63      1.0000 0.54260  0.68910  0.36219  Biso   1.000  N
  C205     1.0000 0.32950  0.60110  0.19450  Biso   1.000  C
  C206     1.0000 0.50390  0.79050  0.35240  Biso   1.000  C
  H81      1.0000 0.51070  0.82920  0.36090  Biso   1.000  H
  C207     1.0000 0.44570  0.77750  0.31910  Biso   1.000  C
  H82      1.0000 0.41430  0.80770  0.30460  Biso   1.000  H
  C208     1.0000 0.55130  0.74550  0.37270  Biso   1.000  C
  H83      1.0000 0.59170  0.75450  0.39480  Biso   1.000  H
  C209     1.0000 0.21210  0.73770  0.18860  Biso   1.000  C
  C210     1.0000 0.48420  0.67650  0.33000  Biso   1.000  C
  H84      1.0000 0.47730  0.63730  0.32260  Biso   1.000  H
  Zn22     1.0000 0.24281  0.32513  0.74799  Biso   1.000  Zn
  N64      1.0000 0.31250  0.23980  0.75069  Biso   1.000  N
  N65      1.0000 0.38820  0.15050  0.75424  Biso   1.000  N
  O85      1.0000 0.18730  0.29120  0.69625  Biso   1.000  O
  O86      1.0000 0.18780  0.21320  0.65805  Biso   1.000  O
  C211     1.0000 0.37680  0.20300  0.77110  Biso   1.000  C
  O87      1.0000 0.26850  0.09650  0.66598  Biso   1.000  O
  O88      1.0000 0.40160  0.06210  0.70301  Biso   1.000  O
  C212     1.0000 0.32630  0.15280  0.72079  Biso   1.000  C
  C213     1.0000 0.28020  0.20760  0.71877  Biso   1.000  C
  C214     1.0000 0.43390  0.21940  0.80730  Biso   1.000  C
  N66      1.0000 0.54260  0.18910  0.86219  Biso   1.000  N
  C215     1.0000 0.32950  0.10110  0.69450  Biso   1.000  C
  C216     1.0000 0.50390  0.29050  0.85240  Biso   1.000  C
  H85      1.0000 0.51070  0.32920  0.86090  Biso   1.000  H
  C217     1.0000 0.44570  0.27750  0.81910  Biso   1.000  C
  H86      1.0000 0.41430  0.30770  0.80460  Biso   1.000  H
  C218     1.0000 0.55130  0.24550  0.87270  Biso   1.000  C
  H87      1.0000 0.59170  0.25450  0.89480  Biso   1.000  H
  C219     1.0000 0.21210  0.23770  0.68860  Biso   1.000  C
  C220     1.0000 0.48420  0.17650  0.83000  Biso   1.000  C
  H88      1.0000 0.47730  0.13730  0.82260  Biso   1.000  H
  Zn23     1.0000 0.74281  0.82513  0.74799  Biso   1.000  Zn
  N67      1.0000 0.81250  0.73980  0.75069  Biso   1.000  N
  N68      1.0000 0.88820  0.65050  0.75424  Biso   1.000  N
  O89      1.0000 0.68730  0.79120  0.69625  Biso   1.000  O
  O90      1.0000 0.68780  0.71320  0.65805  Biso   1.000  O
  C221     1.0000 0.87680  0.70300  0.77110  Biso   1.000  C
  O91      1.0000 0.76850  0.59650  0.66598  Biso   1.000  O
  O92      1.0000 0.90160  0.56210  0.70301  Biso   1.000  O
  C222     1.0000 0.82630  0.65280  0.72079  Biso   1.000  C
  C223     1.0000 0.78020  0.70760  0.71877  Biso   1.000  C
  C224     1.0000 0.93390  0.71940  0.80730  Biso   1.000  C
  N69      1.0000 0.04260  0.68910  0.86219  Biso   1.000  N
  C225     1.0000 0.82950  0.60110  0.69450  Biso   1.000  C
  C226     1.0000 0.00390  0.79050  0.85240  Biso   1.000  C
  H89      1.0000 0.01070  0.82920  0.86090  Biso   1.000  H
  C227     1.0000 0.94570  0.77750  0.81910  Biso   1.000  C
  H90      1.0000 0.91430  0.80770  0.80460  Biso   1.000  H
  C228     1.0000 0.05130  0.74550  0.87270  Biso   1.000  C
  H91      1.0000 0.09170  0.75450  0.89480  Biso   1.000  H
  C229     1.0000 0.71210  0.73770  0.68860  Biso   1.000  C
  C230     1.0000 0.98420  0.67650  0.83000  Biso   1.000  C
  H92      1.0000 0.97730  0.63730  0.82260  Biso   1.000  H
  Zn24     1.0000 0.74281  0.32513  0.24799  Biso   1.000  Zn
  N70      1.0000 0.81250  0.23980  0.25069  Biso   1.000  N
  N71      1.0000 0.88820  0.15050  0.25424  Biso   1.000  N
  O93      1.0000 0.68730  0.29120  0.19625  Biso   1.000  O
  O94      1.0000 0.68780  0.21320  0.15805  Biso   1.000  O
  C231     1.0000 0.87680  0.20300  0.27110  Biso   1.000  C
  O95      1.0000 0.76850  0.09650  0.16598  Biso   1.000  O
  O96      1.0000 0.90160  0.06210  0.20301  Biso   1.000  O
  C232     1.0000 0.82630  0.15280  0.22079  Biso   1.000  C
  C233     1.0000 0.78020  0.20760  0.21877  Biso   1.000  C
  C234     1.0000 0.93390  0.21940  0.30730  Biso   1.000  C
  N72      1.0000 0.04260  0.18910  0.36219  Biso   1.000  N
  C235     1.0000 0.82950  0.10110  0.19450  Biso   1.000  C
  C236     1.0000 0.00390  0.29050  0.35240  Biso   1.000  C
  H93      1.0000 0.01070  0.32920  0.36090  Biso   1.000  H
  C237     1.0000 0.94570  0.27750  0.31910  Biso   1.000  C
  H94      1.0000 0.91430  0.30770  0.30460  Biso   1.000  H
  C238     1.0000 0.05130  0.24550  0.37270  Biso   1.000  C
  H95      1.0000 0.09170  0.25450  0.39480  Biso   1.000  H
  C239     1.0000 0.71210  0.23770  0.18860  Biso   1.000  C
  C240     1.0000 0.98420  0.17650  0.33000  Biso   1.000  C
  H96      1.0000 0.97730  0.13730  0.32260  Biso   1.000  H
  Zn25     1.0000 0.24281  0.42487  0.00201  Biso   1.000  Zn
  N73      1.0000 0.31250  0.51020  0.99931  Biso   1.000  N
  N74      1.0000 0.38820  0.59950  0.99576  Biso   1.000  N
  O97      1.0000 0.18730  0.45880  0.05375  Biso   1.000  O
  O98      1.0000 0.18780  0.53680  0.09195  Biso   1.000  O
  C241     1.0000 0.37680  0.54700  0.97890  Biso   1.000  C
  O99      1.0000 0.26850  0.65350  0.08402  Biso   1.000  O
  O100     1.0000 0.40160  0.68790  0.04699  Biso   1.000  O
  C242     1.0000 0.32630  0.59720  0.02921  Biso   1.000  C
  C243     1.0000 0.28020  0.54240  0.03123  Biso   1.000  C
  C244     1.0000 0.43390  0.53060  0.94270  Biso   1.000  C
  N75      1.0000 0.54260  0.56090  0.88781  Biso   1.000  N
  C245     1.0000 0.32950  0.64890  0.05550  Biso   1.000  C
  C246     1.0000 0.50390  0.45950  0.89760  Biso   1.000  C
  H97      1.0000 0.51070  0.42080  0.88910  Biso   1.000  H
  C247     1.0000 0.44570  0.47250  0.93090  Biso   1.000  C
  H98      1.0000 0.41430  0.44230  0.94540  Biso   1.000  H
  C248     1.0000 0.55130  0.50450  0.87730  Biso   1.000  C
  H99      1.0000 0.59170  0.49550  0.85520  Biso   1.000  H
  C249     1.0000 0.21210  0.51230  0.06140  Biso   1.000  C
  C250     1.0000 0.48420  0.57350  0.92000  Biso   1.000  C
  H100     1.0000 0.47730  0.61270  0.92740  Biso   1.000  H
  Zn26     1.0000 0.24281  0.92487  0.50201  Biso   1.000  Zn
  N76      1.0000 0.31250  0.01020  0.49931  Biso   1.000  N
  N77      1.0000 0.38820  0.09950  0.49576  Biso   1.000  N
  O101     1.0000 0.18730  0.95880  0.55375  Biso   1.000  O
  O102     1.0000 0.18780  0.03680  0.59195  Biso   1.000  O
  C251     1.0000 0.37680  0.04700  0.47890  Biso   1.000  C
  O103     1.0000 0.26850  0.15350  0.58402  Biso   1.000  O
  O104     1.0000 0.40160  0.18790  0.54699  Biso   1.000  O
  C252     1.0000 0.32630  0.09720  0.52921  Biso   1.000  C
  C253     1.0000 0.28020  0.04240  0.53123  Biso   1.000  C
  C254     1.0000 0.43390  0.03060  0.44270  Biso   1.000  C
  N78      1.0000 0.54260  0.06090  0.38781  Biso   1.000  N
  C255     1.0000 0.32950  0.14890  0.55550  Biso   1.000  C
  C256     1.0000 0.50390  0.95950  0.39760  Biso   1.000  C
  H101     1.0000 0.51070  0.92080  0.38910  Biso   1.000  H
  C257     1.0000 0.44570  0.97250  0.43090  Biso   1.000  C
  H102     1.0000 0.41430  0.94230  0.44540  Biso   1.000  H
  C258     1.0000 0.55130  0.00450  0.37730  Biso   1.000  C
  H103     1.0000 0.59170  0.99550  0.35520  Biso   1.000  H
  C259     1.0000 0.21210  0.01230  0.56140  Biso   1.000  C
  C260     1.0000 0.48420  0.07350  0.42000  Biso   1.000  C
  H104     1.0000 0.47730  0.11270  0.42740  Biso   1.000  H
  Zn27     1.0000 0.74281  0.42487  0.50201  Biso   1.000  Zn
  N79      1.0000 0.81250  0.51020  0.49931  Biso   1.000  N
  N80      1.0000 0.88820  0.59950  0.49576  Biso   1.000  N
  O105     1.0000 0.68730  0.45880  0.55375  Biso   1.000  O
  O106     1.0000 0.68780  0.53680  0.59195  Biso   1.000  O
  C261     1.0000 0.87680  0.54700  0.47890  Biso   1.000  C
  O107     1.0000 0.76850  0.65350  0.58402  Biso   1.000  O
  O108     1.0000 0.90160  0.68790  0.54699  Biso   1.000  O
  C262     1.0000 0.82630  0.59720  0.52921  Biso   1.000  C
  C263     1.0000 0.78020  0.54240  0.53123  Biso   1.000  C
  C264     1.0000 0.93390  0.53060  0.44270  Biso   1.000  C
  N81      1.0000 0.04260  0.56090  0.38781  Biso   1.000  N
  C265     1.0000 0.82950  0.64890  0.55550  Biso   1.000  C
  C266     1.0000 0.00390  0.45950  0.39760  Biso   1.000  C
  H105     1.0000 0.01070  0.42080  0.38910  Biso   1.000  H
  C267     1.0000 0.94570  0.47250  0.43090  Biso   1.000  C
  H106     1.0000 0.91430  0.44230  0.44540  Biso   1.000  H
  C268     1.0000 0.05130  0.50450  0.37730  Biso   1.000  C
  H107     1.0000 0.09170  0.49550  0.35520  Biso   1.000  H
  C269     1.0000 0.71210  0.51230  0.56140  Biso   1.000  C
  C270     1.0000 0.98420  0.57350  0.42000  Biso   1.000  C
  H108     1.0000 0.97730  0.61270  0.42740  Biso   1.000  H
  Zn28     1.0000 0.74281  0.92487  0.00201  Biso   1.000  Zn
  N82      1.0000 0.81250  0.01020  0.99931  Biso   1.000  N
  N83      1.0000 0.88820  0.09950  0.99576  Biso   1.000  N
  O109     1.0000 0.68730  0.95880  0.05375  Biso   1.000  O
  O110     1.0000 0.68780  0.03680  0.09195  Biso   1.000  O
  C271     1.0000 0.87680  0.04700  0.97890  Biso   1.000  C
  O111     1.0000 0.76850  0.15350  0.08402  Biso   1.000  O
  O112     1.0000 0.90160  0.18790  0.04699  Biso   1.000  O
  C272     1.0000 0.82630  0.09720  0.02921  Biso   1.000  C
  C273     1.0000 0.78020  0.04240  0.03123  Biso   1.000  C
  C274     1.0000 0.93390  0.03060  0.94270  Biso   1.000  C
  N84      1.0000 0.04260  0.06090  0.88781  Biso   1.000  N
  C275     1.0000 0.82950  0.14890  0.05550  Biso   1.000  C
  C276     1.0000 0.00390  0.95950  0.89760  Biso   1.000  C
  H109     1.0000 0.01070  0.92080  0.88910  Biso   1.000  H
  C277     1.0000 0.94570  0.97250  0.93090  Biso   1.000  C
  H110     1.0000 0.91430  0.94230  0.94540  Biso   1.000  H
  C278     1.0000 0.05130  0.00450  0.87730  Biso   1.000  C
  H111     1.0000 0.09170  0.99550  0.85520  Biso   1.000  H
  C279     1.0000 0.71210  0.01230  0.06140  Biso   1.000  C
  C280     1.0000 0.98420  0.07350  0.92000  Biso   1.000  C
  H112     1.0000 0.97730  0.11270  0.92740  Biso   1.000  H
  Zn29     1.0000 0.00719  0.82513  0.00201  Biso   1.000  Zn
  N85      1.0000 0.93750  0.73980  0.99931  Biso   1.000  N
  N86      1.0000 0.86180  0.65050  0.99576  Biso   1.000  N
  O113     1.0000 0.06270  0.79120  0.05375  Biso   1.000  O
  O114     1.0000 0.06220  0.71320  0.09195  Biso   1.000  O
  C281     1.0000 0.87320  0.70300  0.97890  Biso   1.000  C
  O115     1.0000 0.98150  0.59650  0.08402  Biso   1.000  O
  O116     1.0000 0.84840  0.56210  0.04699  Biso   1.000  O
  C282     1.0000 0.92370  0.65280  0.02921  Biso   1.000  C
  C283     1.0000 0.96980  0.70760  0.03123  Biso   1.000  C
  C284     1.0000 0.81610  0.71940  0.94270  Biso   1.000  C
  N87      1.0000 0.70740  0.68910  0.88781  Biso   1.000  N
  C285     1.0000 0.92050  0.60110  0.05550  Biso   1.000  C
  C286     1.0000 0.74610  0.79050  0.89760  Biso   1.000  C
  H113     1.0000 0.73930  0.82920  0.88910  Biso   1.000  H
  C287     1.0000 0.80430  0.77750  0.93090  Biso   1.000  C
  H114     1.0000 0.83570  0.80770  0.94540  Biso   1.000  H
  C288     1.0000 0.69870  0.74550  0.87730  Biso   1.000  C
  H115     1.0000 0.65830  0.75450  0.85520  Biso   1.000  H
  C289     1.0000 0.03790  0.73770  0.06140  Biso   1.000  C
  C290     1.0000 0.76580  0.67650  0.92000  Biso   1.000  C
  H116     1.0000 0.77270  0.63730  0.92740  Biso   1.000  H
  Zn30     1.0000 0.00719  0.32513  0.50201  Biso   1.000  Zn
  N88      1.0000 0.93750  0.23980  0.49931  Biso   1.000  N
  N89      1.0000 0.86180  0.15050  0.49576  Biso   1.000  N
  O117     1.0000 0.06270  0.29120  0.55375  Biso   1.000  O
  O118     1.0000 0.06220  0.21320  0.59195  Biso   1.000  O
  C291     1.0000 0.87320  0.20300  0.47890  Biso   1.000  C
  O119     1.0000 0.98150  0.09650  0.58402  Biso   1.000  O
  O120     1.0000 0.84840  0.06210  0.54699  Biso   1.000  O
  C292     1.0000 0.92370  0.15280  0.52921  Biso   1.000  C
  C293     1.0000 0.96980  0.20760  0.53123  Biso   1.000  C
  C294     1.0000 0.81610  0.21940  0.44270  Biso   1.000  C
  N90      1.0000 0.70740  0.18910  0.38781  Biso   1.000  N
  C295     1.0000 0.92050  0.10110  0.55550  Biso   1.000  C
  C296     1.0000 0.74610  0.29050  0.39760  Biso   1.000  C
  H117     1.0000 0.73930  0.32920  0.38910  Biso   1.000  H
  C297     1.0000 0.80430  0.27750  0.43090  Biso   1.000  C
  H118     1.0000 0.83570  0.30770  0.44540  Biso   1.000  H
  C298     1.0000 0.69870  0.24550  0.37730  Biso   1.000  C
  H119     1.0000 0.65830  0.25450  0.35520  Biso   1.000  H
  C299     1.0000 0.03790  0.23770  0.56140  Biso   1.000  C
  C300     1.0000 0.76580  0.17650  0.42000  Biso   1.000  C
  H120     1.0000 0.77270  0.13730  0.42740  Biso   1.000  H
  Zn31     1.0000 0.50719  0.82513  0.50201  Biso   1.000  Zn
  N91      1.0000 0.43750  0.73980  0.49931  Biso   1.000  N
  N92      1.0000 0.36180  0.65050  0.49576  Biso   1.000  N
  O121     1.0000 0.56270  0.79120  0.55375  Biso   1.000  O
  O122     1.0000 0.56220  0.71320  0.59195  Biso   1.000  O
  C301     1.0000 0.37320  0.70300  0.47890  Biso   1.000  C
  O123     1.0000 0.48150  0.59650  0.58402  Biso   1.000  O
  O124     1.0000 0.34840  0.56210  0.54699  Biso   1.000  O
  C302     1.0000 0.42370  0.65280  0.52921  Biso   1.000  C
  C303     1.0000 0.46980  0.70760  0.53123  Biso   1.000  C
  C304     1.0000 0.31610  0.71940  0.44270  Biso   1.000  C
  N93      1.0000 0.20740  0.68910  0.38781  Biso   1.000  N
  C305     1.0000 0.42050  0.60110  0.55550  Biso   1.000  C
  C306     1.0000 0.24610  0.79050  0.39760  Biso   1.000  C
  H121     1.0000 0.23930  0.82920  0.38910  Biso   1.000  H
  C307     1.0000 0.30430  0.77750  0.43090  Biso   1.000  C
  H122     1.0000 0.33570  0.80770  0.44540  Biso   1.000  H
  C308     1.0000 0.19870  0.74550  0.37730  Biso   1.000  C
  H123     1.0000 0.15830  0.75450  0.35520  Biso   1.000  H
  C309     1.0000 0.53790  0.73770  0.56140  Biso   1.000  C
  C310     1.0000 0.26580  0.67650  0.42000  Biso   1.000  C
  H124     1.0000 0.27270  0.63730  0.42740  Biso   1.000  H
  Zn32     1.0000 0.50719  0.32513  0.00201  Biso   1.000  Zn
  N94      1.0000 0.43750  0.23980  0.99931  Biso   1.000  N
  N95      1.0000 0.36180  0.15050  0.99576  Biso   1.000  N
  O125     1.0000 0.56270  0.29120  0.05375  Biso   1.000  O
  O126     1.0000 0.56220  0.21320  0.09195  Biso   1.000  O
  C311     1.0000 0.37320  0.20300  0.97890  Biso   1.000  C
  O127     1.0000 0.48150  0.09650  0.08402  Biso   1.000  O
  O128     1.0000 0.34840  0.06210  0.04699  Biso   1.000  O
  C312     1.0000 0.42370  0.15280  0.02921  Biso   1.000  C
  C313     1.0000 0.46980  0.20760  0.03123  Biso   1.000  C
  C314     1.0000 0.31610  0.21940  0.94270  Biso   1.000  C
  N96      1.0000 0.20740  0.18910  0.88781  Biso   1.000  N
  C315     1.0000 0.42050  0.10110  0.05550  Biso   1.000  C
  C316     1.0000 0.24610  0.29050  0.89760  Biso   1.000  C
  H125     1.0000 0.23930  0.32920  0.88910  Biso   1.000  H
  C317     1.0000 0.30430  0.27750  0.93090  Biso   1.000  C
  H126     1.0000 0.33570  0.30770  0.94540  Biso   1.000  H
  C318     1.0000 0.19870  0.24550  0.87730  Biso   1.000  C
  H127     1.0000 0.15830  0.25450  0.85520  Biso   1.000  H
  C319     1.0000 0.53790  0.23770  0.06140  Biso   1.000  C
  C320     1.0000 0.26580  0.17650  0.92000  Biso   1.000  C
  H128     1.0000 0.27270  0.13730  0.92740  Biso   1.000  H
  Tb1      1.0000 0.87500  0.37500  0.87500  Biso   1.000  Tb
  Tb2      1.0000 0.87500  0.87500  0.37500  Biso   1.000  Tb
  Tb3      1.0000 0.37500  0.37500  0.37500  Biso   1.000  Tb
  Tb4      1.0000 0.37500  0.87500  0.87500  Biso   1.000  Tb
  Tb5      1.0000 0.12500  0.62500  0.12500  Biso   1.000  Tb
  Tb6      1.0000 0.12500  0.12500  0.62500  Biso   1.000  Tb
  Tb7      1.0000 0.62500  0.62500  0.62500  Biso   1.000  Tb
  Tb8      1.0000 0.62500  0.12500  0.12500  Biso   1.000  Tb
  Zn33     1.0000 0.37500  0.37500  0.60632  Biso   1.000  Zn
  Zn34     1.0000 0.37500  0.87500  0.10632  Biso   1.000  Zn
  Zn35     1.0000 0.87500  0.37500  0.10632  Biso   1.000  Zn
  Zn36     1.0000 0.87500  0.87500  0.60632  Biso   1.000  Zn
  Zn37     1.0000 0.37500  0.37500  0.14368  Biso   1.000  Zn
  Zn38     1.0000 0.37500  0.87500  0.64368  Biso   1.000  Zn
  Zn39     1.0000 0.87500  0.37500  0.64368  Biso   1.000  Zn
  Zn40     1.0000 0.87500  0.87500  0.14368  Biso   1.000  Zn
  Zn41     1.0000 0.62500  0.62500  0.39368  Biso   1.000  Zn
  Zn42     1.0000 0.62500  0.12500  0.89368  Biso   1.000  Zn
  Zn43     1.0000 0.12500  0.62500  0.89368  Biso   1.000  Zn
  Zn44     1.0000 0.12500  0.12500  0.39368  Biso   1.000  Zn
  Zn45     1.0000 0.62500  0.62500  0.85632  Biso   1.000  Zn
  Zn46     1.0000 0.62500  0.12500  0.35632  Biso   1.000  Zn
  Zn47     1.0000 0.12500  0.62500  0.35632  Biso   1.000  Zn
  Zn48     1.0000 0.12500  0.12500  0.85632  Biso   1.000  Zn
  Cl1      1.0000 0.12500  0.62500  0.75290  Biso   1.000  Cl
  Cl2      1.0000 0.12500  0.12500  0.25290  Biso   1.000  Cl
  Cl3      1.0000 0.62500  0.12500  0.75290  Biso   1.000  Cl
  Cl4      1.0000 0.62500  0.62500  0.25290  Biso   1.000  Cl
  Cl5      1.0000 0.62500  0.62500  0.99710  Biso   1.000  Cl
  Cl6      1.0000 0.62500  0.12500  0.49710  Biso   1.000  Cl
  Cl7      1.0000 0.12500  0.12500  0.99710  Biso   1.000  Cl
  Cl8      1.0000 0.12500  0.62500  0.49710  Biso   1.000  Cl
  Cl9      1.0000 0.87500  0.37500  0.24710  Biso   1.000  Cl
  Cl10     1.0000 0.87500  0.87500  0.74710  Biso   1.000  Cl
  Cl11     1.0000 0.37500  0.87500  0.24710  Biso   1.000  Cl
  Cl12     1.0000 0.37500  0.37500  0.74710  Biso   1.000  Cl
  Cl13     1.0000 0.37500  0.37500  0.00290  Biso   1.000  Cl
  Cl14     1.0000 0.37500  0.87500  0.50290  Biso   1.000  Cl
  Cl15     1.0000 0.87500  0.87500  0.00290  Biso   1.000  Cl
  Cl16     1.0000 0.87500  0.37500  0.50290  Biso   1.000  Cl
