data_image0
_cell_length_a       12.313
_cell_length_b       22.626
_cell_length_c       34.702
_cell_angle_alpha    90
_cell_angle_beta     90
_cell_angle_gamma    90

_symmetry_space_group_name_H-M    "P 1"
_symmetry_int_tables_number       1

loop_
  _symmetry_equiv_pos_as_xyz
  'x, y, z'

loop_
  _atom_site_label
  _atom_site_occupancy
  _atom_site_fract_x
  _atom_site_fract_y
  _atom_site_fract_z
  _atom_site_thermal_displace_type
  _atom_site_B_iso_or_equiv
  _atom_site_type_symbol
  Zn1      1.0000 0.24093  0.32491  0.24846  Biso   1.000  Zn
  C1       1.0000 0.08170  0.35150  0.30580  Biso   1.000  C
  C2       1.0000 0.07510  0.40270  0.27930  Biso   1.000  C
  C3       1.0000 0.02780  0.45730  0.28120  Biso   1.000  C
  C4       1.0000 0.96050  0.48710  0.31030  Biso   1.000  C
  C5       1.0000 0.12620  0.45290  0.22890  Biso   1.000  C
  C6       1.0000 0.17980  0.46880  0.19340  Biso   1.000  C
  C7       1.0000 0.19250  0.52660  0.18210  Biso   1.000  C
  H1       1.0000 0.16220  0.55680  0.19680  Biso   1.000  H
  C8       1.0000 0.25150  0.54060  0.14820  Biso   1.000  C
  H2       1.0000 0.25940  0.57930  0.13960  Biso   1.000  H
  C9       1.0000 0.29560  0.49420  0.12920  Biso   1.000  C
  H3       1.0000 0.33530  0.50290  0.10710  Biso   1.000  H
  C10      1.0000 0.22860  0.42560  0.17090  Biso   1.000  C
  H4       1.0000 0.22080  0.38620  0.17790  Biso   1.000  H
  N1       1.0000 0.13830  0.40040  0.24620  Biso   1.000  N
  N2       1.0000 0.05940  0.48970  0.24930  Biso   1.000  N
  N3       1.0000 0.28810  0.43930  0.13860  Biso   1.000  N
  O1       1.0000 0.15480  0.31280  0.29780  Biso   1.000  O
  O2       1.0000 0.01970  0.34610  0.33440  Biso   1.000  O
  O3       1.0000 0.93730  0.46330  0.34160  Biso   1.000  O
  O4       1.0000 0.93400  0.54090  0.30250  Biso   1.000  O
  Zn2      1.0000 0.24093  0.82491  0.74846  Biso   1.000  Zn
  C11      1.0000 0.08170  0.85150  0.80580  Biso   1.000  C
  C12      1.0000 0.07510  0.90270  0.77930  Biso   1.000  C
  C13      1.0000 0.02780  0.95730  0.78120  Biso   1.000  C
  C14      1.0000 0.96050  0.98710  0.81030  Biso   1.000  C
  C15      1.0000 0.12620  0.95290  0.72890  Biso   1.000  C
  C16      1.0000 0.17980  0.96880  0.69340  Biso   1.000  C
  C17      1.0000 0.19250  0.02660  0.68210  Biso   1.000  C
  H5       1.0000 0.16220  0.05680  0.69680  Biso   1.000  H
  C18      1.0000 0.25150  0.04060  0.64820  Biso   1.000  C
  H6       1.0000 0.25940  0.07930  0.63960  Biso   1.000  H
  C19      1.0000 0.29560  0.99420  0.62920  Biso   1.000  C
  H7       1.0000 0.33530  0.00290  0.60710  Biso   1.000  H
  C20      1.0000 0.22860  0.92560  0.67090  Biso   1.000  C
  H8       1.0000 0.22080  0.88620  0.67790  Biso   1.000  H
  N4       1.0000 0.13830  0.90040  0.74620  Biso   1.000  N
  N5       1.0000 0.05940  0.98970  0.74930  Biso   1.000  N
  N6       1.0000 0.28810  0.93930  0.63860  Biso   1.000  N
  O5       1.0000 0.15480  0.81280  0.79780  Biso   1.000  O
  O6       1.0000 0.01970  0.84610  0.83440  Biso   1.000  O
  O7       1.0000 0.93730  0.96330  0.84160  Biso   1.000  O
  O8       1.0000 0.93400  0.04090  0.80250  Biso   1.000  O
  Zn3      1.0000 0.74093  0.32491  0.74846  Biso   1.000  Zn
  C21      1.0000 0.58170  0.35150  0.80580  Biso   1.000  C
  C22      1.0000 0.57510  0.40270  0.77930  Biso   1.000  C
  C23      1.0000 0.52780  0.45730  0.78120  Biso   1.000  C
  C24      1.0000 0.46050  0.48710  0.81030  Biso   1.000  C
  C25      1.0000 0.62620  0.45290  0.72890  Biso   1.000  C
  C26      1.0000 0.67980  0.46880  0.69340  Biso   1.000  C
  C27      1.0000 0.69250  0.52660  0.68210  Biso   1.000  C
  H9       1.0000 0.66220  0.55680  0.69680  Biso   1.000  H
  C28      1.0000 0.75150  0.54060  0.64820  Biso   1.000  C
  H10      1.0000 0.75940  0.57930  0.63960  Biso   1.000  H
  C29      1.0000 0.79560  0.49420  0.62920  Biso   1.000  C
  H11      1.0000 0.83530  0.50290  0.60710  Biso   1.000  H
  C30      1.0000 0.72860  0.42560  0.67090  Biso   1.000  C
  H12      1.0000 0.72080  0.38620  0.67790  Biso   1.000  H
  N7       1.0000 0.63830  0.40040  0.74620  Biso   1.000  N
  N8       1.0000 0.55940  0.48970  0.74930  Biso   1.000  N
  N9       1.0000 0.78810  0.43930  0.63860  Biso   1.000  N
  O9       1.0000 0.65480  0.31280  0.79780  Biso   1.000  O
  O10      1.0000 0.51970  0.34610  0.83440  Biso   1.000  O
  O11      1.0000 0.43730  0.46330  0.84160  Biso   1.000  O
  O12      1.0000 0.43400  0.54090  0.80250  Biso   1.000  O
  Zn4      1.0000 0.74093  0.82491  0.24846  Biso   1.000  Zn
  C31      1.0000 0.58170  0.85150  0.30580  Biso   1.000  C
  C32      1.0000 0.57510  0.90270  0.27930  Biso   1.000  C
  C33      1.0000 0.52780  0.95730  0.28120  Biso   1.000  C
  C34      1.0000 0.46050  0.98710  0.31030  Biso   1.000  C
  C35      1.0000 0.62620  0.95290  0.22890  Biso   1.000  C
  C36      1.0000 0.67980  0.96880  0.19340  Biso   1.000  C
  C37      1.0000 0.69250  0.02660  0.18210  Biso   1.000  C
  H13      1.0000 0.66220  0.05680  0.19680  Biso   1.000  H
  C38      1.0000 0.75150  0.04060  0.14820  Biso   1.000  C
  H14      1.0000 0.75940  0.07930  0.13960  Biso   1.000  H
  C39      1.0000 0.79560  0.99420  0.12920  Biso   1.000  C
  H15      1.0000 0.83530  0.00290  0.10710  Biso   1.000  H
  C40      1.0000 0.72860  0.92560  0.17090  Biso   1.000  C
  H16      1.0000 0.72080  0.88620  0.17790  Biso   1.000  H
  N10      1.0000 0.63830  0.90040  0.24620  Biso   1.000  N
  N11      1.0000 0.55940  0.98970  0.24930  Biso   1.000  N
  N12      1.0000 0.78810  0.93930  0.13860  Biso   1.000  N
  O13      1.0000 0.65480  0.81280  0.29780  Biso   1.000  O
  O14      1.0000 0.51970  0.84610  0.33440  Biso   1.000  O
  O15      1.0000 0.43730  0.96330  0.34160  Biso   1.000  O
  O16      1.0000 0.43400  0.04090  0.30250  Biso   1.000  O
  Zn5      1.0000 0.50907  0.42509  0.24846  Biso   1.000  Zn
  C41      1.0000 0.66830  0.39850  0.30580  Biso   1.000  C
  C42      1.0000 0.67490  0.34730  0.27930  Biso   1.000  C
  C43      1.0000 0.72220  0.29270  0.28120  Biso   1.000  C
  C44      1.0000 0.78950  0.26290  0.31030  Biso   1.000  C
  C45      1.0000 0.62380  0.29710  0.22890  Biso   1.000  C
  C46      1.0000 0.57020  0.28120  0.19340  Biso   1.000  C
  C47      1.0000 0.55750  0.22340  0.18210  Biso   1.000  C
  H17      1.0000 0.58780  0.19320  0.19680  Biso   1.000  H
  C48      1.0000 0.49850  0.20940  0.14820  Biso   1.000  C
  H18      1.0000 0.49060  0.17070  0.13960  Biso   1.000  H
  C49      1.0000 0.45440  0.25580  0.12920  Biso   1.000  C
  H19      1.0000 0.41470  0.24710  0.10710  Biso   1.000  H
  C50      1.0000 0.52140  0.32440  0.17090  Biso   1.000  C
  H20      1.0000 0.52920  0.36380  0.17790  Biso   1.000  H
  N13      1.0000 0.61170  0.34960  0.24620  Biso   1.000  N
  N14      1.0000 0.69060  0.26030  0.24930  Biso   1.000  N
  N15      1.0000 0.46190  0.31070  0.13860  Biso   1.000  N
  O17      1.0000 0.59520  0.43720  0.29780  Biso   1.000  O
  O18      1.0000 0.73030  0.40390  0.33440  Biso   1.000  O
  O19      1.0000 0.81270  0.28670  0.34160  Biso   1.000  O
  O20      1.0000 0.81600  0.20910  0.30250  Biso   1.000  O
  Zn6      1.0000 0.50907  0.92509  0.74846  Biso   1.000  Zn
  C51      1.0000 0.66830  0.89850  0.80580  Biso   1.000  C
  C52      1.0000 0.67490  0.84730  0.77930  Biso   1.000  C
  C53      1.0000 0.72220  0.79270  0.78120  Biso   1.000  C
  C54      1.0000 0.78950  0.76290  0.81030  Biso   1.000  C
  C55      1.0000 0.62380  0.79710  0.72890  Biso   1.000  C
  C56      1.0000 0.57020  0.78120  0.69340  Biso   1.000  C
  C57      1.0000 0.55750  0.72340  0.68210  Biso   1.000  C
  H21      1.0000 0.58780  0.69320  0.69680  Biso   1.000  H
  C58      1.0000 0.49850  0.70940  0.64820  Biso   1.000  C
  H22      1.0000 0.49060  0.67070  0.63960  Biso   1.000  H
  C59      1.0000 0.45440  0.75580  0.62920  Biso   1.000  C
  H23      1.0000 0.41470  0.74710  0.60710  Biso   1.000  H
  C60      1.0000 0.52140  0.82440  0.67090  Biso   1.000  C
  H24      1.0000 0.52920  0.86380  0.67790  Biso   1.000  H
  N16      1.0000 0.61170  0.84960  0.74620  Biso   1.000  N
  N17      1.0000 0.69060  0.76030  0.74930  Biso   1.000  N
  N18      1.0000 0.46190  0.81070  0.63860  Biso   1.000  N
  O21      1.0000 0.59520  0.93720  0.79780  Biso   1.000  O
  O22      1.0000 0.73030  0.90390  0.83440  Biso   1.000  O
  O23      1.0000 0.81270  0.78670  0.84160  Biso   1.000  O
  O24      1.0000 0.81600  0.70910  0.80250  Biso   1.000  O
  Zn7      1.0000 0.00907  0.42509  0.74846  Biso   1.000  Zn
  C61      1.0000 0.16830  0.39850  0.80580  Biso   1.000  C
  C62      1.0000 0.17490  0.34730  0.77930  Biso   1.000  C
  C63      1.0000 0.22220  0.29270  0.78120  Biso   1.000  C
  C64      1.0000 0.28950  0.26290  0.81030  Biso   1.000  C
  C65      1.0000 0.12380  0.29710  0.72890  Biso   1.000  C
  C66      1.0000 0.07020  0.28120  0.69340  Biso   1.000  C
  C67      1.0000 0.05750  0.22340  0.68210  Biso   1.000  C
  H25      1.0000 0.08780  0.19320  0.69680  Biso   1.000  H
  C68      1.0000 0.99850  0.20940  0.64820  Biso   1.000  C
  H26      1.0000 0.99060  0.17070  0.63960  Biso   1.000  H
  C69      1.0000 0.95440  0.25580  0.62920  Biso   1.000  C
  H27      1.0000 0.91470  0.24710  0.60710  Biso   1.000  H
  C70      1.0000 0.02140  0.32440  0.67090  Biso   1.000  C
  H28      1.0000 0.02920  0.36380  0.67790  Biso   1.000  H
  N19      1.0000 0.11170  0.34960  0.74620  Biso   1.000  N
  N20      1.0000 0.19060  0.26030  0.74930  Biso   1.000  N
  N21      1.0000 0.96190  0.31070  0.63860  Biso   1.000  N
  O25      1.0000 0.09520  0.43720  0.79780  Biso   1.000  O
  O26      1.0000 0.23030  0.40390  0.83440  Biso   1.000  O
  O27      1.0000 0.31270  0.28670  0.84160  Biso   1.000  O
  O28      1.0000 0.31600  0.20910  0.80250  Biso   1.000  O
  Zn8      1.0000 0.00907  0.92509  0.24846  Biso   1.000  Zn
  C71      1.0000 0.16830  0.89850  0.30580  Biso   1.000  C
  C72      1.0000 0.17490  0.84730  0.27930  Biso   1.000  C
  C73      1.0000 0.22220  0.79270  0.28120  Biso   1.000  C
  C74      1.0000 0.28950  0.76290  0.31030  Biso   1.000  C
  C75      1.0000 0.12380  0.79710  0.22890  Biso   1.000  C
  C76      1.0000 0.07020  0.78120  0.19340  Biso   1.000  C
  C77      1.0000 0.05750  0.72340  0.18210  Biso   1.000  C
  H29      1.0000 0.08780  0.69320  0.19680  Biso   1.000  H
  C78      1.0000 0.99850  0.70940  0.14820  Biso   1.000  C
  H30      1.0000 0.99060  0.67070  0.13960  Biso   1.000  H
  C79      1.0000 0.95440  0.75580  0.12920  Biso   1.000  C
  H31      1.0000 0.91470  0.74710  0.10710  Biso   1.000  H
  C80      1.0000 0.02140  0.82440  0.17090  Biso   1.000  C
  H32      1.0000 0.02920  0.86380  0.17790  Biso   1.000  H
  N22      1.0000 0.11170  0.84960  0.24620  Biso   1.000  N
  N23      1.0000 0.19060  0.76030  0.24930  Biso   1.000  N
  N24      1.0000 0.96190  0.81070  0.13860  Biso   1.000  N
  O29      1.0000 0.09520  0.93720  0.29780  Biso   1.000  O
  O30      1.0000 0.23030  0.90390  0.33440  Biso   1.000  O
  O31      1.0000 0.31270  0.78670  0.34160  Biso   1.000  O
  O32      1.0000 0.31600  0.70910  0.30250  Biso   1.000  O
  Zn9      1.0000 0.50907  0.32491  0.50154  Biso   1.000  Zn
  C81      1.0000 0.66830  0.35150  0.44420  Biso   1.000  C
  C82      1.0000 0.67490  0.40270  0.47070  Biso   1.000  C
  C83      1.0000 0.72220  0.45730  0.46880  Biso   1.000  C
  C84      1.0000 0.78950  0.48710  0.43970  Biso   1.000  C
  C85      1.0000 0.62380  0.45290  0.52110  Biso   1.000  C
  C86      1.0000 0.57020  0.46880  0.55660  Biso   1.000  C
  C87      1.0000 0.55750  0.52660  0.56790  Biso   1.000  C
  H33      1.0000 0.58780  0.55680  0.55320  Biso   1.000  H
  C88      1.0000 0.49850  0.54060  0.60180  Biso   1.000  C
  H34      1.0000 0.49060  0.57930  0.61040  Biso   1.000  H
  C89      1.0000 0.45440  0.49420  0.62080  Biso   1.000  C
  H35      1.0000 0.41470  0.50290  0.64290  Biso   1.000  H
  C90      1.0000 0.52140  0.42560  0.57910  Biso   1.000  C
  H36      1.0000 0.52920  0.38620  0.57210  Biso   1.000  H
  N25      1.0000 0.61170  0.40040  0.50380  Biso   1.000  N
  N26      1.0000 0.69060  0.48970  0.50070  Biso   1.000  N
  N27      1.0000 0.46190  0.43930  0.61140  Biso   1.000  N
  O33      1.0000 0.59520  0.31280  0.45220  Biso   1.000  O
  O34      1.0000 0.73030  0.34610  0.41560  Biso   1.000  O
  O35      1.0000 0.81270  0.46330  0.40840  Biso   1.000  O
  O36      1.0000 0.81600  0.54090  0.44750  Biso   1.000  O
  Zn10     1.0000 0.50907  0.82491  0.00154  Biso   1.000  Zn
  C91      1.0000 0.66830  0.85150  0.94420  Biso   1.000  C
  C92      1.0000 0.67490  0.90270  0.97070  Biso   1.000  C
  C93      1.0000 0.72220  0.95730  0.96880  Biso   1.000  C
  C94      1.0000 0.78950  0.98710  0.93970  Biso   1.000  C
  C95      1.0000 0.62380  0.95290  0.02110  Biso   1.000  C
  C96      1.0000 0.57020  0.96880  0.05660  Biso   1.000  C
  C97      1.0000 0.55750  0.02660  0.06790  Biso   1.000  C
  H37      1.0000 0.58780  0.05680  0.05320  Biso   1.000  H
  C98      1.0000 0.49850  0.04060  0.10180  Biso   1.000  C
  H38      1.0000 0.49060  0.07930  0.11040  Biso   1.000  H
  C99      1.0000 0.45440  0.99420  0.12080  Biso   1.000  C
  H39      1.0000 0.41470  0.00290  0.14290  Biso   1.000  H
  C100     1.0000 0.52140  0.92560  0.07910  Biso   1.000  C
  H40      1.0000 0.52920  0.88620  0.07210  Biso   1.000  H
  N28      1.0000 0.61170  0.90040  0.00380  Biso   1.000  N
  N29      1.0000 0.69060  0.98970  0.00070  Biso   1.000  N
  N30      1.0000 0.46190  0.93930  0.11140  Biso   1.000  N
  O37      1.0000 0.59520  0.81280  0.95220  Biso   1.000  O
  O38      1.0000 0.73030  0.84610  0.91560  Biso   1.000  O
  O39      1.0000 0.81270  0.96330  0.90840  Biso   1.000  O
  O40      1.0000 0.81600  0.04090  0.94750  Biso   1.000  O
  Zn11     1.0000 0.00907  0.32491  0.00154  Biso   1.000  Zn
  C101     1.0000 0.16830  0.35150  0.94420  Biso   1.000  C
  C102     1.0000 0.17490  0.40270  0.97070  Biso   1.000  C
  C103     1.0000 0.22220  0.45730  0.96880  Biso   1.000  C
  C104     1.0000 0.28950  0.48710  0.93970  Biso   1.000  C
  C105     1.0000 0.12380  0.45290  0.02110  Biso   1.000  C
  C106     1.0000 0.07020  0.46880  0.05660  Biso   1.000  C
  C107     1.0000 0.05750  0.52660  0.06790  Biso   1.000  C
  H41      1.0000 0.08780  0.55680  0.05320  Biso   1.000  H
  C108     1.0000 0.99850  0.54060  0.10180  Biso   1.000  C
  H42      1.0000 0.99060  0.57930  0.11040  Biso   1.000  H
  C109     1.0000 0.95440  0.49420  0.12080  Biso   1.000  C
  H43      1.0000 0.91470  0.50290  0.14290  Biso   1.000  H
  C110     1.0000 0.02140  0.42560  0.07910  Biso   1.000  C
  H44      1.0000 0.02920  0.38620  0.07210  Biso   1.000  H
  N31      1.0000 0.11170  0.40040  0.00380  Biso   1.000  N
  N32      1.0000 0.19060  0.48970  0.00070  Biso   1.000  N
  N33      1.0000 0.96190  0.43930  0.11140  Biso   1.000  N
  O41      1.0000 0.09520  0.31280  0.95220  Biso   1.000  O
  O42      1.0000 0.23030  0.34610  0.91560  Biso   1.000  O
  O43      1.0000 0.31270  0.46330  0.90840  Biso   1.000  O
  O44      1.0000 0.31600  0.54090  0.94750  Biso   1.000  O
  Zn12     1.0000 0.00907  0.82491  0.50154  Biso   1.000  Zn
  C111     1.0000 0.16830  0.85150  0.44420  Biso   1.000  C
  C112     1.0000 0.17490  0.90270  0.47070  Biso   1.000  C
  C113     1.0000 0.22220  0.95730  0.46880  Biso   1.000  C
  C114     1.0000 0.28950  0.98710  0.43970  Biso   1.000  C
  C115     1.0000 0.12380  0.95290  0.52110  Biso   1.000  C
  C116     1.0000 0.07020  0.96880  0.55660  Biso   1.000  C
  C117     1.0000 0.05750  0.02660  0.56790  Biso   1.000  C
  H45      1.0000 0.08780  0.05680  0.55320  Biso   1.000  H
  C118     1.0000 0.99850  0.04060  0.60180  Biso   1.000  C
  H46      1.0000 0.99060  0.07930  0.61040  Biso   1.000  H
  C119     1.0000 0.95440  0.99420  0.62080  Biso   1.000  C
  H47      1.0000 0.91470  0.00290  0.64290  Biso   1.000  H
  C120     1.0000 0.02140  0.92560  0.57910  Biso   1.000  C
  H48      1.0000 0.02920  0.88620  0.57210  Biso   1.000  H
  N34      1.0000 0.11170  0.90040  0.50380  Biso   1.000  N
  N35      1.0000 0.19060  0.98970  0.50070  Biso   1.000  N
  N36      1.0000 0.96190  0.93930  0.61140  Biso   1.000  N
  O45      1.0000 0.09520  0.81280  0.45220  Biso   1.000  O
  O46      1.0000 0.23030  0.84610  0.41560  Biso   1.000  O
  O47      1.0000 0.31270  0.96330  0.40840  Biso   1.000  O
  O48      1.0000 0.31600  0.04090  0.44750  Biso   1.000  O
  Zn13     1.0000 0.24093  0.42509  0.50154  Biso   1.000  Zn
  C121     1.0000 0.08170  0.39850  0.44420  Biso   1.000  C
  C122     1.0000 0.07510  0.34730  0.47070  Biso   1.000  C
  C123     1.0000 0.02780  0.29270  0.46880  Biso   1.000  C
  C124     1.0000 0.96050  0.26290  0.43970  Biso   1.000  C
  C125     1.0000 0.12620  0.29710  0.52110  Biso   1.000  C
  C126     1.0000 0.17980  0.28120  0.55660  Biso   1.000  C
  C127     1.0000 0.19250  0.22340  0.56790  Biso   1.000  C
  H49      1.0000 0.16220  0.19320  0.55320  Biso   1.000  H
  C128     1.0000 0.25150  0.20940  0.60180  Biso   1.000  C
  H50      1.0000 0.25940  0.17070  0.61040  Biso   1.000  H
  C129     1.0000 0.29560  0.25580  0.62080  Biso   1.000  C
  H51      1.0000 0.33530  0.24710  0.64290  Biso   1.000  H
  C130     1.0000 0.22860  0.32440  0.57910  Biso   1.000  C
  H52      1.0000 0.22080  0.36380  0.57210  Biso   1.000  H
  N37      1.0000 0.13830  0.34960  0.50380  Biso   1.000  N
  N38      1.0000 0.05940  0.26030  0.50070  Biso   1.000  N
  N39      1.0000 0.28810  0.31070  0.61140  Biso   1.000  N
  O49      1.0000 0.15480  0.43720  0.45220  Biso   1.000  O
  O50      1.0000 0.01970  0.40390  0.41560  Biso   1.000  O
  O51      1.0000 0.93730  0.28670  0.40840  Biso   1.000  O
  O52      1.0000 0.93400  0.20910  0.44750  Biso   1.000  O
  Zn14     1.0000 0.24093  0.92509  0.00154  Biso   1.000  Zn
  C131     1.0000 0.08170  0.89850  0.94420  Biso   1.000  C
  C132     1.0000 0.07510  0.84730  0.97070  Biso   1.000  C
  C133     1.0000 0.02780  0.79270  0.96880  Biso   1.000  C
  C134     1.0000 0.96050  0.76290  0.93970  Biso   1.000  C
  C135     1.0000 0.12620  0.79710  0.02110  Biso   1.000  C
  C136     1.0000 0.17980  0.78120  0.05660  Biso   1.000  C
  C137     1.0000 0.19250  0.72340  0.06790  Biso   1.000  C
  H53      1.0000 0.16220  0.69320  0.05320  Biso   1.000  H
  C138     1.0000 0.25150  0.70940  0.10180  Biso   1.000  C
  H54      1.0000 0.25940  0.67070  0.11040  Biso   1.000  H
  C139     1.0000 0.29560  0.75580  0.12080  Biso   1.000  C
  H55      1.0000 0.33530  0.74710  0.14290  Biso   1.000  H
  C140     1.0000 0.22860  0.82440  0.07910  Biso   1.000  C
  H56      1.0000 0.22080  0.86380  0.07210  Biso   1.000  H
  N40      1.0000 0.13830  0.84960  0.00380  Biso   1.000  N
  N41      1.0000 0.05940  0.76030  0.00070  Biso   1.000  N
  N42      1.0000 0.28810  0.81070  0.11140  Biso   1.000  N
  O53      1.0000 0.15480  0.93720  0.95220  Biso   1.000  O
  O54      1.0000 0.01970  0.90390  0.91560  Biso   1.000  O
  O55      1.0000 0.93730  0.78670  0.90840  Biso   1.000  O
  O56      1.0000 0.93400  0.70910  0.94750  Biso   1.000  O
  Zn15     1.0000 0.74093  0.42509  0.00154  Biso   1.000  Zn
  C141     1.0000 0.58170  0.39850  0.94420  Biso   1.000  C
  C142     1.0000 0.57510  0.34730  0.97070  Biso   1.000  C
  C143     1.0000 0.52780  0.29270  0.96880  Biso   1.000  C
  C144     1.0000 0.46050  0.26290  0.93970  Biso   1.000  C
  C145     1.0000 0.62620  0.29710  0.02110  Biso   1.000  C
  C146     1.0000 0.67980  0.28120  0.05660  Biso   1.000  C
  C147     1.0000 0.69250  0.22340  0.06790  Biso   1.000  C
  H57      1.0000 0.66220  0.19320  0.05320  Biso   1.000  H
  C148     1.0000 0.75150  0.20940  0.10180  Biso   1.000  C
  H58      1.0000 0.75940  0.17070  0.11040  Biso   1.000  H
  C149     1.0000 0.79560  0.25580  0.12080  Biso   1.000  C
  H59      1.0000 0.83530  0.24710  0.14290  Biso   1.000  H
  C150     1.0000 0.72860  0.32440  0.07910  Biso   1.000  C
  H60      1.0000 0.72080  0.36380  0.07210  Biso   1.000  H
  N43      1.0000 0.63830  0.34960  0.00380  Biso   1.000  N
  N44      1.0000 0.55940  0.26030  0.00070  Biso   1.000  N
  N45      1.0000 0.78810  0.31070  0.11140  Biso   1.000  N
  O57      1.0000 0.65480  0.43720  0.95220  Biso   1.000  O
  O58      1.0000 0.51970  0.40390  0.91560  Biso   1.000  O
  O59      1.0000 0.43730  0.28670  0.90840  Biso   1.000  O
  O60      1.0000 0.43400  0.20910  0.94750  Biso   1.000  O
  Zn16     1.0000 0.74093  0.92509  0.50154  Biso   1.000  Zn
  C151     1.0000 0.58170  0.89850  0.44420  Biso   1.000  C
  C152     1.0000 0.57510  0.84730  0.47070  Biso   1.000  C
  C153     1.0000 0.52780  0.79270  0.46880  Biso   1.000  C
  C154     1.0000 0.46050  0.76290  0.43970  Biso   1.000  C
  C155     1.0000 0.62620  0.79710  0.52110  Biso   1.000  C
  C156     1.0000 0.67980  0.78120  0.55660  Biso   1.000  C
  C157     1.0000 0.69250  0.72340  0.56790  Biso   1.000  C
  H61      1.0000 0.66220  0.69320  0.55320  Biso   1.000  H
  C158     1.0000 0.75150  0.70940  0.60180  Biso   1.000  C
  H62      1.0000 0.75940  0.67070  0.61040  Biso   1.000  H
  C159     1.0000 0.79560  0.75580  0.62080  Biso   1.000  C
  H63      1.0000 0.83530  0.74710  0.64290  Biso   1.000  H
  C160     1.0000 0.72860  0.82440  0.57910  Biso   1.000  C
  H64      1.0000 0.72080  0.86380  0.57210  Biso   1.000  H
  N46      1.0000 0.63830  0.84960  0.50380  Biso   1.000  N
  N47      1.0000 0.55940  0.76030  0.50070  Biso   1.000  N
  N48      1.0000 0.78810  0.81070  0.61140  Biso   1.000  N
  O61      1.0000 0.65480  0.93720  0.45220  Biso   1.000  O
  O62      1.0000 0.51970  0.90390  0.41560  Biso   1.000  O
  O63      1.0000 0.43730  0.78670  0.40840  Biso   1.000  O
  O64      1.0000 0.43400  0.70910  0.44750  Biso   1.000  O
  Zn17     1.0000 0.75907  0.67509  0.75154  Biso   1.000  Zn
  C161     1.0000 0.91830  0.64850  0.69420  Biso   1.000  C
  C162     1.0000 0.92490  0.59730  0.72070  Biso   1.000  C
  C163     1.0000 0.97220  0.54270  0.71880  Biso   1.000  C
  C164     1.0000 0.03950  0.51290  0.68970  Biso   1.000  C
  C165     1.0000 0.87380  0.54710  0.77110  Biso   1.000  C
  C166     1.0000 0.82020  0.53120  0.80660  Biso   1.000  C
  C167     1.0000 0.80750  0.47340  0.81790  Biso   1.000  C
  H65      1.0000 0.83780  0.44320  0.80320  Biso   1.000  H
  C168     1.0000 0.74850  0.45940  0.85180  Biso   1.000  C
  H66      1.0000 0.74060  0.42070  0.86040  Biso   1.000  H
  C169     1.0000 0.70440  0.50580  0.87080  Biso   1.000  C
  H67      1.0000 0.66470  0.49710  0.89290  Biso   1.000  H
  C170     1.0000 0.77140  0.57440  0.82910  Biso   1.000  C
  H68      1.0000 0.77920  0.61380  0.82210  Biso   1.000  H
  N49      1.0000 0.86170  0.59960  0.75380  Biso   1.000  N
  N50      1.0000 0.94060  0.51030  0.75070  Biso   1.000  N
  N51      1.0000 0.71190  0.56070  0.86140  Biso   1.000  N
  O65      1.0000 0.84520  0.68720  0.70220  Biso   1.000  O
  O66      1.0000 0.98030  0.65390  0.66560  Biso   1.000  O
  O67      1.0000 0.06270  0.53670  0.65840  Biso   1.000  O
  O68      1.0000 0.06600  0.45910  0.69750  Biso   1.000  O
  Zn18     1.0000 0.75907  0.17509  0.25154  Biso   1.000  Zn
  C171     1.0000 0.91830  0.14850  0.19420  Biso   1.000  C
  C172     1.0000 0.92490  0.09730  0.22070  Biso   1.000  C
  C173     1.0000 0.97220  0.04270  0.21880  Biso   1.000  C
  C174     1.0000 0.03950  0.01290  0.18970  Biso   1.000  C
  C175     1.0000 0.87380  0.04710  0.27110  Biso   1.000  C
  C176     1.0000 0.82020  0.03120  0.30660  Biso   1.000  C
  C177     1.0000 0.80750  0.97340  0.31790  Biso   1.000  C
  H69      1.0000 0.83780  0.94320  0.30320  Biso   1.000  H
  C178     1.0000 0.74850  0.95940  0.35180  Biso   1.000  C
  H70      1.0000 0.74060  0.92070  0.36040  Biso   1.000  H
  C179     1.0000 0.70440  0.00580  0.37080  Biso   1.000  C
  H71      1.0000 0.66470  0.99710  0.39290  Biso   1.000  H
  C180     1.0000 0.77140  0.07440  0.32910  Biso   1.000  C
  H72      1.0000 0.77920  0.11380  0.32210  Biso   1.000  H
  N52      1.0000 0.86170  0.09960  0.25380  Biso   1.000  N
  N53      1.0000 0.94060  0.01030  0.25070  Biso   1.000  N
  N54      1.0000 0.71190  0.06070  0.36140  Biso   1.000  N
  O69      1.0000 0.84520  0.18720  0.20220  Biso   1.000  O
  O70      1.0000 0.98030  0.15390  0.16560  Biso   1.000  O
  O71      1.0000 0.06270  0.03670  0.15840  Biso   1.000  O
  O72      1.0000 0.06600  0.95910  0.19750  Biso   1.000  O
  Zn19     1.0000 0.25907  0.67509  0.25154  Biso   1.000  Zn
  C181     1.0000 0.41830  0.64850  0.19420  Biso   1.000  C
  C182     1.0000 0.42490  0.59730  0.22070  Biso   1.000  C
  C183     1.0000 0.47220  0.54270  0.21880  Biso   1.000  C
  C184     1.0000 0.53950  0.51290  0.18970  Biso   1.000  C
  C185     1.0000 0.37380  0.54710  0.27110  Biso   1.000  C
  C186     1.0000 0.32020  0.53120  0.30660  Biso   1.000  C
  C187     1.0000 0.30750  0.47340  0.31790  Biso   1.000  C
  H73      1.0000 0.33780  0.44320  0.30320  Biso   1.000  H
  C188     1.0000 0.24850  0.45940  0.35180  Biso   1.000  C
  H74      1.0000 0.24060  0.42070  0.36040  Biso   1.000  H
  C189     1.0000 0.20440  0.50580  0.37080  Biso   1.000  C
  H75      1.0000 0.16470  0.49710  0.39290  Biso   1.000  H
  C190     1.0000 0.27140  0.57440  0.32910  Biso   1.000  C
  H76      1.0000 0.27920  0.61380  0.32210  Biso   1.000  H
  N55      1.0000 0.36170  0.59960  0.25380  Biso   1.000  N
  N56      1.0000 0.44060  0.51030  0.25070  Biso   1.000  N
  N57      1.0000 0.21190  0.56070  0.36140  Biso   1.000  N
  O73      1.0000 0.34520  0.68720  0.20220  Biso   1.000  O
  O74      1.0000 0.48030  0.65390  0.16560  Biso   1.000  O
  O75      1.0000 0.56270  0.53670  0.15840  Biso   1.000  O
  O76      1.0000 0.56600  0.45910  0.19750  Biso   1.000  O
  Zn20     1.0000 0.25907  0.17509  0.75154  Biso   1.000  Zn
  C191     1.0000 0.41830  0.14850  0.69420  Biso   1.000  C
  C192     1.0000 0.42490  0.09730  0.72070  Biso   1.000  C
  C193     1.0000 0.47220  0.04270  0.71880  Biso   1.000  C
  C194     1.0000 0.53950  0.01290  0.68970  Biso   1.000  C
  C195     1.0000 0.37380  0.04710  0.77110  Biso   1.000  C
  C196     1.0000 0.32020  0.03120  0.80660  Biso   1.000  C
  C197     1.0000 0.30750  0.97340  0.81790  Biso   1.000  C
  H77      1.0000 0.33780  0.94320  0.80320  Biso   1.000  H
  C198     1.0000 0.24850  0.95940  0.85180  Biso   1.000  C
  H78      1.0000 0.24060  0.92070  0.86040  Biso   1.000  H
  C199     1.0000 0.20440  0.00580  0.87080  Biso   1.000  C
  H79      1.0000 0.16470  0.99710  0.89290  Biso   1.000  H
  C200     1.0000 0.27140  0.07440  0.82910  Biso   1.000  C
  H80      1.0000 0.27920  0.11380  0.82210  Biso   1.000  H
  N58      1.0000 0.36170  0.09960  0.75380  Biso   1.000  N
  N59      1.0000 0.44060  0.01030  0.75070  Biso   1.000  N
  N60      1.0000 0.21190  0.06070  0.86140  Biso   1.000  N
  O77      1.0000 0.34520  0.18720  0.70220  Biso   1.000  O
  O78      1.0000 0.48030  0.15390  0.66560  Biso   1.000  O
  O79      1.0000 0.56270  0.03670  0.65840  Biso   1.000  O
  O80      1.0000 0.56600  0.95910  0.69750  Biso   1.000  O
  Zn21     1.0000 0.49093  0.57491  0.75154  Biso   1.000  Zn
  C201     1.0000 0.33170  0.60150  0.69420  Biso   1.000  C
  C202     1.0000 0.32510  0.65270  0.72070  Biso   1.000  C
  C203     1.0000 0.27780  0.70730  0.71880  Biso   1.000  C
  C204     1.0000 0.21050  0.73710  0.68970  Biso   1.000  C
  C205     1.0000 0.37620  0.70290  0.77110  Biso   1.000  C
  C206     1.0000 0.42980  0.71880  0.80660  Biso   1.000  C
  C207     1.0000 0.44250  0.77660  0.81790  Biso   1.000  C
  H81      1.0000 0.41220  0.80680  0.80320  Biso   1.000  H
  C208     1.0000 0.50150  0.79060  0.85180  Biso   1.000  C
  H82      1.0000 0.50940  0.82930  0.86040  Biso   1.000  H
  C209     1.0000 0.54560  0.74420  0.87080  Biso   1.000  C
  H83      1.0000 0.58530  0.75290  0.89290  Biso   1.000  H
  C210     1.0000 0.47860  0.67560  0.82910  Biso   1.000  C
  H84      1.0000 0.47080  0.63620  0.82210  Biso   1.000  H
  N61      1.0000 0.38830  0.65040  0.75380  Biso   1.000  N
  N62      1.0000 0.30940  0.73970  0.75070  Biso   1.000  N
  N63      1.0000 0.53810  0.68930  0.86140  Biso   1.000  N
  O81      1.0000 0.40480  0.56280  0.70220  Biso   1.000  O
  O82      1.0000 0.26970  0.59610  0.66560  Biso   1.000  O
  O83      1.0000 0.18730  0.71330  0.65840  Biso   1.000  O
  O84      1.0000 0.18400  0.79090  0.69750  Biso   1.000  O
  Zn22     1.0000 0.49093  0.07491  0.25154  Biso   1.000  Zn
  C211     1.0000 0.33170  0.10150  0.19420  Biso   1.000  C
  C212     1.0000 0.32510  0.15270  0.22070  Biso   1.000  C
  C213     1.0000 0.27780  0.20730  0.21880  Biso   1.000  C
  C214     1.0000 0.21050  0.23710  0.18970  Biso   1.000  C
  C215     1.0000 0.37620  0.20290  0.27110  Biso   1.000  C
  C216     1.0000 0.42980  0.21880  0.30660  Biso   1.000  C
  C217     1.0000 0.44250  0.27660  0.31790  Biso   1.000  C
  H85      1.0000 0.41220  0.30680  0.30320  Biso   1.000  H
  C218     1.0000 0.50150  0.29060  0.35180  Biso   1.000  C
  H86      1.0000 0.50940  0.32930  0.36040  Biso   1.000  H
  C219     1.0000 0.54560  0.24420  0.37080  Biso   1.000  C
  H87      1.0000 0.58530  0.25290  0.39290  Biso   1.000  H
  C220     1.0000 0.47860  0.17560  0.32910  Biso   1.000  C
  H88      1.0000 0.47080  0.13620  0.32210  Biso   1.000  H
  N64      1.0000 0.38830  0.15040  0.25380  Biso   1.000  N
  N65      1.0000 0.30940  0.23970  0.25070  Biso   1.000  N
  N66      1.0000 0.53810  0.18930  0.36140  Biso   1.000  N
  O85      1.0000 0.40480  0.06280  0.20220  Biso   1.000  O
  O86      1.0000 0.26970  0.09610  0.16560  Biso   1.000  O
  O87      1.0000 0.18730  0.21330  0.15840  Biso   1.000  O
  O88      1.0000 0.18400  0.29090  0.19750  Biso   1.000  O
  Zn23     1.0000 0.99093  0.57491  0.25154  Biso   1.000  Zn
  C221     1.0000 0.83170  0.60150  0.19420  Biso   1.000  C
  C222     1.0000 0.82510  0.65270  0.22070  Biso   1.000  C
  C223     1.0000 0.77780  0.70730  0.21880  Biso   1.000  C
  C224     1.0000 0.71050  0.73710  0.18970  Biso   1.000  C
  C225     1.0000 0.87620  0.70290  0.27110  Biso   1.000  C
  C226     1.0000 0.92980  0.71880  0.30660  Biso   1.000  C
  C227     1.0000 0.94250  0.77660  0.31790  Biso   1.000  C
  H89      1.0000 0.91220  0.80680  0.30320  Biso   1.000  H
  C228     1.0000 0.00150  0.79060  0.35180  Biso   1.000  C
  H90      1.0000 0.00940  0.82930  0.36040  Biso   1.000  H
  C229     1.0000 0.04560  0.74420  0.37080  Biso   1.000  C
  H91      1.0000 0.08530  0.75290  0.39290  Biso   1.000  H
  C230     1.0000 0.97860  0.67560  0.32910  Biso   1.000  C
  H92      1.0000 0.97080  0.63620  0.32210  Biso   1.000  H
  N67      1.0000 0.88830  0.65040  0.25380  Biso   1.000  N
  N68      1.0000 0.80940  0.73970  0.25070  Biso   1.000  N
  N69      1.0000 0.03810  0.68930  0.36140  Biso   1.000  N
  O89      1.0000 0.90480  0.56280  0.20220  Biso   1.000  O
  O90      1.0000 0.76970  0.59610  0.16560  Biso   1.000  O
  O91      1.0000 0.68730  0.71330  0.15840  Biso   1.000  O
  O92      1.0000 0.68400  0.79090  0.19750  Biso   1.000  O
  Zn24     1.0000 0.99093  0.07491  0.75154  Biso   1.000  Zn
  C231     1.0000 0.83170  0.10150  0.69420  Biso   1.000  C
  C232     1.0000 0.82510  0.15270  0.72070  Biso   1.000  C
  C233     1.0000 0.77780  0.20730  0.71880  Biso   1.000  C
  C234     1.0000 0.71050  0.23710  0.68970  Biso   1.000  C
  C235     1.0000 0.87620  0.20290  0.77110  Biso   1.000  C
  C236     1.0000 0.92980  0.21880  0.80660  Biso   1.000  C
  C237     1.0000 0.94250  0.27660  0.81790  Biso   1.000  C
  H93      1.0000 0.91220  0.30680  0.80320  Biso   1.000  H
  C238     1.0000 0.00150  0.29060  0.85180  Biso   1.000  C
  H94      1.0000 0.00940  0.32930  0.86040  Biso   1.000  H
  C239     1.0000 0.04560  0.24420  0.87080  Biso   1.000  C
  H95      1.0000 0.08530  0.25290  0.89290  Biso   1.000  H
  C240     1.0000 0.97860  0.17560  0.82910  Biso   1.000  C
  H96      1.0000 0.97080  0.13620  0.82210  Biso   1.000  H
  N70      1.0000 0.88830  0.15040  0.75380  Biso   1.000  N
  N71      1.0000 0.80940  0.23970  0.75070  Biso   1.000  N
  N72      1.0000 0.03810  0.18930  0.86140  Biso   1.000  N
  O93      1.0000 0.90480  0.06280  0.70220  Biso   1.000  O
  O94      1.0000 0.76970  0.09610  0.66560  Biso   1.000  O
  O95      1.0000 0.68730  0.21330  0.65840  Biso   1.000  O
  O96      1.0000 0.68400  0.29090  0.69750  Biso   1.000  O
  Zn25     1.0000 0.49093  0.67509  0.49846  Biso   1.000  Zn
  C241     1.0000 0.33170  0.64850  0.55580  Biso   1.000  C
  C242     1.0000 0.32510  0.59730  0.52930  Biso   1.000  C
  C243     1.0000 0.27780  0.54270  0.53120  Biso   1.000  C
  C244     1.0000 0.21050  0.51290  0.56030  Biso   1.000  C
  C245     1.0000 0.37620  0.54710  0.47890  Biso   1.000  C
  C246     1.0000 0.42980  0.53120  0.44340  Biso   1.000  C
  C247     1.0000 0.44250  0.47340  0.43210  Biso   1.000  C
  H97      1.0000 0.41220  0.44320  0.44680  Biso   1.000  H
  C248     1.0000 0.50150  0.45940  0.39820  Biso   1.000  C
  H98      1.0000 0.50940  0.42070  0.38960  Biso   1.000  H
  C249     1.0000 0.54560  0.50580  0.37920  Biso   1.000  C
  H99      1.0000 0.58530  0.49710  0.35710  Biso   1.000  H
  C250     1.0000 0.47860  0.57440  0.42090  Biso   1.000  C
  H100     1.0000 0.47080  0.61380  0.42790  Biso   1.000  H
  N73      1.0000 0.38830  0.59960  0.49620  Biso   1.000  N
  N74      1.0000 0.30940  0.51030  0.49930  Biso   1.000  N
  N75      1.0000 0.53810  0.56070  0.38860  Biso   1.000  N
  O97      1.0000 0.40480  0.68720  0.54780  Biso   1.000  O
  O98      1.0000 0.26970  0.65390  0.58440  Biso   1.000  O
  O99      1.0000 0.18730  0.53670  0.59160  Biso   1.000  O
  O100     1.0000 0.18400  0.45910  0.55250  Biso   1.000  O
  Zn26     1.0000 0.49093  0.17509  0.99846  Biso   1.000  Zn
  C251     1.0000 0.33170  0.14850  0.05580  Biso   1.000  C
  C252     1.0000 0.32510  0.09730  0.02930  Biso   1.000  C
  C253     1.0000 0.27780  0.04270  0.03120  Biso   1.000  C
  C254     1.0000 0.21050  0.01290  0.06030  Biso   1.000  C
  C255     1.0000 0.37620  0.04710  0.97890  Biso   1.000  C
  C256     1.0000 0.42980  0.03120  0.94340  Biso   1.000  C
  C257     1.0000 0.44250  0.97340  0.93210  Biso   1.000  C
  H101     1.0000 0.41220  0.94320  0.94680  Biso   1.000  H
  C258     1.0000 0.50150  0.95940  0.89820  Biso   1.000  C
  H102     1.0000 0.50940  0.92070  0.88960  Biso   1.000  H
  C259     1.0000 0.54560  0.00580  0.87920  Biso   1.000  C
  H103     1.0000 0.58530  0.99710  0.85710  Biso   1.000  H
  C260     1.0000 0.47860  0.07440  0.92090  Biso   1.000  C
  H104     1.0000 0.47080  0.11380  0.92790  Biso   1.000  H
  N76      1.0000 0.38830  0.09960  0.99620  Biso   1.000  N
  N77      1.0000 0.30940  0.01030  0.99930  Biso   1.000  N
  N78      1.0000 0.53810  0.06070  0.88860  Biso   1.000  N
  O101     1.0000 0.40480  0.18720  0.04780  Biso   1.000  O
  O102     1.0000 0.26970  0.15390  0.08440  Biso   1.000  O
  O103     1.0000 0.18730  0.03670  0.09160  Biso   1.000  O
  O104     1.0000 0.18400  0.95910  0.05250  Biso   1.000  O
  Zn27     1.0000 0.99093  0.67509  0.99846  Biso   1.000  Zn
  C261     1.0000 0.83170  0.64850  0.05580  Biso   1.000  C
  C262     1.0000 0.82510  0.59730  0.02930  Biso   1.000  C
  C263     1.0000 0.77780  0.54270  0.03120  Biso   1.000  C
  C264     1.0000 0.71050  0.51290  0.06030  Biso   1.000  C
  C265     1.0000 0.87620  0.54710  0.97890  Biso   1.000  C
  C266     1.0000 0.92980  0.53120  0.94340  Biso   1.000  C
  C267     1.0000 0.94250  0.47340  0.93210  Biso   1.000  C
  H105     1.0000 0.91220  0.44320  0.94680  Biso   1.000  H
  C268     1.0000 0.00150  0.45940  0.89820  Biso   1.000  C
  H106     1.0000 0.00940  0.42070  0.88960  Biso   1.000  H
  C269     1.0000 0.04560  0.50580  0.87920  Biso   1.000  C
  H107     1.0000 0.08530  0.49710  0.85710  Biso   1.000  H
  C270     1.0000 0.97860  0.57440  0.92090  Biso   1.000  C
  H108     1.0000 0.97080  0.61380  0.92790  Biso   1.000  H
  N79      1.0000 0.88830  0.59960  0.99620  Biso   1.000  N
  N80      1.0000 0.80940  0.51030  0.99930  Biso   1.000  N
  N81      1.0000 0.03810  0.56070  0.88860  Biso   1.000  N
  O105     1.0000 0.90480  0.68720  0.04780  Biso   1.000  O
  O106     1.0000 0.76970  0.65390  0.08440  Biso   1.000  O
  O107     1.0000 0.68730  0.53670  0.09160  Biso   1.000  O
  O108     1.0000 0.68400  0.45910  0.05250  Biso   1.000  O
  Zn28     1.0000 0.99093  0.17509  0.49846  Biso   1.000  Zn
  C271     1.0000 0.83170  0.14850  0.55580  Biso   1.000  C
  C272     1.0000 0.82510  0.09730  0.52930  Biso   1.000  C
  C273     1.0000 0.77780  0.04270  0.53120  Biso   1.000  C
  C274     1.0000 0.71050  0.01290  0.56030  Biso   1.000  C
  C275     1.0000 0.87620  0.04710  0.47890  Biso   1.000  C
  C276     1.0000 0.92980  0.03120  0.44340  Biso   1.000  C
  C277     1.0000 0.94250  0.97340  0.43210  Biso   1.000  C
  H109     1.0000 0.91220  0.94320  0.44680  Biso   1.000  H
  C278     1.0000 0.00150  0.95940  0.39820  Biso   1.000  C
  H110     1.0000 0.00940  0.92070  0.38960  Biso   1.000  H
  C279     1.0000 0.04560  0.00580  0.37920  Biso   1.000  C
  H111     1.0000 0.08530  0.99710  0.35710  Biso   1.000  H
  C280     1.0000 0.97860  0.07440  0.42090  Biso   1.000  C
  H112     1.0000 0.97080  0.11380  0.42790  Biso   1.000  H
  N82      1.0000 0.88830  0.09960  0.49620  Biso   1.000  N
  N83      1.0000 0.80940  0.01030  0.49930  Biso   1.000  N
  N84      1.0000 0.03810  0.06070  0.38860  Biso   1.000  N
  O109     1.0000 0.90480  0.18720  0.54780  Biso   1.000  O
  O110     1.0000 0.76970  0.15390  0.58440  Biso   1.000  O
  O111     1.0000 0.68730  0.03670  0.59160  Biso   1.000  O
  O112     1.0000 0.68400  0.95910  0.55250  Biso   1.000  O
  Zn29     1.0000 0.75907  0.57491  0.49846  Biso   1.000  Zn
  C281     1.0000 0.91830  0.60150  0.55580  Biso   1.000  C
  C282     1.0000 0.92490  0.65270  0.52930  Biso   1.000  C
  C283     1.0000 0.97220  0.70730  0.53120  Biso   1.000  C
  C284     1.0000 0.03950  0.73710  0.56030  Biso   1.000  C
  C285     1.0000 0.87380  0.70290  0.47890  Biso   1.000  C
  C286     1.0000 0.82020  0.71880  0.44340  Biso   1.000  C
  C287     1.0000 0.80750  0.77660  0.43210  Biso   1.000  C
  H113     1.0000 0.83780  0.80680  0.44680  Biso   1.000  H
  C288     1.0000 0.74850  0.79060  0.39820  Biso   1.000  C
  H114     1.0000 0.74060  0.82930  0.38960  Biso   1.000  H
  C289     1.0000 0.70440  0.74420  0.37920  Biso   1.000  C
  H115     1.0000 0.66470  0.75290  0.35710  Biso   1.000  H
  C290     1.0000 0.77140  0.67560  0.42090  Biso   1.000  C
  H116     1.0000 0.77920  0.63620  0.42790  Biso   1.000  H
  N85      1.0000 0.86170  0.65040  0.49620  Biso   1.000  N
  N86      1.0000 0.94060  0.73970  0.49930  Biso   1.000  N
  N87      1.0000 0.71190  0.68930  0.38860  Biso   1.000  N
  O113     1.0000 0.84520  0.56280  0.54780  Biso   1.000  O
  O114     1.0000 0.98030  0.59610  0.58440  Biso   1.000  O
  O115     1.0000 0.06270  0.71330  0.59160  Biso   1.000  O
  O116     1.0000 0.06600  0.79090  0.55250  Biso   1.000  O
  Zn30     1.0000 0.75907  0.07491  0.99846  Biso   1.000  Zn
  C291     1.0000 0.91830  0.10150  0.05580  Biso   1.000  C
  C292     1.0000 0.92490  0.15270  0.02930  Biso   1.000  C
  C293     1.0000 0.97220  0.20730  0.03120  Biso   1.000  C
  C294     1.0000 0.03950  0.23710  0.06030  Biso   1.000  C
  C295     1.0000 0.87380  0.20290  0.97890  Biso   1.000  C
  C296     1.0000 0.82020  0.21880  0.94340  Biso   1.000  C
  C297     1.0000 0.80750  0.27660  0.93210  Biso   1.000  C
  H117     1.0000 0.83780  0.30680  0.94680  Biso   1.000  H
  C298     1.0000 0.74850  0.29060  0.89820  Biso   1.000  C
  H118     1.0000 0.74060  0.32930  0.88960  Biso   1.000  H
  C299     1.0000 0.70440  0.24420  0.87920  Biso   1.000  C
  H119     1.0000 0.66470  0.25290  0.85710  Biso   1.000  H
  C300     1.0000 0.77140  0.17560  0.92090  Biso   1.000  C
  H120     1.0000 0.77920  0.13620  0.92790  Biso   1.000  H
  N88      1.0000 0.86170  0.15040  0.99620  Biso   1.000  N
  N89      1.0000 0.94060  0.23970  0.99930  Biso   1.000  N
  N90      1.0000 0.71190  0.18930  0.88860  Biso   1.000  N
  O117     1.0000 0.84520  0.06280  0.04780  Biso   1.000  O
  O118     1.0000 0.98030  0.09610  0.08440  Biso   1.000  O
  O119     1.0000 0.06270  0.21330  0.09160  Biso   1.000  O
  O120     1.0000 0.06600  0.29090  0.05250  Biso   1.000  O
  Zn31     1.0000 0.25907  0.57491  0.99846  Biso   1.000  Zn
  C301     1.0000 0.41830  0.60150  0.05580  Biso   1.000  C
  C302     1.0000 0.42490  0.65270  0.02930  Biso   1.000  C
  C303     1.0000 0.47220  0.70730  0.03120  Biso   1.000  C
  C304     1.0000 0.53950  0.73710  0.06030  Biso   1.000  C
  C305     1.0000 0.37380  0.70290  0.97890  Biso   1.000  C
  C306     1.0000 0.32020  0.71880  0.94340  Biso   1.000  C
  C307     1.0000 0.30750  0.77660  0.93210  Biso   1.000  C
  H121     1.0000 0.33780  0.80680  0.94680  Biso   1.000  H
  C308     1.0000 0.24850  0.79060  0.89820  Biso   1.000  C
  H122     1.0000 0.24060  0.82930  0.88960  Biso   1.000  H
  C309     1.0000 0.20440  0.74420  0.87920  Biso   1.000  C
  H123     1.0000 0.16470  0.75290  0.85710  Biso   1.000  H
  C310     1.0000 0.27140  0.67560  0.92090  Biso   1.000  C
  H124     1.0000 0.27920  0.63620  0.92790  Biso   1.000  H
  N91      1.0000 0.36170  0.65040  0.99620  Biso   1.000  N
  N92      1.0000 0.44060  0.73970  0.99930  Biso   1.000  N
  N93      1.0000 0.21190  0.68930  0.88860  Biso   1.000  N
  O121     1.0000 0.34520  0.56280  0.04780  Biso   1.000  O
  O122     1.0000 0.48030  0.59610  0.08440  Biso   1.000  O
  O123     1.0000 0.56270  0.71330  0.09160  Biso   1.000  O
  O124     1.0000 0.56600  0.79090  0.05250  Biso   1.000  O
  Zn32     1.0000 0.25907  0.07491  0.49846  Biso   1.000  Zn
  C311     1.0000 0.41830  0.10150  0.55580  Biso   1.000  C
  C312     1.0000 0.42490  0.15270  0.52930  Biso   1.000  C
  C313     1.0000 0.47220  0.20730  0.53120  Biso   1.000  C
  C314     1.0000 0.53950  0.23710  0.56030  Biso   1.000  C
  C315     1.0000 0.37380  0.20290  0.47890  Biso   1.000  C
  C316     1.0000 0.32020  0.21880  0.44340  Biso   1.000  C
  C317     1.0000 0.30750  0.27660  0.43210  Biso   1.000  C
  H125     1.0000 0.33780  0.30680  0.44680  Biso   1.000  H
  C318     1.0000 0.24850  0.29060  0.39820  Biso   1.000  C
  H126     1.0000 0.24060  0.32930  0.38960  Biso   1.000  H
  C319     1.0000 0.20440  0.24420  0.37920  Biso   1.000  C
  H127     1.0000 0.16470  0.25290  0.35710  Biso   1.000  H
  C320     1.0000 0.27140  0.17560  0.42090  Biso   1.000  C
  H128     1.0000 0.27920  0.13620  0.42790  Biso   1.000  H
  N94      1.0000 0.36170  0.15040  0.49620  Biso   1.000  N
  N95      1.0000 0.44060  0.23970  0.49930  Biso   1.000  N
  N96      1.0000 0.21190  0.18930  0.38860  Biso   1.000  N
  O125     1.0000 0.34520  0.06280  0.54780  Biso   1.000  O
  O126     1.0000 0.48030  0.09610  0.58440  Biso   1.000  O
  O127     1.0000 0.56270  0.21330  0.59160  Biso   1.000  O
  O128     1.0000 0.56600  0.29090  0.55250  Biso   1.000  O
  Sm1      1.0000 0.87500  0.37500  0.37500  Biso   1.000  Sm
  Sm2      1.0000 0.87500  0.87500  0.87500  Biso   1.000  Sm
  Sm3      1.0000 0.37500  0.37500  0.87500  Biso   1.000  Sm
  Sm4      1.0000 0.37500  0.87500  0.37500  Biso   1.000  Sm
  Sm5      1.0000 0.12500  0.62500  0.62500  Biso   1.000  Sm
  Sm6      1.0000 0.12500  0.12500  0.12500  Biso   1.000  Sm
  Sm7      1.0000 0.62500  0.62500  0.12500  Biso   1.000  Sm
  Sm8      1.0000 0.62500  0.12500  0.62500  Biso   1.000  Sm
  Zn33     1.0000 0.37500  0.37500  0.10846  Biso   1.000  Zn
  Cl1      1.0000 0.37500  0.37500  0.24280  Biso   1.000  Cl
  Zn34     1.0000 0.37500  0.87500  0.60846  Biso   1.000  Zn
  Cl2      1.0000 0.37500  0.87500  0.74280  Biso   1.000  Cl
  Zn35     1.0000 0.87500  0.37500  0.60846  Biso   1.000  Zn
  Cl3      1.0000 0.87500  0.37500  0.74280  Biso   1.000  Cl
  Zn36     1.0000 0.87500  0.87500  0.10846  Biso   1.000  Zn
  Cl4      1.0000 0.87500  0.87500  0.24280  Biso   1.000  Cl
  Zn37     1.0000 0.37500  0.37500  0.64154  Biso   1.000  Zn
  Cl5      1.0000 0.37500  0.37500  0.50720  Biso   1.000  Cl
  Zn38     1.0000 0.37500  0.87500  0.14154  Biso   1.000  Zn
  Cl6      1.0000 0.37500  0.87500  0.00720  Biso   1.000  Cl
  Zn39     1.0000 0.87500  0.37500  0.14154  Biso   1.000  Zn
  Cl7      1.0000 0.87500  0.37500  0.00720  Biso   1.000  Cl
  Zn40     1.0000 0.87500  0.87500  0.64154  Biso   1.000  Zn
  Cl8      1.0000 0.87500  0.87500  0.50720  Biso   1.000  Cl
  Zn41     1.0000 0.62500  0.62500  0.89154  Biso   1.000  Zn
  Cl9      1.0000 0.62500  0.62500  0.75720  Biso   1.000  Cl
  Zn42     1.0000 0.62500  0.12500  0.39154  Biso   1.000  Zn
  Cl10     1.0000 0.62500  0.12500  0.25720  Biso   1.000  Cl
  Zn43     1.0000 0.12500  0.62500  0.39154  Biso   1.000  Zn
  Cl11     1.0000 0.12500  0.62500  0.25720  Biso   1.000  Cl
  Zn44     1.0000 0.12500  0.12500  0.89154  Biso   1.000  Zn
  Cl12     1.0000 0.12500  0.12500  0.75720  Biso   1.000  Cl
  Zn45     1.0000 0.62500  0.62500  0.35846  Biso   1.000  Zn
  Cl13     1.0000 0.62500  0.62500  0.49280  Biso   1.000  Cl
  Zn46     1.0000 0.62500  0.12500  0.85846  Biso   1.000  Zn
  Cl14     1.0000 0.62500  0.12500  0.99280  Biso   1.000  Cl
  Zn47     1.0000 0.12500  0.62500  0.85846  Biso   1.000  Zn
  Cl15     1.0000 0.12500  0.62500  0.99280  Biso   1.000  Cl
  Zn48     1.0000 0.12500  0.12500  0.35846  Biso   1.000  Zn
  Cl16     1.0000 0.12500  0.12500  0.49280  Biso   1.000  Cl
