data_image0
_cell_length_a       12.284
_cell_length_b       22.733
_cell_length_c       34.4
_cell_angle_alpha    90
_cell_angle_beta     90
_cell_angle_gamma    90

_symmetry_space_group_name_H-M    "P 1"
_symmetry_int_tables_number       1

loop_
  _symmetry_equiv_pos_as_xyz
  'x, y, z'

loop_
  _atom_site_label
  _atom_site_occupancy
  _atom_site_fract_x
  _atom_site_fract_y
  _atom_site_fract_z
  _atom_site_thermal_displace_type
  _atom_site_B_iso_or_equiv
  _atom_site_type_symbol
  Zn1      1.0000 0.99285  0.57511  0.75190  Biso   1.000  Zn
  N1       1.0000 0.06260  0.48980  0.74920  Biso   1.000  N
  N2       1.0000 0.13880  0.40010  0.74546  Biso   1.000  N
  O1       1.0000 0.93700  0.54120  0.80313  Biso   1.000  O
  O2       1.0000 0.93800  0.46340  0.84169  Biso   1.000  O
  C1       1.0000 0.12700  0.45260  0.72900  Biso   1.000  C
  O3       1.0000 0.01870  0.34610  0.83361  Biso   1.000  O
  O4       1.0000 0.15260  0.31240  0.79677  Biso   1.000  O
  C2       1.0000 0.07690  0.40250  0.77909  Biso   1.000  C
  C3       1.0000 0.03020  0.45750  0.78092  Biso   1.000  C
  C4       1.0000 0.18350  0.46880  0.69260  Biso   1.000  C
  N3       1.0000 0.29270  0.43880  0.63792  Biso   1.000  N
  C5       1.0000 0.07980  0.35120  0.80538  Biso   1.000  C
  C6       1.0000 0.25450  0.53990  0.64790  Biso   1.000  C
  H1       1.0000 0.26300  0.57860  0.63960  Biso   1.000  H
  C7       1.0000 0.19490  0.52720  0.68090  Biso   1.000  C
  H2       1.0000 0.16280  0.55730  0.69510  Biso   1.000  H
  C8       1.0000 0.30090  0.49450  0.62740  Biso   1.000  C
  H3       1.0000 0.34010  0.50340  0.60500  Biso   1.000  H
  C9       1.0000 0.96250  0.48770  0.81080  Biso   1.000  C
  C10      1.0000 0.23330  0.42580  0.66970  Biso   1.000  C
  H4       1.0000 0.22510  0.38660  0.67670  Biso   1.000  H
  Zn2      1.0000 0.99285  0.07511  0.25190  Biso   1.000  Zn
  N4       1.0000 0.06260  0.98980  0.24920  Biso   1.000  N
  N5       1.0000 0.13880  0.90010  0.24546  Biso   1.000  N
  O5       1.0000 0.93700  0.04120  0.30313  Biso   1.000  O
  O6       1.0000 0.93800  0.96340  0.34169  Biso   1.000  O
  C11      1.0000 0.12700  0.95260  0.22900  Biso   1.000  C
  O7       1.0000 0.01870  0.84610  0.33361  Biso   1.000  O
  O8       1.0000 0.15260  0.81240  0.29677  Biso   1.000  O
  C12      1.0000 0.07690  0.90250  0.27909  Biso   1.000  C
  C13      1.0000 0.03020  0.95750  0.28092  Biso   1.000  C
  C14      1.0000 0.18350  0.96880  0.19260  Biso   1.000  C
  N6       1.0000 0.29270  0.93880  0.13792  Biso   1.000  N
  C15      1.0000 0.07980  0.85120  0.30538  Biso   1.000  C
  C16      1.0000 0.25450  0.03990  0.14790  Biso   1.000  C
  H5       1.0000 0.26300  0.07860  0.13960  Biso   1.000  H
  C17      1.0000 0.19490  0.02720  0.18090  Biso   1.000  C
  H6       1.0000 0.16280  0.05730  0.19510  Biso   1.000  H
  C18      1.0000 0.30090  0.99450  0.12740  Biso   1.000  C
  H7       1.0000 0.34010  0.00340  0.10500  Biso   1.000  H
  C19      1.0000 0.96250  0.98770  0.31080  Biso   1.000  C
  C20      1.0000 0.23330  0.92580  0.16970  Biso   1.000  C
  H8       1.0000 0.22510  0.88660  0.17670  Biso   1.000  H
  Zn3      1.0000 0.49285  0.57511  0.25190  Biso   1.000  Zn
  N7       1.0000 0.56260  0.48980  0.24920  Biso   1.000  N
  N8       1.0000 0.63880  0.40010  0.24546  Biso   1.000  N
  O9       1.0000 0.43700  0.54120  0.30313  Biso   1.000  O
  O10      1.0000 0.43800  0.46340  0.34169  Biso   1.000  O
  C21      1.0000 0.62700  0.45260  0.22900  Biso   1.000  C
  O11      1.0000 0.51870  0.34610  0.33361  Biso   1.000  O
  O12      1.0000 0.65260  0.31240  0.29677  Biso   1.000  O
  C22      1.0000 0.57690  0.40250  0.27909  Biso   1.000  C
  C23      1.0000 0.53020  0.45750  0.28092  Biso   1.000  C
  C24      1.0000 0.68350  0.46880  0.19260  Biso   1.000  C
  N9       1.0000 0.79270  0.43880  0.13792  Biso   1.000  N
  C25      1.0000 0.57980  0.35120  0.30538  Biso   1.000  C
  C26      1.0000 0.75450  0.53990  0.14790  Biso   1.000  C
  H9       1.0000 0.76300  0.57860  0.13960  Biso   1.000  H
  C27      1.0000 0.69490  0.52720  0.18090  Biso   1.000  C
  H10      1.0000 0.66280  0.55730  0.19510  Biso   1.000  H
  C28      1.0000 0.80090  0.49450  0.12740  Biso   1.000  C
  H11      1.0000 0.84010  0.50340  0.10500  Biso   1.000  H
  C29      1.0000 0.46250  0.48770  0.31080  Biso   1.000  C
  C30      1.0000 0.73330  0.42580  0.16970  Biso   1.000  C
  H12      1.0000 0.72510  0.38660  0.17670  Biso   1.000  H
  Zn4      1.0000 0.49285  0.07511  0.75190  Biso   1.000  Zn
  N10      1.0000 0.56260  0.98980  0.74920  Biso   1.000  N
  N11      1.0000 0.63880  0.90010  0.74546  Biso   1.000  N
  O13      1.0000 0.43700  0.04120  0.80313  Biso   1.000  O
  O14      1.0000 0.43800  0.96340  0.84169  Biso   1.000  O
  C31      1.0000 0.62700  0.95260  0.72900  Biso   1.000  C
  O15      1.0000 0.51870  0.84610  0.83361  Biso   1.000  O
  O16      1.0000 0.65260  0.81240  0.79677  Biso   1.000  O
  C32      1.0000 0.57690  0.90250  0.77909  Biso   1.000  C
  C33      1.0000 0.53020  0.95750  0.78092  Biso   1.000  C
  C34      1.0000 0.68350  0.96880  0.69260  Biso   1.000  C
  N12      1.0000 0.79270  0.93880  0.63792  Biso   1.000  N
  C35      1.0000 0.57980  0.85120  0.80538  Biso   1.000  C
  C36      1.0000 0.75450  0.03990  0.64790  Biso   1.000  C
  H13      1.0000 0.76300  0.07860  0.63960  Biso   1.000  H
  C37      1.0000 0.69490  0.02720  0.68090  Biso   1.000  C
  H14      1.0000 0.66280  0.05730  0.69510  Biso   1.000  H
  C38      1.0000 0.80090  0.99450  0.62740  Biso   1.000  C
  H15      1.0000 0.84010  0.00340  0.60500  Biso   1.000  H
  C39      1.0000 0.46250  0.98770  0.81080  Biso   1.000  C
  C40      1.0000 0.73330  0.92580  0.66970  Biso   1.000  C
  H16      1.0000 0.72510  0.88660  0.67670  Biso   1.000  H
  Zn5      1.0000 0.75715  0.17489  0.75190  Biso   1.000  Zn
  N13      1.0000 0.68740  0.26020  0.74920  Biso   1.000  N
  N14      1.0000 0.61120  0.34990  0.74546  Biso   1.000  N
  O17      1.0000 0.81300  0.20880  0.80313  Biso   1.000  O
  O18      1.0000 0.81200  0.28660  0.84169  Biso   1.000  O
  C41      1.0000 0.62300  0.29740  0.72900  Biso   1.000  C
  O19      1.0000 0.73130  0.40390  0.83361  Biso   1.000  O
  O20      1.0000 0.59740  0.43760  0.79677  Biso   1.000  O
  C42      1.0000 0.67310  0.34750  0.77909  Biso   1.000  C
  C43      1.0000 0.71980  0.29250  0.78092  Biso   1.000  C
  C44      1.0000 0.56650  0.28120  0.69260  Biso   1.000  C
  N15      1.0000 0.45730  0.31120  0.63792  Biso   1.000  N
  C45      1.0000 0.67020  0.39880  0.80538  Biso   1.000  C
  C46      1.0000 0.49550  0.21010  0.64790  Biso   1.000  C
  H17      1.0000 0.48700  0.17140  0.63960  Biso   1.000  H
  C47      1.0000 0.55510  0.22280  0.68090  Biso   1.000  C
  H18      1.0000 0.58720  0.19270  0.69510  Biso   1.000  H
  C48      1.0000 0.44910  0.25550  0.62740  Biso   1.000  C
  H19      1.0000 0.40990  0.24660  0.60500  Biso   1.000  H
  C49      1.0000 0.78750  0.26230  0.81080  Biso   1.000  C
  C50      1.0000 0.51670  0.32420  0.66970  Biso   1.000  C
  H20      1.0000 0.52490  0.36340  0.67670  Biso   1.000  H
  Zn6      1.0000 0.75715  0.67489  0.25190  Biso   1.000  Zn
  N16      1.0000 0.68740  0.76020  0.24920  Biso   1.000  N
  N17      1.0000 0.61120  0.84990  0.24546  Biso   1.000  N
  O21      1.0000 0.81300  0.70880  0.30313  Biso   1.000  O
  O22      1.0000 0.81200  0.78660  0.34169  Biso   1.000  O
  C51      1.0000 0.62300  0.79740  0.22900  Biso   1.000  C
  O23      1.0000 0.73130  0.90390  0.33361  Biso   1.000  O
  O24      1.0000 0.59740  0.93760  0.29677  Biso   1.000  O
  C52      1.0000 0.67310  0.84750  0.27909  Biso   1.000  C
  C53      1.0000 0.71980  0.79250  0.28092  Biso   1.000  C
  C54      1.0000 0.56650  0.78120  0.19260  Biso   1.000  C
  N18      1.0000 0.45730  0.81120  0.13792  Biso   1.000  N
  C55      1.0000 0.67020  0.89880  0.30538  Biso   1.000  C
  C56      1.0000 0.49550  0.71010  0.14790  Biso   1.000  C
  H21      1.0000 0.48700  0.67140  0.13960  Biso   1.000  H
  C57      1.0000 0.55510  0.72280  0.18090  Biso   1.000  C
  H22      1.0000 0.58720  0.69270  0.19510  Biso   1.000  H
  C58      1.0000 0.44910  0.75550  0.12740  Biso   1.000  C
  H23      1.0000 0.40990  0.74660  0.10500  Biso   1.000  H
  C59      1.0000 0.78750  0.76230  0.31080  Biso   1.000  C
  C60      1.0000 0.51670  0.82420  0.16970  Biso   1.000  C
  H24      1.0000 0.52490  0.86340  0.17670  Biso   1.000  H
  Zn7      1.0000 0.25715  0.17489  0.25190  Biso   1.000  Zn
  N19      1.0000 0.18740  0.26020  0.24920  Biso   1.000  N
  N20      1.0000 0.11120  0.34990  0.24546  Biso   1.000  N
  O25      1.0000 0.31300  0.20880  0.30313  Biso   1.000  O
  O26      1.0000 0.31200  0.28660  0.34169  Biso   1.000  O
  C61      1.0000 0.12300  0.29740  0.22900  Biso   1.000  C
  O27      1.0000 0.23130  0.40390  0.33361  Biso   1.000  O
  O28      1.0000 0.09740  0.43760  0.29677  Biso   1.000  O
  C62      1.0000 0.17310  0.34750  0.27909  Biso   1.000  C
  C63      1.0000 0.21980  0.29250  0.28092  Biso   1.000  C
  C64      1.0000 0.06650  0.28120  0.19260  Biso   1.000  C
  N21      1.0000 0.95730  0.31120  0.13792  Biso   1.000  N
  C65      1.0000 0.17020  0.39880  0.30538  Biso   1.000  C
  C66      1.0000 0.99550  0.21010  0.14790  Biso   1.000  C
  H25      1.0000 0.98700  0.17140  0.13960  Biso   1.000  H
  C67      1.0000 0.05510  0.22280  0.18090  Biso   1.000  C
  H26      1.0000 0.08720  0.19270  0.19510  Biso   1.000  H
  C68      1.0000 0.94910  0.25550  0.12740  Biso   1.000  C
  H27      1.0000 0.90990  0.24660  0.10500  Biso   1.000  H
  C69      1.0000 0.28750  0.26230  0.31080  Biso   1.000  C
  C70      1.0000 0.01670  0.32420  0.16970  Biso   1.000  C
  H28      1.0000 0.02490  0.36340  0.17670  Biso   1.000  H
  Zn8      1.0000 0.25715  0.67489  0.75190  Biso   1.000  Zn
  N22      1.0000 0.18740  0.76020  0.74920  Biso   1.000  N
  N23      1.0000 0.11120  0.84990  0.74546  Biso   1.000  N
  O29      1.0000 0.31300  0.70880  0.80313  Biso   1.000  O
  O30      1.0000 0.31200  0.78660  0.84169  Biso   1.000  O
  C71      1.0000 0.12300  0.79740  0.72900  Biso   1.000  C
  O31      1.0000 0.23130  0.90390  0.83361  Biso   1.000  O
  O32      1.0000 0.09740  0.93760  0.79677  Biso   1.000  O
  C72      1.0000 0.17310  0.84750  0.77909  Biso   1.000  C
  C73      1.0000 0.21980  0.79250  0.78092  Biso   1.000  C
  C74      1.0000 0.06650  0.78120  0.69260  Biso   1.000  C
  N24      1.0000 0.95730  0.81120  0.63792  Biso   1.000  N
  C75      1.0000 0.17020  0.89880  0.80538  Biso   1.000  C
  C76      1.0000 0.99550  0.71010  0.64790  Biso   1.000  C
  H29      1.0000 0.98700  0.67140  0.63960  Biso   1.000  H
  C77      1.0000 0.05510  0.72280  0.68090  Biso   1.000  C
  H30      1.0000 0.08720  0.69270  0.69510  Biso   1.000  H
  C78      1.0000 0.94910  0.75550  0.62740  Biso   1.000  C
  H31      1.0000 0.90990  0.74660  0.60500  Biso   1.000  H
  C79      1.0000 0.28750  0.76230  0.81080  Biso   1.000  C
  C80      1.0000 0.01670  0.82420  0.66970  Biso   1.000  C
  H32      1.0000 0.02490  0.86340  0.67670  Biso   1.000  H
  Zn9      1.0000 0.75715  0.57511  0.99810  Biso   1.000  Zn
  N25      1.0000 0.68740  0.48980  0.00080  Biso   1.000  N
  N26      1.0000 0.61120  0.40010  0.00454  Biso   1.000  N
  O33      1.0000 0.81300  0.54120  0.94687  Biso   1.000  O
  O34      1.0000 0.81200  0.46340  0.90831  Biso   1.000  O
  C81      1.0000 0.62300  0.45260  0.02100  Biso   1.000  C
  O35      1.0000 0.73130  0.34610  0.91639  Biso   1.000  O
  O36      1.0000 0.59740  0.31240  0.95323  Biso   1.000  O
  C82      1.0000 0.67310  0.40250  0.97091  Biso   1.000  C
  C83      1.0000 0.71980  0.45750  0.96908  Biso   1.000  C
  C84      1.0000 0.56650  0.46880  0.05740  Biso   1.000  C
  N27      1.0000 0.45730  0.43880  0.11208  Biso   1.000  N
  C85      1.0000 0.67020  0.35120  0.94462  Biso   1.000  C
  C86      1.0000 0.49550  0.53990  0.10210  Biso   1.000  C
  H33      1.0000 0.48700  0.57860  0.11040  Biso   1.000  H
  C87      1.0000 0.55510  0.52720  0.06910  Biso   1.000  C
  H34      1.0000 0.58720  0.55730  0.05490  Biso   1.000  H
  C88      1.0000 0.44910  0.49450  0.12260  Biso   1.000  C
  H35      1.0000 0.40990  0.50340  0.14500  Biso   1.000  H
  C89      1.0000 0.78750  0.48770  0.93920  Biso   1.000  C
  C90      1.0000 0.51670  0.42580  0.08030  Biso   1.000  C
  H36      1.0000 0.52490  0.38660  0.07330  Biso   1.000  H
  Zn10     1.0000 0.75715  0.07511  0.49810  Biso   1.000  Zn
  N28      1.0000 0.68740  0.98980  0.50080  Biso   1.000  N
  N29      1.0000 0.61120  0.90010  0.50454  Biso   1.000  N
  O37      1.0000 0.81300  0.04120  0.44687  Biso   1.000  O
  O38      1.0000 0.81200  0.96340  0.40831  Biso   1.000  O
  C91      1.0000 0.62300  0.95260  0.52100  Biso   1.000  C
  O39      1.0000 0.73130  0.84610  0.41639  Biso   1.000  O
  O40      1.0000 0.59740  0.81240  0.45323  Biso   1.000  O
  C92      1.0000 0.67310  0.90250  0.47091  Biso   1.000  C
  C93      1.0000 0.71980  0.95750  0.46908  Biso   1.000  C
  C94      1.0000 0.56650  0.96880  0.55740  Biso   1.000  C
  N30      1.0000 0.45730  0.93880  0.61208  Biso   1.000  N
  C95      1.0000 0.67020  0.85120  0.44462  Biso   1.000  C
  C96      1.0000 0.49550  0.03990  0.60210  Biso   1.000  C
  H37      1.0000 0.48700  0.07860  0.61040  Biso   1.000  H
  C97      1.0000 0.55510  0.02720  0.56910  Biso   1.000  C
  H38      1.0000 0.58720  0.05730  0.55490  Biso   1.000  H
  C98      1.0000 0.44910  0.99450  0.62260  Biso   1.000  C
  H39      1.0000 0.40990  0.00340  0.64500  Biso   1.000  H
  C99      1.0000 0.78750  0.98770  0.43920  Biso   1.000  C
  C100     1.0000 0.51670  0.92580  0.58030  Biso   1.000  C
  H40      1.0000 0.52490  0.88660  0.57330  Biso   1.000  H
  Zn11     1.0000 0.25715  0.57511  0.49810  Biso   1.000  Zn
  N31      1.0000 0.18740  0.48980  0.50080  Biso   1.000  N
  N32      1.0000 0.11120  0.40010  0.50454  Biso   1.000  N
  O41      1.0000 0.31300  0.54120  0.44687  Biso   1.000  O
  O42      1.0000 0.31200  0.46340  0.40831  Biso   1.000  O
  C101     1.0000 0.12300  0.45260  0.52100  Biso   1.000  C
  O43      1.0000 0.23130  0.34610  0.41639  Biso   1.000  O
  O44      1.0000 0.09740  0.31240  0.45323  Biso   1.000  O
  C102     1.0000 0.17310  0.40250  0.47091  Biso   1.000  C
  C103     1.0000 0.21980  0.45750  0.46908  Biso   1.000  C
  C104     1.0000 0.06650  0.46880  0.55740  Biso   1.000  C
  N33      1.0000 0.95730  0.43880  0.61208  Biso   1.000  N
  C105     1.0000 0.17020  0.35120  0.44462  Biso   1.000  C
  C106     1.0000 0.99550  0.53990  0.60210  Biso   1.000  C
  H41      1.0000 0.98700  0.57860  0.61040  Biso   1.000  H
  C107     1.0000 0.05510  0.52720  0.56910  Biso   1.000  C
  H42      1.0000 0.08720  0.55730  0.55490  Biso   1.000  H
  C108     1.0000 0.94910  0.49450  0.62260  Biso   1.000  C
  H43      1.0000 0.90990  0.50340  0.64500  Biso   1.000  H
  C109     1.0000 0.28750  0.48770  0.43920  Biso   1.000  C
  C110     1.0000 0.01670  0.42580  0.58030  Biso   1.000  C
  H44      1.0000 0.02490  0.38660  0.57330  Biso   1.000  H
  Zn12     1.0000 0.25715  0.07511  0.99810  Biso   1.000  Zn
  N34      1.0000 0.18740  0.98980  0.00080  Biso   1.000  N
  N35      1.0000 0.11120  0.90010  0.00454  Biso   1.000  N
  O45      1.0000 0.31300  0.04120  0.94687  Biso   1.000  O
  O46      1.0000 0.31200  0.96340  0.90831  Biso   1.000  O
  C111     1.0000 0.12300  0.95260  0.02100  Biso   1.000  C
  O47      1.0000 0.23130  0.84610  0.91639  Biso   1.000  O
  O48      1.0000 0.09740  0.81240  0.95323  Biso   1.000  O
  C112     1.0000 0.17310  0.90250  0.97091  Biso   1.000  C
  C113     1.0000 0.21980  0.95750  0.96908  Biso   1.000  C
  C114     1.0000 0.06650  0.96880  0.05740  Biso   1.000  C
  N36      1.0000 0.95730  0.93880  0.11208  Biso   1.000  N
  C115     1.0000 0.17020  0.85120  0.94462  Biso   1.000  C
  C116     1.0000 0.99550  0.03990  0.10210  Biso   1.000  C
  H45      1.0000 0.98700  0.07860  0.11040  Biso   1.000  H
  C117     1.0000 0.05510  0.02720  0.06910  Biso   1.000  C
  H46      1.0000 0.08720  0.05730  0.05490  Biso   1.000  H
  C118     1.0000 0.94910  0.99450  0.12260  Biso   1.000  C
  H47      1.0000 0.90990  0.00340  0.14500  Biso   1.000  H
  C119     1.0000 0.28750  0.98770  0.93920  Biso   1.000  C
  C120     1.0000 0.01670  0.92580  0.08030  Biso   1.000  C
  H48      1.0000 0.02490  0.88660  0.07330  Biso   1.000  H
  Zn13     1.0000 0.99285  0.17489  0.99810  Biso   1.000  Zn
  N37      1.0000 0.06260  0.26020  0.00080  Biso   1.000  N
  N38      1.0000 0.13880  0.34990  0.00454  Biso   1.000  N
  O49      1.0000 0.93700  0.20880  0.94687  Biso   1.000  O
  O50      1.0000 0.93800  0.28660  0.90831  Biso   1.000  O
  C121     1.0000 0.12700  0.29740  0.02100  Biso   1.000  C
  O51      1.0000 0.01870  0.40390  0.91639  Biso   1.000  O
  O52      1.0000 0.15260  0.43760  0.95323  Biso   1.000  O
  C122     1.0000 0.07690  0.34750  0.97091  Biso   1.000  C
  C123     1.0000 0.03020  0.29250  0.96908  Biso   1.000  C
  C124     1.0000 0.18350  0.28120  0.05740  Biso   1.000  C
  N39      1.0000 0.29270  0.31120  0.11208  Biso   1.000  N
  C125     1.0000 0.07980  0.39880  0.94462  Biso   1.000  C
  C126     1.0000 0.25450  0.21010  0.10210  Biso   1.000  C
  H49      1.0000 0.26300  0.17140  0.11040  Biso   1.000  H
  C127     1.0000 0.19490  0.22280  0.06910  Biso   1.000  C
  H50      1.0000 0.16280  0.19270  0.05490  Biso   1.000  H
  C128     1.0000 0.30090  0.25550  0.12260  Biso   1.000  C
  H51      1.0000 0.34010  0.24660  0.14500  Biso   1.000  H
  C129     1.0000 0.96250  0.26230  0.93920  Biso   1.000  C
  C130     1.0000 0.23330  0.32420  0.08030  Biso   1.000  C
  H52      1.0000 0.22510  0.36340  0.07330  Biso   1.000  H
  Zn14     1.0000 0.99285  0.67489  0.49810  Biso   1.000  Zn
  N40      1.0000 0.06260  0.76020  0.50080  Biso   1.000  N
  N41      1.0000 0.13880  0.84990  0.50454  Biso   1.000  N
  O53      1.0000 0.93700  0.70880  0.44687  Biso   1.000  O
  O54      1.0000 0.93800  0.78660  0.40831  Biso   1.000  O
  C131     1.0000 0.12700  0.79740  0.52100  Biso   1.000  C
  O55      1.0000 0.01870  0.90390  0.41639  Biso   1.000  O
  O56      1.0000 0.15260  0.93760  0.45323  Biso   1.000  O
  C132     1.0000 0.07690  0.84750  0.47091  Biso   1.000  C
  C133     1.0000 0.03020  0.79250  0.46908  Biso   1.000  C
  C134     1.0000 0.18350  0.78120  0.55740  Biso   1.000  C
  N42      1.0000 0.29270  0.81120  0.61208  Biso   1.000  N
  C135     1.0000 0.07980  0.89880  0.44462  Biso   1.000  C
  C136     1.0000 0.25450  0.71010  0.60210  Biso   1.000  C
  H53      1.0000 0.26300  0.67140  0.61040  Biso   1.000  H
  C137     1.0000 0.19490  0.72280  0.56910  Biso   1.000  C
  H54      1.0000 0.16280  0.69270  0.55490  Biso   1.000  H
  C138     1.0000 0.30090  0.75550  0.62260  Biso   1.000  C
  H55      1.0000 0.34010  0.74660  0.64500  Biso   1.000  H
  C139     1.0000 0.96250  0.76230  0.43920  Biso   1.000  C
  C140     1.0000 0.23330  0.82420  0.58030  Biso   1.000  C
  H56      1.0000 0.22510  0.86340  0.57330  Biso   1.000  H
  Zn15     1.0000 0.49285  0.17489  0.49810  Biso   1.000  Zn
  N43      1.0000 0.56260  0.26020  0.50080  Biso   1.000  N
  N44      1.0000 0.63880  0.34990  0.50454  Biso   1.000  N
  O57      1.0000 0.43700  0.20880  0.44687  Biso   1.000  O
  O58      1.0000 0.43800  0.28660  0.40831  Biso   1.000  O
  C141     1.0000 0.62700  0.29740  0.52100  Biso   1.000  C
  O59      1.0000 0.51870  0.40390  0.41639  Biso   1.000  O
  O60      1.0000 0.65260  0.43760  0.45323  Biso   1.000  O
  C142     1.0000 0.57690  0.34750  0.47091  Biso   1.000  C
  C143     1.0000 0.53020  0.29250  0.46908  Biso   1.000  C
  C144     1.0000 0.68350  0.28120  0.55740  Biso   1.000  C
  N45      1.0000 0.79270  0.31120  0.61208  Biso   1.000  N
  C145     1.0000 0.57980  0.39880  0.44462  Biso   1.000  C
  C146     1.0000 0.75450  0.21010  0.60210  Biso   1.000  C
  H57      1.0000 0.76300  0.17140  0.61040  Biso   1.000  H
  C147     1.0000 0.69490  0.22280  0.56910  Biso   1.000  C
  H58      1.0000 0.66280  0.19270  0.55490  Biso   1.000  H
  C148     1.0000 0.80090  0.25550  0.62260  Biso   1.000  C
  H59      1.0000 0.84010  0.24660  0.64500  Biso   1.000  H
  C149     1.0000 0.46250  0.26230  0.43920  Biso   1.000  C
  C150     1.0000 0.73330  0.32420  0.58030  Biso   1.000  C
  H60      1.0000 0.72510  0.36340  0.57330  Biso   1.000  H
  Zn16     1.0000 0.49285  0.67489  0.99810  Biso   1.000  Zn
  N46      1.0000 0.56260  0.76020  0.00080  Biso   1.000  N
  N47      1.0000 0.63880  0.84990  0.00454  Biso   1.000  N
  O61      1.0000 0.43700  0.70880  0.94687  Biso   1.000  O
  O62      1.0000 0.43800  0.78660  0.90831  Biso   1.000  O
  C151     1.0000 0.62700  0.79740  0.02100  Biso   1.000  C
  O63      1.0000 0.51870  0.90390  0.91639  Biso   1.000  O
  O64      1.0000 0.65260  0.93760  0.95323  Biso   1.000  O
  C152     1.0000 0.57690  0.84750  0.97091  Biso   1.000  C
  C153     1.0000 0.53020  0.79250  0.96908  Biso   1.000  C
  C154     1.0000 0.68350  0.78120  0.05740  Biso   1.000  C
  N48      1.0000 0.79270  0.81120  0.11208  Biso   1.000  N
  C155     1.0000 0.57980  0.89880  0.94462  Biso   1.000  C
  C156     1.0000 0.75450  0.71010  0.10210  Biso   1.000  C
  H61      1.0000 0.76300  0.67140  0.11040  Biso   1.000  H
  C157     1.0000 0.69490  0.72280  0.06910  Biso   1.000  C
  H62      1.0000 0.66280  0.69270  0.05490  Biso   1.000  H
  C158     1.0000 0.80090  0.75550  0.12260  Biso   1.000  C
  H63      1.0000 0.84010  0.74660  0.14500  Biso   1.000  H
  C159     1.0000 0.46250  0.76230  0.93920  Biso   1.000  C
  C160     1.0000 0.73330  0.82420  0.08030  Biso   1.000  C
  H64      1.0000 0.72510  0.86340  0.07330  Biso   1.000  H
  Zn17     1.0000 0.00715  0.42489  0.24810  Biso   1.000  Zn
  N49      1.0000 0.93740  0.51020  0.25080  Biso   1.000  N
  N50      1.0000 0.86120  0.59990  0.25454  Biso   1.000  N
  O65      1.0000 0.06300  0.45880  0.19687  Biso   1.000  O
  O66      1.0000 0.06200  0.53660  0.15831  Biso   1.000  O
  C161     1.0000 0.87300  0.54740  0.27100  Biso   1.000  C
  O67      1.0000 0.98130  0.65390  0.16639  Biso   1.000  O
  O68      1.0000 0.84740  0.68760  0.20323  Biso   1.000  O
  C162     1.0000 0.92310  0.59750  0.22091  Biso   1.000  C
  C163     1.0000 0.96980  0.54250  0.21908  Biso   1.000  C
  C164     1.0000 0.81650  0.53120  0.30740  Biso   1.000  C
  N51      1.0000 0.70730  0.56120  0.36208  Biso   1.000  N
  C165     1.0000 0.92020  0.64880  0.19462  Biso   1.000  C
  C166     1.0000 0.74550  0.46010  0.35210  Biso   1.000  C
  H65      1.0000 0.73700  0.42140  0.36040  Biso   1.000  H
  C167     1.0000 0.80510  0.47280  0.31910  Biso   1.000  C
  H66      1.0000 0.83720  0.44270  0.30490  Biso   1.000  H
  C168     1.0000 0.69910  0.50550  0.37260  Biso   1.000  C
  H67      1.0000 0.65990  0.49660  0.39500  Biso   1.000  H
  C169     1.0000 0.03750  0.51230  0.18920  Biso   1.000  C
  C170     1.0000 0.76670  0.57420  0.33030  Biso   1.000  C
  H68      1.0000 0.77490  0.61340  0.32330  Biso   1.000  H
  Zn18     1.0000 0.00715  0.92489  0.74810  Biso   1.000  Zn
  N52      1.0000 0.93740  0.01020  0.75080  Biso   1.000  N
  N53      1.0000 0.86120  0.09990  0.75454  Biso   1.000  N
  O69      1.0000 0.06300  0.95880  0.69687  Biso   1.000  O
  O70      1.0000 0.06200  0.03660  0.65831  Biso   1.000  O
  C171     1.0000 0.87300  0.04740  0.77100  Biso   1.000  C
  O71      1.0000 0.98130  0.15390  0.66639  Biso   1.000  O
  O72      1.0000 0.84740  0.18760  0.70323  Biso   1.000  O
  C172     1.0000 0.92310  0.09750  0.72091  Biso   1.000  C
  C173     1.0000 0.96980  0.04250  0.71908  Biso   1.000  C
  C174     1.0000 0.81650  0.03120  0.80740  Biso   1.000  C
  N54      1.0000 0.70730  0.06120  0.86208  Biso   1.000  N
  C175     1.0000 0.92020  0.14880  0.69462  Biso   1.000  C
  C176     1.0000 0.74550  0.96010  0.85210  Biso   1.000  C
  H69      1.0000 0.73700  0.92140  0.86040  Biso   1.000  H
  C177     1.0000 0.80510  0.97280  0.81910  Biso   1.000  C
  H70      1.0000 0.83720  0.94270  0.80490  Biso   1.000  H
  C178     1.0000 0.69910  0.00550  0.87260  Biso   1.000  C
  H71      1.0000 0.65990  0.99660  0.89500  Biso   1.000  H
  C179     1.0000 0.03750  0.01230  0.68920  Biso   1.000  C
  C180     1.0000 0.76670  0.07420  0.83030  Biso   1.000  C
  H72      1.0000 0.77490  0.11340  0.82330  Biso   1.000  H
  Zn19     1.0000 0.50715  0.42489  0.74810  Biso   1.000  Zn
  N55      1.0000 0.43740  0.51020  0.75080  Biso   1.000  N
  N56      1.0000 0.36120  0.59990  0.75454  Biso   1.000  N
  O73      1.0000 0.56300  0.45880  0.69687  Biso   1.000  O
  O74      1.0000 0.56200  0.53660  0.65831  Biso   1.000  O
  C181     1.0000 0.37300  0.54740  0.77100  Biso   1.000  C
  O75      1.0000 0.48130  0.65390  0.66639  Biso   1.000  O
  O76      1.0000 0.34740  0.68760  0.70323  Biso   1.000  O
  C182     1.0000 0.42310  0.59750  0.72091  Biso   1.000  C
  C183     1.0000 0.46980  0.54250  0.71908  Biso   1.000  C
  C184     1.0000 0.31650  0.53120  0.80740  Biso   1.000  C
  N57      1.0000 0.20730  0.56120  0.86208  Biso   1.000  N
  C185     1.0000 0.42020  0.64880  0.69462  Biso   1.000  C
  C186     1.0000 0.24550  0.46010  0.85210  Biso   1.000  C
  H73      1.0000 0.23700  0.42140  0.86040  Biso   1.000  H
  C187     1.0000 0.30510  0.47280  0.81910  Biso   1.000  C
  H74      1.0000 0.33720  0.44270  0.80490  Biso   1.000  H
  C188     1.0000 0.19910  0.50550  0.87260  Biso   1.000  C
  H75      1.0000 0.15990  0.49660  0.89500  Biso   1.000  H
  C189     1.0000 0.53750  0.51230  0.68920  Biso   1.000  C
  C190     1.0000 0.26670  0.57420  0.83030  Biso   1.000  C
  H76      1.0000 0.27490  0.61340  0.82330  Biso   1.000  H
  Zn20     1.0000 0.50715  0.92489  0.24810  Biso   1.000  Zn
  N58      1.0000 0.43740  0.01020  0.25080  Biso   1.000  N
  N59      1.0000 0.36120  0.09990  0.25454  Biso   1.000  N
  O77      1.0000 0.56300  0.95880  0.19687  Biso   1.000  O
  O78      1.0000 0.56200  0.03660  0.15831  Biso   1.000  O
  C191     1.0000 0.37300  0.04740  0.27100  Biso   1.000  C
  O79      1.0000 0.48130  0.15390  0.16639  Biso   1.000  O
  O80      1.0000 0.34740  0.18760  0.20323  Biso   1.000  O
  C192     1.0000 0.42310  0.09750  0.22091  Biso   1.000  C
  C193     1.0000 0.46980  0.04250  0.21908  Biso   1.000  C
  C194     1.0000 0.31650  0.03120  0.30740  Biso   1.000  C
  N60      1.0000 0.20730  0.06120  0.36208  Biso   1.000  N
  C195     1.0000 0.42020  0.14880  0.19462  Biso   1.000  C
  C196     1.0000 0.24550  0.96010  0.35210  Biso   1.000  C
  H77      1.0000 0.23700  0.92140  0.36040  Biso   1.000  H
  C197     1.0000 0.30510  0.97280  0.31910  Biso   1.000  C
  H78      1.0000 0.33720  0.94270  0.30490  Biso   1.000  H
  C198     1.0000 0.19910  0.00550  0.37260  Biso   1.000  C
  H79      1.0000 0.15990  0.99660  0.39500  Biso   1.000  H
  C199     1.0000 0.53750  0.01230  0.18920  Biso   1.000  C
  C200     1.0000 0.26670  0.07420  0.33030  Biso   1.000  C
  H80      1.0000 0.27490  0.11340  0.32330  Biso   1.000  H
  Zn21     1.0000 0.24285  0.82511  0.24810  Biso   1.000  Zn
  N61      1.0000 0.31260  0.73980  0.25080  Biso   1.000  N
  N62      1.0000 0.38880  0.65010  0.25454  Biso   1.000  N
  O81      1.0000 0.18700  0.79120  0.19687  Biso   1.000  O
  O82      1.0000 0.18800  0.71340  0.15831  Biso   1.000  O
  C201     1.0000 0.37700  0.70260  0.27100  Biso   1.000  C
  O83      1.0000 0.26870  0.59610  0.16639  Biso   1.000  O
  O84      1.0000 0.40260  0.56240  0.20323  Biso   1.000  O
  C202     1.0000 0.32690  0.65250  0.22091  Biso   1.000  C
  C203     1.0000 0.28020  0.70750  0.21908  Biso   1.000  C
  C204     1.0000 0.43350  0.71880  0.30740  Biso   1.000  C
  N63      1.0000 0.54270  0.68880  0.36208  Biso   1.000  N
  C205     1.0000 0.32980  0.60120  0.19462  Biso   1.000  C
  C206     1.0000 0.50450  0.78990  0.35210  Biso   1.000  C
  H81      1.0000 0.51300  0.82860  0.36040  Biso   1.000  H
  C207     1.0000 0.44490  0.77720  0.31910  Biso   1.000  C
  H82      1.0000 0.41280  0.80730  0.30490  Biso   1.000  H
  C208     1.0000 0.55090  0.74450  0.37260  Biso   1.000  C
  H83      1.0000 0.59010  0.75340  0.39500  Biso   1.000  H
  C209     1.0000 0.21250  0.73770  0.18920  Biso   1.000  C
  C210     1.0000 0.48330  0.67580  0.33030  Biso   1.000  C
  H84      1.0000 0.47510  0.63660  0.32330  Biso   1.000  H
  Zn22     1.0000 0.24285  0.32511  0.74810  Biso   1.000  Zn
  N64      1.0000 0.31260  0.23980  0.75080  Biso   1.000  N
  N65      1.0000 0.38880  0.15010  0.75454  Biso   1.000  N
  O85      1.0000 0.18700  0.29120  0.69687  Biso   1.000  O
  O86      1.0000 0.18800  0.21340  0.65831  Biso   1.000  O
  C211     1.0000 0.37700  0.20260  0.77100  Biso   1.000  C
  O87      1.0000 0.26870  0.09610  0.66639  Biso   1.000  O
  O88      1.0000 0.40260  0.06240  0.70323  Biso   1.000  O
  C212     1.0000 0.32690  0.15250  0.72091  Biso   1.000  C
  C213     1.0000 0.28020  0.20750  0.71908  Biso   1.000  C
  C214     1.0000 0.43350  0.21880  0.80740  Biso   1.000  C
  N66      1.0000 0.54270  0.18880  0.86208  Biso   1.000  N
  C215     1.0000 0.32980  0.10120  0.69462  Biso   1.000  C
  C216     1.0000 0.50450  0.28990  0.85210  Biso   1.000  C
  H85      1.0000 0.51300  0.32860  0.86040  Biso   1.000  H
  C217     1.0000 0.44490  0.27720  0.81910  Biso   1.000  C
  H86      1.0000 0.41280  0.30730  0.80490  Biso   1.000  H
  C218     1.0000 0.55090  0.24450  0.87260  Biso   1.000  C
  H87      1.0000 0.59010  0.25340  0.89500  Biso   1.000  H
  C219     1.0000 0.21250  0.23770  0.68920  Biso   1.000  C
  C220     1.0000 0.48330  0.17580  0.83030  Biso   1.000  C
  H88      1.0000 0.47510  0.13660  0.82330  Biso   1.000  H
  Zn23     1.0000 0.74285  0.82511  0.74810  Biso   1.000  Zn
  N67      1.0000 0.81260  0.73980  0.75080  Biso   1.000  N
  N68      1.0000 0.88880  0.65010  0.75454  Biso   1.000  N
  O89      1.0000 0.68700  0.79120  0.69687  Biso   1.000  O
  O90      1.0000 0.68800  0.71340  0.65831  Biso   1.000  O
  C221     1.0000 0.87700  0.70260  0.77100  Biso   1.000  C
  O91      1.0000 0.76870  0.59610  0.66639  Biso   1.000  O
  O92      1.0000 0.90260  0.56240  0.70323  Biso   1.000  O
  C222     1.0000 0.82690  0.65250  0.72091  Biso   1.000  C
  C223     1.0000 0.78020  0.70750  0.71908  Biso   1.000  C
  C224     1.0000 0.93350  0.71880  0.80740  Biso   1.000  C
  N69      1.0000 0.04270  0.68880  0.86208  Biso   1.000  N
  C225     1.0000 0.82980  0.60120  0.69462  Biso   1.000  C
  C226     1.0000 0.00450  0.78990  0.85210  Biso   1.000  C
  H89      1.0000 0.01300  0.82860  0.86040  Biso   1.000  H
  C227     1.0000 0.94490  0.77720  0.81910  Biso   1.000  C
  H90      1.0000 0.91280  0.80730  0.80490  Biso   1.000  H
  C228     1.0000 0.05090  0.74450  0.87260  Biso   1.000  C
  H91      1.0000 0.09010  0.75340  0.89500  Biso   1.000  H
  C229     1.0000 0.71250  0.73770  0.68920  Biso   1.000  C
  C230     1.0000 0.98330  0.67580  0.83030  Biso   1.000  C
  H92      1.0000 0.97510  0.63660  0.82330  Biso   1.000  H
  Zn24     1.0000 0.74285  0.32511  0.24810  Biso   1.000  Zn
  N70      1.0000 0.81260  0.23980  0.25080  Biso   1.000  N
  N71      1.0000 0.88880  0.15010  0.25454  Biso   1.000  N
  O93      1.0000 0.68700  0.29120  0.19687  Biso   1.000  O
  O94      1.0000 0.68800  0.21340  0.15831  Biso   1.000  O
  C231     1.0000 0.87700  0.20260  0.27100  Biso   1.000  C
  O95      1.0000 0.76870  0.09610  0.16639  Biso   1.000  O
  O96      1.0000 0.90260  0.06240  0.20323  Biso   1.000  O
  C232     1.0000 0.82690  0.15250  0.22091  Biso   1.000  C
  C233     1.0000 0.78020  0.20750  0.21908  Biso   1.000  C
  C234     1.0000 0.93350  0.21880  0.30740  Biso   1.000  C
  N72      1.0000 0.04270  0.18880  0.36208  Biso   1.000  N
  C235     1.0000 0.82980  0.10120  0.19462  Biso   1.000  C
  C236     1.0000 0.00450  0.28990  0.35210  Biso   1.000  C
  H93      1.0000 0.01300  0.32860  0.36040  Biso   1.000  H
  C237     1.0000 0.94490  0.27720  0.31910  Biso   1.000  C
  H94      1.0000 0.91280  0.30730  0.30490  Biso   1.000  H
  C238     1.0000 0.05090  0.24450  0.37260  Biso   1.000  C
  H95      1.0000 0.09010  0.25340  0.39500  Biso   1.000  H
  C239     1.0000 0.71250  0.23770  0.18920  Biso   1.000  C
  C240     1.0000 0.98330  0.17580  0.33030  Biso   1.000  C
  H96      1.0000 0.97510  0.13660  0.32330  Biso   1.000  H
  Zn25     1.0000 0.24285  0.42489  0.00190  Biso   1.000  Zn
  N73      1.0000 0.31260  0.51020  0.99920  Biso   1.000  N
  N74      1.0000 0.38880  0.59990  0.99546  Biso   1.000  N
  O97      1.0000 0.18700  0.45880  0.05313  Biso   1.000  O
  O98      1.0000 0.18800  0.53660  0.09169  Biso   1.000  O
  C241     1.0000 0.37700  0.54740  0.97900  Biso   1.000  C
  O99      1.0000 0.26870  0.65390  0.08361  Biso   1.000  O
  O100     1.0000 0.40260  0.68760  0.04677  Biso   1.000  O
  C242     1.0000 0.32690  0.59750  0.02909  Biso   1.000  C
  C243     1.0000 0.28020  0.54250  0.03092  Biso   1.000  C
  C244     1.0000 0.43350  0.53120  0.94260  Biso   1.000  C
  N75      1.0000 0.54270  0.56120  0.88792  Biso   1.000  N
  C245     1.0000 0.32980  0.64880  0.05538  Biso   1.000  C
  C246     1.0000 0.50450  0.46010  0.89790  Biso   1.000  C
  H97      1.0000 0.51300  0.42140  0.88960  Biso   1.000  H
  C247     1.0000 0.44490  0.47280  0.93090  Biso   1.000  C
  H98      1.0000 0.41280  0.44270  0.94510  Biso   1.000  H
  C248     1.0000 0.55090  0.50550  0.87740  Biso   1.000  C
  H99      1.0000 0.59010  0.49660  0.85500  Biso   1.000  H
  C249     1.0000 0.21250  0.51230  0.06080  Biso   1.000  C
  C250     1.0000 0.48330  0.57420  0.91970  Biso   1.000  C
  H100     1.0000 0.47510  0.61340  0.92670  Biso   1.000  H
  Zn26     1.0000 0.24285  0.92489  0.50190  Biso   1.000  Zn
  N76      1.0000 0.31260  0.01020  0.49920  Biso   1.000  N
  N77      1.0000 0.38880  0.09990  0.49546  Biso   1.000  N
  O101     1.0000 0.18700  0.95880  0.55313  Biso   1.000  O
  O102     1.0000 0.18800  0.03660  0.59169  Biso   1.000  O
  C251     1.0000 0.37700  0.04740  0.47900  Biso   1.000  C
  O103     1.0000 0.26870  0.15390  0.58361  Biso   1.000  O
  O104     1.0000 0.40260  0.18760  0.54677  Biso   1.000  O
  C252     1.0000 0.32690  0.09750  0.52909  Biso   1.000  C
  C253     1.0000 0.28020  0.04250  0.53092  Biso   1.000  C
  C254     1.0000 0.43350  0.03120  0.44260  Biso   1.000  C
  N78      1.0000 0.54270  0.06120  0.38792  Biso   1.000  N
  C255     1.0000 0.32980  0.14880  0.55538  Biso   1.000  C
  C256     1.0000 0.50450  0.96010  0.39790  Biso   1.000  C
  H101     1.0000 0.51300  0.92140  0.38960  Biso   1.000  H
  C257     1.0000 0.44490  0.97280  0.43090  Biso   1.000  C
  H102     1.0000 0.41280  0.94270  0.44510  Biso   1.000  H
  C258     1.0000 0.55090  0.00550  0.37740  Biso   1.000  C
  H103     1.0000 0.59010  0.99660  0.35500  Biso   1.000  H
  C259     1.0000 0.21250  0.01230  0.56080  Biso   1.000  C
  C260     1.0000 0.48330  0.07420  0.41970  Biso   1.000  C
  H104     1.0000 0.47510  0.11340  0.42670  Biso   1.000  H
  Zn27     1.0000 0.74285  0.42489  0.50190  Biso   1.000  Zn
  N79      1.0000 0.81260  0.51020  0.49920  Biso   1.000  N
  N80      1.0000 0.88880  0.59990  0.49546  Biso   1.000  N
  O105     1.0000 0.68700  0.45880  0.55313  Biso   1.000  O
  O106     1.0000 0.68800  0.53660  0.59169  Biso   1.000  O
  C261     1.0000 0.87700  0.54740  0.47900  Biso   1.000  C
  O107     1.0000 0.76870  0.65390  0.58361  Biso   1.000  O
  O108     1.0000 0.90260  0.68760  0.54677  Biso   1.000  O
  C262     1.0000 0.82690  0.59750  0.52909  Biso   1.000  C
  C263     1.0000 0.78020  0.54250  0.53092  Biso   1.000  C
  C264     1.0000 0.93350  0.53120  0.44260  Biso   1.000  C
  N81      1.0000 0.04270  0.56120  0.38792  Biso   1.000  N
  C265     1.0000 0.82980  0.64880  0.55538  Biso   1.000  C
  C266     1.0000 0.00450  0.46010  0.39790  Biso   1.000  C
  H105     1.0000 0.01300  0.42140  0.38960  Biso   1.000  H
  C267     1.0000 0.94490  0.47280  0.43090  Biso   1.000  C
  H106     1.0000 0.91280  0.44270  0.44510  Biso   1.000  H
  C268     1.0000 0.05090  0.50550  0.37740  Biso   1.000  C
  H107     1.0000 0.09010  0.49660  0.35500  Biso   1.000  H
  C269     1.0000 0.71250  0.51230  0.56080  Biso   1.000  C
  C270     1.0000 0.98330  0.57420  0.41970  Biso   1.000  C
  H108     1.0000 0.97510  0.61340  0.42670  Biso   1.000  H
  Zn28     1.0000 0.74285  0.92489  0.00190  Biso   1.000  Zn
  N82      1.0000 0.81260  0.01020  0.99920  Biso   1.000  N
  N83      1.0000 0.88880  0.09990  0.99546  Biso   1.000  N
  O109     1.0000 0.68700  0.95880  0.05313  Biso   1.000  O
  O110     1.0000 0.68800  0.03660  0.09169  Biso   1.000  O
  C271     1.0000 0.87700  0.04740  0.97900  Biso   1.000  C
  O111     1.0000 0.76870  0.15390  0.08361  Biso   1.000  O
  O112     1.0000 0.90260  0.18760  0.04677  Biso   1.000  O
  C272     1.0000 0.82690  0.09750  0.02909  Biso   1.000  C
  C273     1.0000 0.78020  0.04250  0.03092  Biso   1.000  C
  C274     1.0000 0.93350  0.03120  0.94260  Biso   1.000  C
  N84      1.0000 0.04270  0.06120  0.88792  Biso   1.000  N
  C275     1.0000 0.82980  0.14880  0.05538  Biso   1.000  C
  C276     1.0000 0.00450  0.96010  0.89790  Biso   1.000  C
  H109     1.0000 0.01300  0.92140  0.88960  Biso   1.000  H
  C277     1.0000 0.94490  0.97280  0.93090  Biso   1.000  C
  H110     1.0000 0.91280  0.94270  0.94510  Biso   1.000  H
  C278     1.0000 0.05090  0.00550  0.87740  Biso   1.000  C
  H111     1.0000 0.09010  0.99660  0.85500  Biso   1.000  H
  C279     1.0000 0.71250  0.01230  0.06080  Biso   1.000  C
  C280     1.0000 0.98330  0.07420  0.91970  Biso   1.000  C
  H112     1.0000 0.97510  0.11340  0.92670  Biso   1.000  H
  Zn29     1.0000 0.00715  0.82511  0.00190  Biso   1.000  Zn
  N85      1.0000 0.93740  0.73980  0.99920  Biso   1.000  N
  N86      1.0000 0.86120  0.65010  0.99546  Biso   1.000  N
  O113     1.0000 0.06300  0.79120  0.05313  Biso   1.000  O
  O114     1.0000 0.06200  0.71340  0.09169  Biso   1.000  O
  C281     1.0000 0.87300  0.70260  0.97900  Biso   1.000  C
  O115     1.0000 0.98130  0.59610  0.08361  Biso   1.000  O
  O116     1.0000 0.84740  0.56240  0.04677  Biso   1.000  O
  C282     1.0000 0.92310  0.65250  0.02909  Biso   1.000  C
  C283     1.0000 0.96980  0.70750  0.03092  Biso   1.000  C
  C284     1.0000 0.81650  0.71880  0.94260  Biso   1.000  C
  N87      1.0000 0.70730  0.68880  0.88792  Biso   1.000  N
  C285     1.0000 0.92020  0.60120  0.05538  Biso   1.000  C
  C286     1.0000 0.74550  0.78990  0.89790  Biso   1.000  C
  H113     1.0000 0.73700  0.82860  0.88960  Biso   1.000  H
  C287     1.0000 0.80510  0.77720  0.93090  Biso   1.000  C
  H114     1.0000 0.83720  0.80730  0.94510  Biso   1.000  H
  C288     1.0000 0.69910  0.74450  0.87740  Biso   1.000  C
  H115     1.0000 0.65990  0.75340  0.85500  Biso   1.000  H
  C289     1.0000 0.03750  0.73770  0.06080  Biso   1.000  C
  C290     1.0000 0.76670  0.67580  0.91970  Biso   1.000  C
  H116     1.0000 0.77490  0.63660  0.92670  Biso   1.000  H
  Zn30     1.0000 0.00715  0.32511  0.50190  Biso   1.000  Zn
  N88      1.0000 0.93740  0.23980  0.49920  Biso   1.000  N
  N89      1.0000 0.86120  0.15010  0.49546  Biso   1.000  N
  O117     1.0000 0.06300  0.29120  0.55313  Biso   1.000  O
  O118     1.0000 0.06200  0.21340  0.59169  Biso   1.000  O
  C291     1.0000 0.87300  0.20260  0.47900  Biso   1.000  C
  O119     1.0000 0.98130  0.09610  0.58361  Biso   1.000  O
  O120     1.0000 0.84740  0.06240  0.54677  Biso   1.000  O
  C292     1.0000 0.92310  0.15250  0.52909  Biso   1.000  C
  C293     1.0000 0.96980  0.20750  0.53092  Biso   1.000  C
  C294     1.0000 0.81650  0.21880  0.44260  Biso   1.000  C
  N90      1.0000 0.70730  0.18880  0.38792  Biso   1.000  N
  C295     1.0000 0.92020  0.10120  0.55538  Biso   1.000  C
  C296     1.0000 0.74550  0.28990  0.39790  Biso   1.000  C
  H117     1.0000 0.73700  0.32860  0.38960  Biso   1.000  H
  C297     1.0000 0.80510  0.27720  0.43090  Biso   1.000  C
  H118     1.0000 0.83720  0.30730  0.44510  Biso   1.000  H
  C298     1.0000 0.69910  0.24450  0.37740  Biso   1.000  C
  H119     1.0000 0.65990  0.25340  0.35500  Biso   1.000  H
  C299     1.0000 0.03750  0.23770  0.56080  Biso   1.000  C
  C300     1.0000 0.76670  0.17580  0.41970  Biso   1.000  C
  H120     1.0000 0.77490  0.13660  0.42670  Biso   1.000  H
  Zn31     1.0000 0.50715  0.82511  0.50190  Biso   1.000  Zn
  N91      1.0000 0.43740  0.73980  0.49920  Biso   1.000  N
  N92      1.0000 0.36120  0.65010  0.49546  Biso   1.000  N
  O121     1.0000 0.56300  0.79120  0.55313  Biso   1.000  O
  O122     1.0000 0.56200  0.71340  0.59169  Biso   1.000  O
  C301     1.0000 0.37300  0.70260  0.47900  Biso   1.000  C
  O123     1.0000 0.48130  0.59610  0.58361  Biso   1.000  O
  O124     1.0000 0.34740  0.56240  0.54677  Biso   1.000  O
  C302     1.0000 0.42310  0.65250  0.52909  Biso   1.000  C
  C303     1.0000 0.46980  0.70750  0.53092  Biso   1.000  C
  C304     1.0000 0.31650  0.71880  0.44260  Biso   1.000  C
  N93      1.0000 0.20730  0.68880  0.38792  Biso   1.000  N
  C305     1.0000 0.42020  0.60120  0.55538  Biso   1.000  C
  C306     1.0000 0.24550  0.78990  0.39790  Biso   1.000  C
  H121     1.0000 0.23700  0.82860  0.38960  Biso   1.000  H
  C307     1.0000 0.30510  0.77720  0.43090  Biso   1.000  C
  H122     1.0000 0.33720  0.80730  0.44510  Biso   1.000  H
  C308     1.0000 0.19910  0.74450  0.37740  Biso   1.000  C
  H123     1.0000 0.15990  0.75340  0.35500  Biso   1.000  H
  C309     1.0000 0.53750  0.73770  0.56080  Biso   1.000  C
  C310     1.0000 0.26670  0.67580  0.41970  Biso   1.000  C
  H124     1.0000 0.27490  0.63660  0.42670  Biso   1.000  H
  Zn32     1.0000 0.50715  0.32511  0.00190  Biso   1.000  Zn
  N94      1.0000 0.43740  0.23980  0.99920  Biso   1.000  N
  N95      1.0000 0.36120  0.15010  0.99546  Biso   1.000  N
  O125     1.0000 0.56300  0.29120  0.05313  Biso   1.000  O
  O126     1.0000 0.56200  0.21340  0.09169  Biso   1.000  O
  C311     1.0000 0.37300  0.20260  0.97900  Biso   1.000  C
  O127     1.0000 0.48130  0.09610  0.08361  Biso   1.000  O
  O128     1.0000 0.34740  0.06240  0.04677  Biso   1.000  O
  C312     1.0000 0.42310  0.15250  0.02909  Biso   1.000  C
  C313     1.0000 0.46980  0.20750  0.03092  Biso   1.000  C
  C314     1.0000 0.31650  0.21880  0.94260  Biso   1.000  C
  N96      1.0000 0.20730  0.18880  0.88792  Biso   1.000  N
  C315     1.0000 0.42020  0.10120  0.05538  Biso   1.000  C
  C316     1.0000 0.24550  0.28990  0.89790  Biso   1.000  C
  H125     1.0000 0.23700  0.32860  0.88960  Biso   1.000  H
  C317     1.0000 0.30510  0.27720  0.93090  Biso   1.000  C
  H126     1.0000 0.33720  0.30730  0.94510  Biso   1.000  H
  C318     1.0000 0.19910  0.24450  0.87740  Biso   1.000  C
  H127     1.0000 0.15990  0.25340  0.85500  Biso   1.000  H
  C319     1.0000 0.53750  0.23770  0.06080  Biso   1.000  C
  C320     1.0000 0.26670  0.17580  0.91970  Biso   1.000  C
  H128     1.0000 0.27490  0.13660  0.92670  Biso   1.000  H
  Eu1      1.0000 0.87500  0.37500  0.87500  Biso   1.000  Eu
  Eu2      1.0000 0.87500  0.87500  0.37500  Biso   1.000  Eu
  Eu3      1.0000 0.37500  0.37500  0.37500  Biso   1.000  Eu
  Eu4      1.0000 0.37500  0.87500  0.87500  Biso   1.000  Eu
  Eu5      1.0000 0.12500  0.62500  0.12500  Biso   1.000  Eu
  Eu6      1.0000 0.12500  0.12500  0.62500  Biso   1.000  Eu
  Eu7      1.0000 0.62500  0.62500  0.62500  Biso   1.000  Eu
  Eu8      1.0000 0.62500  0.12500  0.12500  Biso   1.000  Eu
  Zn33     1.0000 0.37500  0.37500  0.60653  Biso   1.000  Zn
  Zn34     1.0000 0.37500  0.87500  0.10653  Biso   1.000  Zn
  Zn35     1.0000 0.87500  0.37500  0.10653  Biso   1.000  Zn
  Zn36     1.0000 0.87500  0.87500  0.60653  Biso   1.000  Zn
  Zn37     1.0000 0.37500  0.37500  0.14347  Biso   1.000  Zn
  Zn38     1.0000 0.37500  0.87500  0.64347  Biso   1.000  Zn
  Zn39     1.0000 0.87500  0.37500  0.64347  Biso   1.000  Zn
  Zn40     1.0000 0.87500  0.87500  0.14347  Biso   1.000  Zn
  Zn41     1.0000 0.62500  0.62500  0.39347  Biso   1.000  Zn
  Zn42     1.0000 0.62500  0.12500  0.89347  Biso   1.000  Zn
  Zn43     1.0000 0.12500  0.62500  0.89347  Biso   1.000  Zn
  Zn44     1.0000 0.12500  0.12500  0.39347  Biso   1.000  Zn
  Zn45     1.0000 0.62500  0.62500  0.85653  Biso   1.000  Zn
  Zn46     1.0000 0.62500  0.12500  0.35653  Biso   1.000  Zn
  Zn47     1.0000 0.12500  0.62500  0.35653  Biso   1.000  Zn
  Zn48     1.0000 0.12500  0.12500  0.85653  Biso   1.000  Zn
  Cl1      1.0000 0.12500  0.62500  0.75420  Biso   1.000  Cl
  Cl2      1.0000 0.12500  0.12500  0.25420  Biso   1.000  Cl
  Cl3      1.0000 0.62500  0.12500  0.75420  Biso   1.000  Cl
  Cl4      1.0000 0.62500  0.62500  0.25420  Biso   1.000  Cl
  Cl5      1.0000 0.62500  0.62500  0.99580  Biso   1.000  Cl
  Cl6      1.0000 0.62500  0.12500  0.49580  Biso   1.000  Cl
  Cl7      1.0000 0.12500  0.12500  0.99580  Biso   1.000  Cl
  Cl8      1.0000 0.12500  0.62500  0.49580  Biso   1.000  Cl
  Cl9      1.0000 0.87500  0.37500  0.24580  Biso   1.000  Cl
  Cl10     1.0000 0.87500  0.87500  0.74580  Biso   1.000  Cl
  Cl11     1.0000 0.37500  0.87500  0.24580  Biso   1.000  Cl
  Cl12     1.0000 0.37500  0.37500  0.74580  Biso   1.000  Cl
  Cl13     1.0000 0.37500  0.37500  0.00420  Biso   1.000  Cl
  Cl14     1.0000 0.37500  0.87500  0.50420  Biso   1.000  Cl
  Cl15     1.0000 0.87500  0.87500  0.00420  Biso   1.000  Cl
  Cl16     1.0000 0.87500  0.37500  0.50420  Biso   1.000  Cl
