data_SEWCED_clean
_audit_creation_date              2014-07-02
_audit_creation_method            'Materials Studio'
_symmetry_space_group_name_H-M    'P1'
_symmetry_Int_Tables_number       1
_symmetry_cell_setting            triclinic
loop_
_symmetry_equiv_pos_as_xyz
  x,y,z
_cell_length_a                    20.3049
_cell_length_b                    20.3049
_cell_length_c                    49.6410
_cell_angle_alpha                 90.0000
_cell_angle_beta                  90.0000
_cell_angle_gamma                 90.0000
loop_
_atom_site_label
_atom_site_type_symbol
_atom_site_fract_x
_atom_site_fract_y
_atom_site_fract_z
_atom_site_U_iso_or_equiv
_atom_site_adp_type
_atom_site_occupancy
Cd1    Cd    0.69109   0.12950   0.98190   0.01267  Uiso   1.00
Cd2    Cd    0.30891   0.87050   0.48190   0.01267  Uiso   1.00
Cd3    Cd    0.12950   0.69109   0.26810   0.01267  Uiso   1.00
Cd4    Cd    0.87050   0.30891   0.76810   0.01267  Uiso   1.00
Cd5    Cd    0.79681   0.20319   0.87500   0.01267  Uiso   1.00
Cd6    Cd    0.20319   0.79681   0.37500   0.01267  Uiso   1.00
H1     H     0.29300   0.24450   0.91140   0.01267  Uiso   1.00
H2     H     0.29740   0.25120   0.84270   0.01267  Uiso   1.00
H3     H     0.32370   0.98190   0.07580   0.01267  Uiso   1.00
H4     H     0.41570   0.83400   0.10960   0.01267  Uiso   1.00
H5     H     0.67070   0.26360   0.84610   0.01267  Uiso   1.00
H6     H     0.55720   0.25730   0.84350   0.01267  Uiso   1.00
H7     H     0.55910   0.12630   0.90410   0.01267  Uiso   1.00
H8     H     0.67390   0.13340   0.90510   0.01267  Uiso   1.00
H9     H     0.46060   0.24530   0.90680   0.01267  Uiso   1.00
H10    H     0.51940   0.11630   0.83330   0.01267  Uiso   1.00
H11    H     0.34610   0.05550   0.80140   0.01267  Uiso   1.00
H12    H     0.28960   0.10900   0.83510   0.01267  Uiso   1.00
H13    H     0.30670   0.10240   0.91310   0.01267  Uiso   1.00
H14    H     0.25490   0.03210   0.94220   0.01267  Uiso   1.00
H15    H     0.07890   0.08190   0.90950   0.01267  Uiso   1.00
H16    H     0.12880   0.24210   0.84630   0.01267  Uiso   1.00
H17    H     0.92280   0.18540   0.83440   0.01267  Uiso   1.00
H18    H     0.03490   0.16930   0.83440   0.01267  Uiso   1.00
H19    H     0.03170   0.18510   0.91510   0.01267  Uiso   1.00
H20    H     0.91950   0.20260   0.91290   0.01267  Uiso   1.00
H21    H     0.61890   0.15940   0.03670   0.01267  Uiso   1.00
H22    H     0.56030   0.11560   0.07130   0.01267  Uiso   1.00
H23    H     0.55400   0.94890   0.03110   0.01267  Uiso   1.00
H24    H     0.61520   0.99560   0.99830   0.01267  Uiso   1.00
H25    H     0.63560   0.98780   0.09180   0.01267  Uiso   1.00
H26    H     0.60850   0.90730   0.16630   0.01267  Uiso   1.00
H27    H     0.49570   0.91160   0.16110   0.01267  Uiso   1.00
H28    H     0.42350   0.00840   0.05780   0.01267  Uiso   1.00
H29    H     0.38900   0.04530   0.14510   0.01267  Uiso   1.00
H30    H     0.34940   0.11360   0.17860   0.01267  Uiso   1.00
H31    H     0.27550   0.95360   0.21780   0.01267  Uiso   1.00
H32    H     0.32180   0.77660   0.16140   0.01267  Uiso   1.00
H33    H     0.18840   0.88610   0.20360   0.01267  Uiso   1.00
H34    H     0.33570   0.75410   0.21070   0.01267  Uiso   1.00
H35    H     0.27190   0.69570   0.24110   0.01267  Uiso   1.00
H36    H     0.70700   0.75550   0.41140   0.01267  Uiso   1.00
H37    H     0.70260   0.74880   0.34270   0.01267  Uiso   1.00
H38    H     0.67630   0.01810   0.57580   0.01267  Uiso   1.00
H39    H     0.58430   0.16600   0.60960   0.01267  Uiso   1.00
H40    H     0.32930   0.73640   0.34610   0.01267  Uiso   1.00
H41    H     0.44280   0.74270   0.34350   0.01267  Uiso   1.00
H42    H     0.44090   0.87370   0.40410   0.01267  Uiso   1.00
H43    H     0.32610   0.86660   0.40510   0.01267  Uiso   1.00
H44    H     0.53940   0.75470   0.40680   0.01267  Uiso   1.00
H45    H     0.48060   0.88370   0.33330   0.01267  Uiso   1.00
H46    H     0.65390   0.94450   0.30140   0.01267  Uiso   1.00
H47    H     0.71040   0.89100   0.33510   0.01267  Uiso   1.00
H48    H     0.69330   0.89760   0.41310   0.01267  Uiso   1.00
H49    H     0.74510   0.96790   0.44220   0.01267  Uiso   1.00
H50    H     0.92110   0.91810   0.40950   0.01267  Uiso   1.00
H51    H     0.87120   0.75790   0.34630   0.01267  Uiso   1.00
H52    H     0.07720   0.81460   0.33440   0.01267  Uiso   1.00
H53    H     0.96510   0.83070   0.33440   0.01267  Uiso   1.00
H54    H     0.96830   0.81490   0.41510   0.01267  Uiso   1.00
H55    H     0.08050   0.79740   0.41290   0.01267  Uiso   1.00
H56    H     0.38110   0.84060   0.53670   0.01267  Uiso   1.00
H57    H     0.43970   0.88440   0.57130   0.01267  Uiso   1.00
H58    H     0.44600   0.05110   0.53110   0.01267  Uiso   1.00
H59    H     0.38480   0.00440   0.49830   0.01267  Uiso   1.00
H60    H     0.36440   0.01220   0.59180   0.01267  Uiso   1.00
H61    H     0.39150   0.09270   0.66630   0.01267  Uiso   1.00
H62    H     0.50430   0.08840   0.66110   0.01267  Uiso   1.00
H63    H     0.57650   0.99160   0.55780   0.01267  Uiso   1.00
H64    H     0.61100   0.95470   0.64510   0.01267  Uiso   1.00
H65    H     0.65060   0.88640   0.67860   0.01267  Uiso   1.00
H66    H     0.72450   0.04640   0.71780   0.01267  Uiso   1.00
H67    H     0.67820   0.22340   0.66140   0.01267  Uiso   1.00
H68    H     0.81160   0.11390   0.70360   0.01267  Uiso   1.00
H69    H     0.66430   0.24590   0.71070   0.01267  Uiso   1.00
H70    H     0.72810   0.30430   0.74110   0.01267  Uiso   1.00
H71    H     0.24450   0.29300   0.33860   0.01267  Uiso   1.00
H72    H     0.25120   0.29740   0.40730   0.01267  Uiso   1.00
H73    H     0.98190   0.32370   0.17420   0.01267  Uiso   1.00
H74    H     0.83400   0.41570   0.14040   0.01267  Uiso   1.00
H75    H     0.26360   0.67070   0.40390   0.01267  Uiso   1.00
H76    H     0.25730   0.55720   0.40650   0.01267  Uiso   1.00
H77    H     0.12630   0.55910   0.34590   0.01267  Uiso   1.00
H78    H     0.13340   0.67390   0.34490   0.01267  Uiso   1.00
H79    H     0.24530   0.46060   0.34320   0.01267  Uiso   1.00
H80    H     0.11630   0.51940   0.41670   0.01267  Uiso   1.00
H81    H     0.05550   0.34610   0.44860   0.01267  Uiso   1.00
H82    H     0.10900   0.28960   0.41490   0.01267  Uiso   1.00
H83    H     0.10240   0.30670   0.33690   0.01267  Uiso   1.00
H84    H     0.03210   0.25490   0.30780   0.01267  Uiso   1.00
H85    H     0.08190   0.07890   0.34050   0.01267  Uiso   1.00
H86    H     0.24210   0.12880   0.40370   0.01267  Uiso   1.00
H87    H     0.18540   0.92280   0.41560   0.01267  Uiso   1.00
H88    H     0.16930   0.03490   0.41560   0.01267  Uiso   1.00
H89    H     0.18510   0.03170   0.33490   0.01267  Uiso   1.00
H90    H     0.20260   0.91950   0.33710   0.01267  Uiso   1.00
H91    H     0.15940   0.61890   0.21330   0.01267  Uiso   1.00
H92    H     0.11560   0.56030   0.17870   0.01267  Uiso   1.00
H93    H     0.94890   0.55400   0.21890   0.01267  Uiso   1.00
H94    H     0.99560   0.61520   0.25170   0.01267  Uiso   1.00
H95    H     0.98780   0.63560   0.15820   0.01267  Uiso   1.00
H96    H     0.90730   0.60850   0.08370   0.01267  Uiso   1.00
H97    H     0.91160   0.49570   0.08890   0.01267  Uiso   1.00
H98    H     0.00840   0.42350   0.19220   0.01267  Uiso   1.00
H99    H     0.04530   0.38900   0.10490   0.01267  Uiso   1.00
H100   H     0.11360   0.34940   0.07140   0.01267  Uiso   1.00
H101   H     0.95360   0.27550   0.03220   0.01267  Uiso   1.00
H102   H     0.77660   0.32180   0.08860   0.01267  Uiso   1.00
H103   H     0.88610   0.18840   0.04640   0.01267  Uiso   1.00
H104   H     0.75410   0.33570   0.03930   0.01267  Uiso   1.00
H105   H     0.69570   0.27190   0.00890   0.01267  Uiso   1.00
H106   H     0.75550   0.70700   0.83860   0.01267  Uiso   1.00
H107   H     0.74880   0.70260   0.90730   0.01267  Uiso   1.00
H108   H     0.01810   0.67630   0.67420   0.01267  Uiso   1.00
H109   H     0.16600   0.58430   0.64040   0.01267  Uiso   1.00
H110   H     0.73640   0.32930   0.90390   0.01267  Uiso   1.00
H111   H     0.74270   0.44280   0.90650   0.01267  Uiso   1.00
H112   H     0.87370   0.44090   0.84590   0.01267  Uiso   1.00
H113   H     0.86660   0.32610   0.84490   0.01267  Uiso   1.00
H114   H     0.75470   0.53940   0.84320   0.01267  Uiso   1.00
H115   H     0.88370   0.48060   0.91670   0.01267  Uiso   1.00
H116   H     0.94450   0.65390   0.94860   0.01267  Uiso   1.00
H117   H     0.89100   0.71040   0.91490   0.01267  Uiso   1.00
H118   H     0.89760   0.69330   0.83690   0.01267  Uiso   1.00
H119   H     0.96790   0.74510   0.80780   0.01267  Uiso   1.00
H120   H     0.91810   0.92110   0.84050   0.01267  Uiso   1.00
H121   H     0.75790   0.87120   0.90370   0.01267  Uiso   1.00
H122   H     0.81460   0.07720   0.91560   0.01267  Uiso   1.00
H123   H     0.83070   0.96510   0.91560   0.01267  Uiso   1.00
H124   H     0.81490   0.96830   0.83490   0.01267  Uiso   1.00
H125   H     0.79740   0.08050   0.83710   0.01267  Uiso   1.00
H126   H     0.84060   0.38110   0.71330   0.01267  Uiso   1.00
H127   H     0.88440   0.43970   0.67870   0.01267  Uiso   1.00
H128   H     0.05110   0.44600   0.71890   0.01267  Uiso   1.00
H129   H     0.00440   0.38480   0.75170   0.01267  Uiso   1.00
H130   H     0.01220   0.36440   0.65820   0.01267  Uiso   1.00
H131   H     0.09270   0.39150   0.58370   0.01267  Uiso   1.00
H132   H     0.08840   0.50430   0.58890   0.01267  Uiso   1.00
H133   H     0.99160   0.57650   0.69220   0.01267  Uiso   1.00
H134   H     0.95470   0.61100   0.60490   0.01267  Uiso   1.00
H135   H     0.88640   0.65060   0.57140   0.01267  Uiso   1.00
H136   H     0.04640   0.72450   0.53220   0.01267  Uiso   1.00
H137   H     0.22340   0.67820   0.58860   0.01267  Uiso   1.00
H138   H     0.11390   0.81160   0.54640   0.01267  Uiso   1.00
H139   H     0.24590   0.66430   0.53930   0.01267  Uiso   1.00
H140   H     0.30430   0.72810   0.50890   0.01267  Uiso   1.00
C1     C     0.64780   0.23590   0.85838   0.01267  Uiso   1.00
C2     C     0.57990   0.23250   0.85674   0.01267  Uiso   1.00
C3     C     0.54500   0.19300   0.87446   0.01267  Uiso   1.00
C4     C     0.58100   0.15560   0.89219   0.01267  Uiso   1.00
C5     C     0.65000   0.16030   0.89281   0.01267  Uiso   1.00
C6     C     0.47250   0.18930   0.87341   0.01267  Uiso   1.00
C7     C     0.43740   0.22130   0.89341   0.01267  Uiso   1.00
C8     C     0.36740   0.21920   0.89439   0.01267  Uiso   1.00
C9     C     0.33260   0.18350   0.87519   0.01267  Uiso   1.00
C10    C     0.36900   0.14850   0.85442   0.01267  Uiso   1.00
C11    C     0.43780   0.15080   0.85391   0.01267  Uiso   1.00
C12    C     0.47270   0.11520   0.83376   0.01267  Uiso   1.00
C13    C     0.43890   0.07990   0.81540   0.01267  Uiso   1.00
C14    C     0.36920   0.07870   0.81510   0.01267  Uiso   1.00
C15    C     0.33640   0.11130   0.83469   0.01267  Uiso   1.00
C16    C     0.25960   0.18110   0.87566   0.01267  Uiso   1.00
C17    C     0.22610   0.13860   0.89411   0.01267  Uiso   1.00
C18    C     0.26000   0.09920   0.91250   0.01267  Uiso   1.00
C19    C     0.23010   0.05670   0.92951   0.01267  Uiso   1.00
C20    C     0.16130   0.04980   0.92795   0.01267  Uiso   1.00
C21    C     0.12530   0.08740   0.91034   0.01267  Uiso   1.00
C22    C     0.15560   0.13370   0.89355   0.01267  Uiso   1.00
C23    C     0.12050   0.17490   0.87516   0.01267  Uiso   1.00
C24    C     0.15320   0.21450   0.85807   0.01267  Uiso   1.00
C25    C     0.22370   0.21650   0.85717   0.01267  Uiso   1.00
C26    C     0.94550   0.18660   0.85117   0.01267  Uiso   1.00
C27    C     0.01270   0.17710   0.85097   0.01267  Uiso   1.00
C28    C     0.04740   0.17900   0.87444   0.01267  Uiso   1.00
C29    C     0.01050   0.18660   0.89805   0.01267  Uiso   1.00
C30    C     0.94340   0.19630   0.89664   0.01267  Uiso   1.00
C31    C     0.60690   0.11420   0.03573   0.01267  Uiso   1.00
C32    C     0.57080   0.08870   0.05624   0.01267  Uiso   1.00
C33    C     0.54960   0.02550   0.05555   0.01267  Uiso   1.00
C34    C     0.56770   0.99330   0.03330   0.01267  Uiso   1.00
C35    C     0.60450   0.02110   0.01370   0.01267  Uiso   1.00
C36    C     0.50760   0.99620   0.07712   0.01267  Uiso   1.00
C37    C     0.53670   0.97260   0.10146   0.01267  Uiso   1.00
C38    C     0.60690   0.97310   0.10570   0.01267  Uiso   1.00
C39    C     0.63170   0.95230   0.12960   0.01267  Uiso   1.00
C40    C     0.58990   0.92530   0.15040   0.01267  Uiso   1.00
C41    C     0.52360   0.92610   0.14691   0.01267  Uiso   1.00
C42    C     0.49540   0.94820   0.12247   0.01267  Uiso   1.00
C43    C     0.42610   0.94520   0.11845   0.01267  Uiso   1.00
C44    C     0.40010   0.96680   0.09446   0.01267  Uiso   1.00
C45    C     0.44250   0.99290   0.07408   0.01267  Uiso   1.00
C46    C     0.38310   0.91660   0.13995   0.01267  Uiso   1.00
C47    C     0.35610   0.95670   0.16031   0.01267  Uiso   1.00
C48    C     0.36570   0.02650   0.15981   0.01267  Uiso   1.00
C49    C     0.34270   0.06730   0.17958   0.01267  Uiso   1.00
C50    C     0.30820   0.03850   0.20170   0.01267  Uiso   1.00
C51    C     0.29800   0.97170   0.20273   0.01267  Uiso   1.00
C52    C     0.31950   0.93000   0.18246   0.01267  Uiso   1.00
C53    C     0.30770   0.85950   0.18171   0.01267  Uiso   1.00
C54    C     0.33130   0.82240   0.16158   0.01267  Uiso   1.00
C55    C     0.37050   0.85020   0.14030   0.01267  Uiso   1.00
C56    C     0.16880   0.80920   0.22899   0.01267  Uiso   1.00
C57    C     0.20620   0.84660   0.21083   0.01267  Uiso   1.00
C58    C     0.26810   0.82700   0.20333   0.01267  Uiso   1.00
C59    C     0.29270   0.76920   0.21512   0.01267  Uiso   1.00
C60    C     0.25430   0.73440   0.23315   0.01267  Uiso   1.00
C61    C     0.35220   0.76410   0.35838   0.01267  Uiso   1.00
C62    C     0.42010   0.76750   0.35674   0.01267  Uiso   1.00
C63    C     0.45500   0.80700   0.37446   0.01267  Uiso   1.00
C64    C     0.41900   0.84440   0.39219   0.01267  Uiso   1.00
C65    C     0.35000   0.83970   0.39281   0.01267  Uiso   1.00
C66    C     0.52750   0.81070   0.37341   0.01267  Uiso   1.00
C67    C     0.56260   0.77870   0.39341   0.01267  Uiso   1.00
C68    C     0.63260   0.78080   0.39439   0.01267  Uiso   1.00
C69    C     0.66740   0.81650   0.37519   0.01267  Uiso   1.00
C70    C     0.63100   0.85150   0.35442   0.01267  Uiso   1.00
C71    C     0.56220   0.84920   0.35391   0.01267  Uiso   1.00
C72    C     0.52730   0.88480   0.33376   0.01267  Uiso   1.00
C73    C     0.56110   0.92010   0.31540   0.01267  Uiso   1.00
C74    C     0.63080   0.92130   0.31510   0.01267  Uiso   1.00
C75    C     0.66360   0.88870   0.33469   0.01267  Uiso   1.00
C76    C     0.74040   0.81890   0.37566   0.01267  Uiso   1.00
C77    C     0.77390   0.86140   0.39411   0.01267  Uiso   1.00
C78    C     0.74000   0.90080   0.41250   0.01267  Uiso   1.00
C79    C     0.76990   0.94330   0.42951   0.01267  Uiso   1.00
C80    C     0.83870   0.95020   0.42795   0.01267  Uiso   1.00
C81    C     0.87470   0.91260   0.41034   0.01267  Uiso   1.00
C82    C     0.84440   0.86630   0.39355   0.01267  Uiso   1.00
C83    C     0.87950   0.82510   0.37516   0.01267  Uiso   1.00
C84    C     0.84680   0.78550   0.35807   0.01267  Uiso   1.00
C85    C     0.77630   0.78350   0.35717   0.01267  Uiso   1.00
C86    C     0.05450   0.81340   0.35117   0.01267  Uiso   1.00
C87    C     0.98730   0.82290   0.35097   0.01267  Uiso   1.00
C88    C     0.95260   0.82100   0.37444   0.01267  Uiso   1.00
C89    C     0.98950   0.81340   0.39805   0.01267  Uiso   1.00
C90    C     0.05660   0.80370   0.39664   0.01267  Uiso   1.00
C91    C     0.39310   0.88580   0.53573   0.01267  Uiso   1.00
C92    C     0.42920   0.91130   0.55624   0.01267  Uiso   1.00
C93    C     0.45040   0.97450   0.55555   0.01267  Uiso   1.00
C94    C     0.43230   0.00670   0.53330   0.01267  Uiso   1.00
C95    C     0.39550   0.97890   0.51370   0.01267  Uiso   1.00
C96    C     0.49240   0.00380   0.57712   0.01267  Uiso   1.00
C97    C     0.46330   0.02740   0.60146   0.01267  Uiso   1.00
C98    C     0.39310   0.02690   0.60570   0.01267  Uiso   1.00
C99    C     0.36830   0.04770   0.62960   0.01267  Uiso   1.00
C100   C     0.41010   0.07470   0.65040   0.01267  Uiso   1.00
C101   C     0.47640   0.07390   0.64691   0.01267  Uiso   1.00
C102   C     0.50460   0.05180   0.62247   0.01267  Uiso   1.00
C103   C     0.57390   0.05480   0.61845   0.01267  Uiso   1.00
C104   C     0.59990   0.03320   0.59446   0.01267  Uiso   1.00
C105   C     0.55750   0.00710   0.57408   0.01267  Uiso   1.00
C106   C     0.61690   0.08340   0.63995   0.01267  Uiso   1.00
C107   C     0.64390   0.04330   0.66031   0.01267  Uiso   1.00
C108   C     0.63430   0.97350   0.65981   0.01267  Uiso   1.00
C109   C     0.65730   0.93270   0.67958   0.01267  Uiso   1.00
C110   C     0.69180   0.96150   0.70170   0.01267  Uiso   1.00
C111   C     0.70200   0.02830   0.70273   0.01267  Uiso   1.00
C112   C     0.68050   0.07000   0.68246   0.01267  Uiso   1.00
C113   C     0.69230   0.14050   0.68171   0.01267  Uiso   1.00
C114   C     0.66870   0.17760   0.66158   0.01267  Uiso   1.00
C115   C     0.62950   0.14980   0.64030   0.01267  Uiso   1.00
C116   C     0.83120   0.19080   0.72899   0.01267  Uiso   1.00
C117   C     0.79380   0.15340   0.71083   0.01267  Uiso   1.00
C118   C     0.73190   0.17300   0.70333   0.01267  Uiso   1.00
C119   C     0.70730   0.23080   0.71512   0.01267  Uiso   1.00
C120   C     0.74570   0.26560   0.73315   0.01267  Uiso   1.00
C121   C     0.23590   0.64780   0.39162   0.01267  Uiso   1.00
C122   C     0.23250   0.57990   0.39326   0.01267  Uiso   1.00
C123   C     0.19300   0.54500   0.37554   0.01267  Uiso   1.00
C124   C     0.15560   0.58100   0.35781   0.01267  Uiso   1.00
C125   C     0.16030   0.65000   0.35719   0.01267  Uiso   1.00
C126   C     0.18930   0.47250   0.37659   0.01267  Uiso   1.00
C127   C     0.22130   0.43740   0.35659   0.01267  Uiso   1.00
C128   C     0.21920   0.36740   0.35561   0.01267  Uiso   1.00
C129   C     0.18350   0.33260   0.37481   0.01267  Uiso   1.00
C130   C     0.14850   0.36900   0.39558   0.01267  Uiso   1.00
C131   C     0.15080   0.43780   0.39609   0.01267  Uiso   1.00
C132   C     0.11520   0.47270   0.41624   0.01267  Uiso   1.00
C133   C     0.07990   0.43890   0.43460   0.01267  Uiso   1.00
C134   C     0.07870   0.36920   0.43490   0.01267  Uiso   1.00
C135   C     0.11130   0.33640   0.41531   0.01267  Uiso   1.00
C136   C     0.18110   0.25960   0.37434   0.01267  Uiso   1.00
C137   C     0.13860   0.22610   0.35589   0.01267  Uiso   1.00
C138   C     0.09920   0.26000   0.33750   0.01267  Uiso   1.00
C139   C     0.05670   0.23010   0.32049   0.01267  Uiso   1.00
C140   C     0.04980   0.16130   0.32205   0.01267  Uiso   1.00
C141   C     0.08740   0.12530   0.33966   0.01267  Uiso   1.00
C142   C     0.13370   0.15560   0.35645   0.01267  Uiso   1.00
C143   C     0.17490   0.12050   0.37484   0.01267  Uiso   1.00
C144   C     0.21450   0.15320   0.39193   0.01267  Uiso   1.00
C145   C     0.21650   0.22370   0.39283   0.01267  Uiso   1.00
C146   C     0.18660   0.94550   0.39883   0.01267  Uiso   1.00
C147   C     0.17710   0.01270   0.39903   0.01267  Uiso   1.00
C148   C     0.17900   0.04740   0.37556   0.01267  Uiso   1.00
C149   C     0.18660   0.01050   0.35195   0.01267  Uiso   1.00
C150   C     0.19630   0.94340   0.35336   0.01267  Uiso   1.00
C151   C     0.11420   0.60690   0.21427   0.01267  Uiso   1.00
C152   C     0.08870   0.57080   0.19376   0.01267  Uiso   1.00
C153   C     0.02550   0.54960   0.19445   0.01267  Uiso   1.00
C154   C     0.99330   0.56770   0.21670   0.01267  Uiso   1.00
C155   C     0.02110   0.60450   0.23630   0.01267  Uiso   1.00
C156   C     0.99620   0.50760   0.17288   0.01267  Uiso   1.00
C157   C     0.97260   0.53670   0.14854   0.01267  Uiso   1.00
C158   C     0.97310   0.60690   0.14430   0.01267  Uiso   1.00
C159   C     0.95230   0.63170   0.12040   0.01267  Uiso   1.00
C160   C     0.92530   0.58990   0.09960   0.01267  Uiso   1.00
C161   C     0.92610   0.52360   0.10309   0.01267  Uiso   1.00
C162   C     0.94820   0.49540   0.12753   0.01267  Uiso   1.00
C163   C     0.94520   0.42610   0.13155   0.01267  Uiso   1.00
C164   C     0.96680   0.40010   0.15554   0.01267  Uiso   1.00
C165   C     0.99290   0.44250   0.17592   0.01267  Uiso   1.00
C166   C     0.91660   0.38310   0.11005   0.01267  Uiso   1.00
C167   C     0.95670   0.35610   0.08969   0.01267  Uiso   1.00
C168   C     0.02650   0.36570   0.09019   0.01267  Uiso   1.00
C169   C     0.06730   0.34270   0.07042   0.01267  Uiso   1.00
C170   C     0.03850   0.30820   0.04830   0.01267  Uiso   1.00
C171   C     0.97170   0.29800   0.04727   0.01267  Uiso   1.00
C172   C     0.93000   0.31950   0.06754   0.01267  Uiso   1.00
C173   C     0.85950   0.30770   0.06829   0.01267  Uiso   1.00
C174   C     0.82240   0.33130   0.08842   0.01267  Uiso   1.00
C175   C     0.85020   0.37050   0.10970   0.01267  Uiso   1.00
C176   C     0.80920   0.16880   0.02101   0.01267  Uiso   1.00
C177   C     0.84660   0.20620   0.03917   0.01267  Uiso   1.00
C178   C     0.82700   0.26810   0.04667   0.01267  Uiso   1.00
C179   C     0.76920   0.29270   0.03488   0.01267  Uiso   1.00
C180   C     0.73440   0.25430   0.01685   0.01267  Uiso   1.00
C181   C     0.76410   0.35220   0.89162   0.01267  Uiso   1.00
C182   C     0.76750   0.42010   0.89326   0.01267  Uiso   1.00
C183   C     0.80700   0.45500   0.87554   0.01267  Uiso   1.00
C184   C     0.84440   0.41900   0.85781   0.01267  Uiso   1.00
C185   C     0.83970   0.35000   0.85719   0.01267  Uiso   1.00
C186   C     0.81070   0.52750   0.87659   0.01267  Uiso   1.00
C187   C     0.77870   0.56260   0.85659   0.01267  Uiso   1.00
C188   C     0.78080   0.63260   0.85561   0.01267  Uiso   1.00
C189   C     0.81650   0.66740   0.87481   0.01267  Uiso   1.00
C190   C     0.85150   0.63100   0.89558   0.01267  Uiso   1.00
C191   C     0.84920   0.56220   0.89609   0.01267  Uiso   1.00
C192   C     0.88480   0.52730   0.91624   0.01267  Uiso   1.00
C193   C     0.92010   0.56110   0.93460   0.01267  Uiso   1.00
C194   C     0.92130   0.63080   0.93490   0.01267  Uiso   1.00
C195   C     0.88870   0.66360   0.91531   0.01267  Uiso   1.00
C196   C     0.81890   0.74040   0.87434   0.01267  Uiso   1.00
C197   C     0.86140   0.77390   0.85589   0.01267  Uiso   1.00
C198   C     0.90080   0.74000   0.83750   0.01267  Uiso   1.00
C199   C     0.94330   0.76990   0.82049   0.01267  Uiso   1.00
C200   C     0.95020   0.83870   0.82205   0.01267  Uiso   1.00
C201   C     0.91260   0.87470   0.83966   0.01267  Uiso   1.00
C202   C     0.86630   0.84440   0.85645   0.01267  Uiso   1.00
C203   C     0.82510   0.87950   0.87484   0.01267  Uiso   1.00
C204   C     0.78550   0.84680   0.89193   0.01267  Uiso   1.00
C205   C     0.78350   0.77630   0.89283   0.01267  Uiso   1.00
C206   C     0.81340   0.05450   0.89883   0.01267  Uiso   1.00
C207   C     0.82290   0.98730   0.89903   0.01267  Uiso   1.00
C208   C     0.82100   0.95260   0.87556   0.01267  Uiso   1.00
C209   C     0.81340   0.98950   0.85195   0.01267  Uiso   1.00
C210   C     0.80370   0.05660   0.85336   0.01267  Uiso   1.00
C211   C     0.88580   0.39310   0.71427   0.01267  Uiso   1.00
C212   C     0.91130   0.42920   0.69376   0.01267  Uiso   1.00
C213   C     0.97450   0.45040   0.69445   0.01267  Uiso   1.00
C214   C     0.00670   0.43230   0.71670   0.01267  Uiso   1.00
C215   C     0.97890   0.39550   0.73630   0.01267  Uiso   1.00
C216   C     0.00380   0.49240   0.67288   0.01267  Uiso   1.00
C217   C     0.02740   0.46330   0.64854   0.01267  Uiso   1.00
C218   C     0.02690   0.39310   0.64430   0.01267  Uiso   1.00
C219   C     0.04770   0.36830   0.62040   0.01267  Uiso   1.00
C220   C     0.07470   0.41010   0.59960   0.01267  Uiso   1.00
C221   C     0.07390   0.47640   0.60309   0.01267  Uiso   1.00
C222   C     0.05180   0.50460   0.62753   0.01267  Uiso   1.00
C223   C     0.05480   0.57390   0.63155   0.01267  Uiso   1.00
C224   C     0.03320   0.59990   0.65554   0.01267  Uiso   1.00
C225   C     0.00710   0.55750   0.67592   0.01267  Uiso   1.00
C226   C     0.08340   0.61690   0.61005   0.01267  Uiso   1.00
C227   C     0.04330   0.64390   0.58969   0.01267  Uiso   1.00
C228   C     0.97350   0.63430   0.59019   0.01267  Uiso   1.00
C229   C     0.93270   0.65730   0.57042   0.01267  Uiso   1.00
C230   C     0.96150   0.69180   0.54830   0.01267  Uiso   1.00
C231   C     0.02830   0.70200   0.54727   0.01267  Uiso   1.00
C232   C     0.07000   0.68050   0.56754   0.01267  Uiso   1.00
C233   C     0.14050   0.69230   0.56829   0.01267  Uiso   1.00
C234   C     0.17760   0.66870   0.58842   0.01267  Uiso   1.00
C235   C     0.14980   0.62950   0.60970   0.01267  Uiso   1.00
C236   C     0.19080   0.83120   0.52101   0.01267  Uiso   1.00
C237   C     0.15340   0.79380   0.53917   0.01267  Uiso   1.00
C238   C     0.17300   0.73190   0.54667   0.01267  Uiso   1.00
C239   C     0.23080   0.70730   0.53488   0.01267  Uiso   1.00
C240   C     0.26560   0.74570   0.51685   0.01267  Uiso   1.00
N1     N     0.68317   0.20110   0.87681   0.01267  Uiso   1.00
N2     N     0.91070   0.19710   0.87336   0.01267  Uiso   1.00
N3     N     0.62580   0.08100   0.01503   0.01267  Uiso   1.00
N4     N     0.19270   0.75350   0.23980   0.01267  Uiso   1.00
N5     N     0.76780   0.20530   0.94015   0.01267  Uiso   1.00
N6     N     0.31683   0.79890   0.37681   0.01267  Uiso   1.00
N7     N     0.08930   0.80290   0.37336   0.01267  Uiso   1.00
N8     N     0.37420   0.91900   0.51503   0.01267  Uiso   1.00
N9     N     0.80730   0.24650   0.73980   0.01267  Uiso   1.00
N10    N     0.23220   0.79470   0.44015   0.01267  Uiso   1.00
N11    N     0.20110   0.68317   0.37319   0.01267  Uiso   1.00
N12    N     0.19710   0.91070   0.37664   0.01267  Uiso   1.00
N13    N     0.08100   0.62580   0.23497   0.01267  Uiso   1.00
N14    N     0.75350   0.19270   0.01020   0.01267  Uiso   1.00
N15    N     0.20530   0.76780   0.30985   0.01267  Uiso   1.00
N16    N     0.79890   0.31683   0.87319   0.01267  Uiso   1.00
N17    N     0.80290   0.08930   0.87664   0.01267  Uiso   1.00
N18    N     0.91900   0.37420   0.73497   0.01267  Uiso   1.00
N19    N     0.24650   0.80730   0.51020   0.01267  Uiso   1.00
N20    N     0.79470   0.23220   0.80985   0.01267  Uiso   1.00
Cl1    Cl    0.48055   0.03580   0.79037   0.01267  Uiso   1.00
Cl2    Cl    0.12222   0.99512   0.94962   0.01267  Uiso   1.00
Cl3    Cl    0.71620   0.95420   0.13516   0.01267  Uiso   1.00
Cl4    Cl    0.27904   0.09081   0.22659   0.01267  Uiso   1.00
Cl5    Cl    0.51945   0.96420   0.29037   0.01267  Uiso   1.00
Cl6    Cl    0.87778   0.00488   0.44962   0.01267  Uiso   1.00
Cl7    Cl    0.28380   0.04580   0.63516   0.01267  Uiso   1.00
Cl8    Cl    0.72096   0.90919   0.72659   0.01267  Uiso   1.00
Cl9    Cl    0.03580   0.48055   0.45963   0.01267  Uiso   1.00
Cl10   Cl    0.99512   0.12222   0.30038   0.01267  Uiso   1.00
Cl11   Cl    0.95420   0.71620   0.11484   0.01267  Uiso   1.00
Cl12   Cl    0.09081   0.27904   0.02341   0.01267  Uiso   1.00
Cl13   Cl    0.96420   0.51945   0.95963   0.01267  Uiso   1.00
Cl14   Cl    0.00488   0.87778   0.80038   0.01267  Uiso   1.00
Cl15   Cl    0.04580   0.28380   0.61484   0.01267  Uiso   1.00
Cl16   Cl    0.90919   0.72096   0.52341   0.01267  Uiso   1.00
O1     O     0.33350   0.25040   0.91377   0.01267  Uiso   1.00
O2     O     0.25670   0.25670   0.84060   0.01267  Uiso   1.00
O3     O     0.33330   0.96380   0.09053   0.01267  Uiso   1.00
O4     O     0.39560   0.81100   0.12103   0.01267  Uiso   1.00
O5     O     0.72740   0.24570   0.94939   0.01267  Uiso   1.00
O6     O     0.76410   0.14980   0.94750   0.01267  Uiso   1.00
O7     O     0.80470   0.22470   0.92153   0.01267  Uiso   1.00
O8     O     0.66650   0.74960   0.41377   0.01267  Uiso   1.00
O9     O     0.74330   0.74330   0.34060   0.01267  Uiso   1.00
O10    O     0.66670   0.03620   0.59053   0.01267  Uiso   1.00
O11    O     0.60440   0.18900   0.62103   0.01267  Uiso   1.00
O12    O     0.27260   0.75430   0.44939   0.01267  Uiso   1.00
O13    O     0.23590   0.85020   0.44750   0.01267  Uiso   1.00
O14    O     0.19530   0.77530   0.42153   0.01267  Uiso   1.00
O15    O     0.25040   0.33350   0.33623   0.01267  Uiso   1.00
O16    O     0.25670   0.25670   0.40940   0.01267  Uiso   1.00
O17    O     0.96380   0.33330   0.15947   0.01267  Uiso   1.00
O18    O     0.81100   0.39560   0.12897   0.01267  Uiso   1.00
O19    O     0.24570   0.72740   0.30061   0.01267  Uiso   1.00
O20    O     0.14980   0.76410   0.30250   0.01267  Uiso   1.00
O21    O     0.22470   0.80470   0.32847   0.01267  Uiso   1.00
O22    O     0.74960   0.66650   0.83623   0.01267  Uiso   1.00
O23    O     0.74330   0.74330   0.90940   0.01267  Uiso   1.00
O24    O     0.03620   0.66670   0.65947   0.01267  Uiso   1.00
O25    O     0.18900   0.60440   0.62897   0.01267  Uiso   1.00
O26    O     0.75430   0.27260   0.80061   0.01267  Uiso   1.00
O27    O     0.85020   0.23590   0.80250   0.01267  Uiso   1.00
O28    O     0.77530   0.19530   0.82847   0.01267  Uiso   1.00
Cd7    Cd    0.87050   0.69109   0.73190   0.01267  Uiso   1.00
Cd8    Cd    0.12950   0.30891   0.23190   0.01267  Uiso   1.00
Cd9    Cd    0.30891   0.12950   0.01810   0.01267  Uiso   1.00
Cd10   Cd    0.69109   0.87050   0.51810   0.01267  Uiso   1.00
Cd11   Cd    0.79681   0.79681   0.62500   0.01267  Uiso   1.00
Cd12   Cd    0.20319   0.20319   0.12500   0.01267  Uiso   1.00
H141   H     0.75550   0.29300   0.66140   0.01267  Uiso   1.00
H142   H     0.74880   0.29740   0.59270   0.01267  Uiso   1.00
H143   H     0.01810   0.32370   0.82580   0.01267  Uiso   1.00
H144   H     0.16600   0.41570   0.85960   0.01267  Uiso   1.00
H145   H     0.73640   0.67070   0.59610   0.01267  Uiso   1.00
H146   H     0.74270   0.55720   0.59350   0.01267  Uiso   1.00
H147   H     0.87370   0.55910   0.65410   0.01267  Uiso   1.00
H148   H     0.86660   0.67390   0.65510   0.01267  Uiso   1.00
H149   H     0.75470   0.46060   0.65680   0.01267  Uiso   1.00
H150   H     0.88370   0.51940   0.58330   0.01267  Uiso   1.00
H151   H     0.94450   0.34610   0.55140   0.01267  Uiso   1.00
H152   H     0.89100   0.28960   0.58510   0.01267  Uiso   1.00
H153   H     0.89760   0.30670   0.66310   0.01267  Uiso   1.00
H154   H     0.96790   0.25490   0.69220   0.01267  Uiso   1.00
H155   H     0.91810   0.07890   0.65950   0.01267  Uiso   1.00
H156   H     0.75790   0.12880   0.59630   0.01267  Uiso   1.00
H157   H     0.81460   0.92280   0.58440   0.01267  Uiso   1.00
H158   H     0.83070   0.03490   0.58440   0.01267  Uiso   1.00
H159   H     0.81490   0.03170   0.66510   0.01267  Uiso   1.00
H160   H     0.79740   0.91950   0.66290   0.01267  Uiso   1.00
H161   H     0.84060   0.61890   0.78670   0.01267  Uiso   1.00
H162   H     0.88440   0.56030   0.82130   0.01267  Uiso   1.00
H163   H     0.05110   0.55400   0.78110   0.01267  Uiso   1.00
H164   H     0.00440   0.61520   0.74830   0.01267  Uiso   1.00
H165   H     0.01220   0.63560   0.84180   0.01267  Uiso   1.00
H166   H     0.09270   0.60850   0.91630   0.01267  Uiso   1.00
H167   H     0.08840   0.49570   0.91110   0.01267  Uiso   1.00
H168   H     0.99160   0.42350   0.80780   0.01267  Uiso   1.00
H169   H     0.95470   0.38900   0.89510   0.01267  Uiso   1.00
H170   H     0.88640   0.34940   0.92860   0.01267  Uiso   1.00
H171   H     0.04640   0.27550   0.96780   0.01267  Uiso   1.00
H172   H     0.22340   0.32180   0.91140   0.01267  Uiso   1.00
H173   H     0.11390   0.18840   0.95360   0.01267  Uiso   1.00
H174   H     0.24590   0.33570   0.96070   0.01267  Uiso   1.00
H175   H     0.30430   0.27190   0.99110   0.01267  Uiso   1.00
H176   H     0.24450   0.70700   0.16140   0.01267  Uiso   1.00
H177   H     0.25120   0.70260   0.09270   0.01267  Uiso   1.00
H178   H     0.98190   0.67630   0.32580   0.01267  Uiso   1.00
H179   H     0.83400   0.58430   0.35960   0.01267  Uiso   1.00
H180   H     0.26360   0.32930   0.09610   0.01267  Uiso   1.00
H181   H     0.25730   0.44280   0.09350   0.01267  Uiso   1.00
H182   H     0.12630   0.44090   0.15410   0.01267  Uiso   1.00
H183   H     0.13340   0.32610   0.15510   0.01267  Uiso   1.00
H184   H     0.24530   0.53940   0.15680   0.01267  Uiso   1.00
H185   H     0.11630   0.48060   0.08330   0.01267  Uiso   1.00
H186   H     0.05550   0.65390   0.05140   0.01267  Uiso   1.00
H187   H     0.10900   0.71040   0.08510   0.01267  Uiso   1.00
H188   H     0.10240   0.69330   0.16310   0.01267  Uiso   1.00
H189   H     0.03210   0.74510   0.19220   0.01267  Uiso   1.00
H190   H     0.08190   0.92110   0.15950   0.01267  Uiso   1.00
H191   H     0.24210   0.87120   0.09630   0.01267  Uiso   1.00
H192   H     0.18540   0.07720   0.08440   0.01267  Uiso   1.00
H193   H     0.16930   0.96510   0.08440   0.01267  Uiso   1.00
H194   H     0.18510   0.96830   0.16510   0.01267  Uiso   1.00
H195   H     0.20260   0.08050   0.16290   0.01267  Uiso   1.00
H196   H     0.15940   0.38110   0.28670   0.01267  Uiso   1.00
H197   H     0.11560   0.43970   0.32130   0.01267  Uiso   1.00
H198   H     0.94890   0.44600   0.28110   0.01267  Uiso   1.00
H199   H     0.99560   0.38480   0.24830   0.01267  Uiso   1.00
H200   H     0.98780   0.36440   0.34180   0.01267  Uiso   1.00
H201   H     0.90730   0.39150   0.41630   0.01267  Uiso   1.00
H202   H     0.91160   0.50430   0.41110   0.01267  Uiso   1.00
H203   H     0.00840   0.57650   0.30780   0.01267  Uiso   1.00
H204   H     0.04530   0.61100   0.39510   0.01267  Uiso   1.00
H205   H     0.11360   0.65060   0.42860   0.01267  Uiso   1.00
H206   H     0.95360   0.72450   0.46780   0.01267  Uiso   1.00
H207   H     0.77660   0.67820   0.41140   0.01267  Uiso   1.00
H208   H     0.88610   0.81160   0.45360   0.01267  Uiso   1.00
H209   H     0.75410   0.66430   0.46070   0.01267  Uiso   1.00
H210   H     0.69570   0.72810   0.49110   0.01267  Uiso   1.00
H211   H     0.70700   0.24450   0.08860   0.01267  Uiso   1.00
H212   H     0.70260   0.25120   0.15730   0.01267  Uiso   1.00
H213   H     0.67630   0.98190   0.92420   0.01267  Uiso   1.00
H214   H     0.58430   0.83400   0.89040   0.01267  Uiso   1.00
H215   H     0.32930   0.26360   0.15390   0.01267  Uiso   1.00
H216   H     0.44280   0.25730   0.15650   0.01267  Uiso   1.00
H217   H     0.44090   0.12630   0.09590   0.01267  Uiso   1.00
H218   H     0.32610   0.13340   0.09490   0.01267  Uiso   1.00
H219   H     0.53940   0.24530   0.09320   0.01267  Uiso   1.00
H220   H     0.48060   0.11630   0.16670   0.01267  Uiso   1.00
H221   H     0.65390   0.05550   0.19860   0.01267  Uiso   1.00
H222   H     0.71040   0.10900   0.16490   0.01267  Uiso   1.00
H223   H     0.69330   0.10240   0.08690   0.01267  Uiso   1.00
H224   H     0.74510   0.03210   0.05780   0.01267  Uiso   1.00
H225   H     0.92110   0.08190   0.09050   0.01267  Uiso   1.00
H226   H     0.87120   0.24210   0.15370   0.01267  Uiso   1.00
H227   H     0.07720   0.18540   0.16560   0.01267  Uiso   1.00
H228   H     0.96510   0.16930   0.16560   0.01267  Uiso   1.00
H229   H     0.96830   0.18510   0.08490   0.01267  Uiso   1.00
H230   H     0.08050   0.20260   0.08710   0.01267  Uiso   1.00
H231   H     0.38110   0.15940   0.96330   0.01267  Uiso   1.00
H232   H     0.43970   0.11560   0.92870   0.01267  Uiso   1.00
H233   H     0.44600   0.94890   0.96890   0.01267  Uiso   1.00
H234   H     0.38480   0.99560   0.00170   0.01267  Uiso   1.00
H235   H     0.36440   0.98780   0.90820   0.01267  Uiso   1.00
H236   H     0.39150   0.90730   0.83370   0.01267  Uiso   1.00
H237   H     0.50430   0.91160   0.83890   0.01267  Uiso   1.00
H238   H     0.57650   0.00840   0.94220   0.01267  Uiso   1.00
H239   H     0.61100   0.04530   0.85490   0.01267  Uiso   1.00
H240   H     0.65060   0.11360   0.82140   0.01267  Uiso   1.00
H241   H     0.72450   0.95360   0.78220   0.01267  Uiso   1.00
H242   H     0.67820   0.77660   0.83860   0.01267  Uiso   1.00
H243   H     0.81160   0.88610   0.79640   0.01267  Uiso   1.00
H244   H     0.66430   0.75410   0.78930   0.01267  Uiso   1.00
H245   H     0.72810   0.69570   0.75890   0.01267  Uiso   1.00
H246   H     0.29300   0.75550   0.58860   0.01267  Uiso   1.00
H247   H     0.29740   0.74880   0.65730   0.01267  Uiso   1.00
H248   H     0.32370   0.01810   0.42420   0.01267  Uiso   1.00
H249   H     0.41570   0.16600   0.39040   0.01267  Uiso   1.00
H250   H     0.67070   0.73640   0.65390   0.01267  Uiso   1.00
H251   H     0.55720   0.74270   0.65650   0.01267  Uiso   1.00
H252   H     0.55910   0.87370   0.59590   0.01267  Uiso   1.00
H253   H     0.67390   0.86660   0.59490   0.01267  Uiso   1.00
H254   H     0.46060   0.75470   0.59320   0.01267  Uiso   1.00
H255   H     0.51940   0.88370   0.66670   0.01267  Uiso   1.00
H256   H     0.34610   0.94450   0.69860   0.01267  Uiso   1.00
H257   H     0.28960   0.89100   0.66490   0.01267  Uiso   1.00
H258   H     0.30670   0.89760   0.58690   0.01267  Uiso   1.00
H259   H     0.25490   0.96790   0.55780   0.01267  Uiso   1.00
H260   H     0.07890   0.91810   0.59050   0.01267  Uiso   1.00
H261   H     0.12880   0.75790   0.65370   0.01267  Uiso   1.00
H262   H     0.92280   0.81460   0.66560   0.01267  Uiso   1.00
H263   H     0.03490   0.83070   0.66560   0.01267  Uiso   1.00
H264   H     0.03170   0.81490   0.58490   0.01267  Uiso   1.00
H265   H     0.91950   0.79740   0.58710   0.01267  Uiso   1.00
H266   H     0.61890   0.84060   0.46330   0.01267  Uiso   1.00
H267   H     0.56030   0.88440   0.42870   0.01267  Uiso   1.00
H268   H     0.55400   0.05110   0.46890   0.01267  Uiso   1.00
H269   H     0.61520   0.00440   0.50170   0.01267  Uiso   1.00
H270   H     0.63560   0.01220   0.40820   0.01267  Uiso   1.00
H271   H     0.60850   0.09270   0.33370   0.01267  Uiso   1.00
H272   H     0.49570   0.08840   0.33890   0.01267  Uiso   1.00
H273   H     0.42350   0.99160   0.44220   0.01267  Uiso   1.00
H274   H     0.38900   0.95470   0.35490   0.01267  Uiso   1.00
H275   H     0.34940   0.88640   0.32140   0.01267  Uiso   1.00
H276   H     0.27550   0.04640   0.28220   0.01267  Uiso   1.00
H277   H     0.32180   0.22340   0.33860   0.01267  Uiso   1.00
H278   H     0.18840   0.11390   0.29640   0.01267  Uiso   1.00
H279   H     0.33570   0.24590   0.28930   0.01267  Uiso   1.00
H280   H     0.27190   0.30430   0.25890   0.01267  Uiso   1.00
C241   C     0.76410   0.64780   0.60838   0.01267  Uiso   1.00
C242   C     0.76750   0.57990   0.60674   0.01267  Uiso   1.00
C243   C     0.80700   0.54500   0.62446   0.01267  Uiso   1.00
C244   C     0.84440   0.58100   0.64219   0.01267  Uiso   1.00
C245   C     0.83970   0.65000   0.64281   0.01267  Uiso   1.00
C246   C     0.81070   0.47250   0.62341   0.01267  Uiso   1.00
C247   C     0.77870   0.43740   0.64341   0.01267  Uiso   1.00
C248   C     0.78080   0.36740   0.64439   0.01267  Uiso   1.00
C249   C     0.81650   0.33260   0.62519   0.01267  Uiso   1.00
C250   C     0.85150   0.36900   0.60442   0.01267  Uiso   1.00
C251   C     0.84920   0.43780   0.60391   0.01267  Uiso   1.00
C252   C     0.88480   0.47270   0.58376   0.01267  Uiso   1.00
C253   C     0.92010   0.43890   0.56540   0.01267  Uiso   1.00
C254   C     0.92130   0.36920   0.56510   0.01267  Uiso   1.00
C255   C     0.88870   0.33640   0.58469   0.01267  Uiso   1.00
C256   C     0.81890   0.25960   0.62566   0.01267  Uiso   1.00
C257   C     0.86140   0.22610   0.64411   0.01267  Uiso   1.00
C258   C     0.90080   0.26000   0.66250   0.01267  Uiso   1.00
C259   C     0.94330   0.23010   0.67951   0.01267  Uiso   1.00
C260   C     0.95020   0.16130   0.67795   0.01267  Uiso   1.00
C261   C     0.91260   0.12530   0.66034   0.01267  Uiso   1.00
C262   C     0.86630   0.15560   0.64355   0.01267  Uiso   1.00
C263   C     0.82510   0.12050   0.62516   0.01267  Uiso   1.00
C264   C     0.78550   0.15320   0.60807   0.01267  Uiso   1.00
C265   C     0.78350   0.22370   0.60717   0.01267  Uiso   1.00
C266   C     0.81340   0.94550   0.60117   0.01267  Uiso   1.00
C267   C     0.82290   0.01270   0.60097   0.01267  Uiso   1.00
C268   C     0.82100   0.04740   0.62444   0.01267  Uiso   1.00
C269   C     0.81340   0.01050   0.64805   0.01267  Uiso   1.00
C270   C     0.80370   0.94340   0.64664   0.01267  Uiso   1.00
C271   C     0.88580   0.60690   0.78573   0.01267  Uiso   1.00
C272   C     0.91130   0.57080   0.80624   0.01267  Uiso   1.00
C273   C     0.97450   0.54960   0.80555   0.01267  Uiso   1.00
C274   C     0.00670   0.56770   0.78330   0.01267  Uiso   1.00
C275   C     0.97890   0.60450   0.76370   0.01267  Uiso   1.00
C276   C     0.00380   0.50760   0.82712   0.01267  Uiso   1.00
C277   C     0.02740   0.53670   0.85146   0.01267  Uiso   1.00
C278   C     0.02690   0.60690   0.85570   0.01267  Uiso   1.00
C279   C     0.04770   0.63170   0.87960   0.01267  Uiso   1.00
C280   C     0.07470   0.58990   0.90040   0.01267  Uiso   1.00
C281   C     0.07390   0.52360   0.89691   0.01267  Uiso   1.00
C282   C     0.05180   0.49540   0.87247   0.01267  Uiso   1.00
C283   C     0.05480   0.42610   0.86845   0.01267  Uiso   1.00
C284   C     0.03320   0.40010   0.84446   0.01267  Uiso   1.00
C285   C     0.00710   0.44250   0.82408   0.01267  Uiso   1.00
C286   C     0.08340   0.38310   0.88995   0.01267  Uiso   1.00
C287   C     0.04330   0.35610   0.91031   0.01267  Uiso   1.00
C288   C     0.97350   0.36570   0.90981   0.01267  Uiso   1.00
C289   C     0.93270   0.34270   0.92958   0.01267  Uiso   1.00
C290   C     0.96150   0.30820   0.95170   0.01267  Uiso   1.00
C291   C     0.02830   0.29800   0.95273   0.01267  Uiso   1.00
C292   C     0.07000   0.31950   0.93246   0.01267  Uiso   1.00
C293   C     0.14050   0.30770   0.93171   0.01267  Uiso   1.00
C294   C     0.17760   0.33130   0.91158   0.01267  Uiso   1.00
C295   C     0.14980   0.37050   0.89030   0.01267  Uiso   1.00
C296   C     0.19080   0.16880   0.97899   0.01267  Uiso   1.00
C297   C     0.15340   0.20620   0.96083   0.01267  Uiso   1.00
C298   C     0.17300   0.26810   0.95333   0.01267  Uiso   1.00
C299   C     0.23080   0.29270   0.96512   0.01267  Uiso   1.00
C300   C     0.26560   0.25430   0.98315   0.01267  Uiso   1.00
C301   C     0.23590   0.35220   0.10838   0.01267  Uiso   1.00
C302   C     0.23250   0.42010   0.10674   0.01267  Uiso   1.00
C303   C     0.19300   0.45500   0.12446   0.01267  Uiso   1.00
C304   C     0.15560   0.41900   0.14219   0.01267  Uiso   1.00
C305   C     0.16030   0.35000   0.14281   0.01267  Uiso   1.00
C306   C     0.18930   0.52750   0.12341   0.01267  Uiso   1.00
C307   C     0.22130   0.56260   0.14341   0.01267  Uiso   1.00
C308   C     0.21920   0.63260   0.14439   0.01267  Uiso   1.00
C309   C     0.18350   0.66740   0.12519   0.01267  Uiso   1.00
C310   C     0.14850   0.63100   0.10442   0.01267  Uiso   1.00
C311   C     0.15080   0.56220   0.10391   0.01267  Uiso   1.00
C312   C     0.11520   0.52730   0.08376   0.01267  Uiso   1.00
C313   C     0.07990   0.56110   0.06540   0.01267  Uiso   1.00
C314   C     0.07870   0.63080   0.06510   0.01267  Uiso   1.00
C315   C     0.11130   0.66360   0.08469   0.01267  Uiso   1.00
C316   C     0.18110   0.74040   0.12566   0.01267  Uiso   1.00
C317   C     0.13860   0.77390   0.14411   0.01267  Uiso   1.00
C318   C     0.09920   0.74000   0.16250   0.01267  Uiso   1.00
C319   C     0.05670   0.76990   0.17951   0.01267  Uiso   1.00
C320   C     0.04980   0.83870   0.17795   0.01267  Uiso   1.00
C321   C     0.08740   0.87470   0.16034   0.01267  Uiso   1.00
C322   C     0.13370   0.84440   0.14355   0.01267  Uiso   1.00
C323   C     0.17490   0.87950   0.12516   0.01267  Uiso   1.00
C324   C     0.21450   0.84680   0.10807   0.01267  Uiso   1.00
C325   C     0.21650   0.77630   0.10717   0.01267  Uiso   1.00
C326   C     0.18660   0.05450   0.10117   0.01267  Uiso   1.00
C327   C     0.17710   0.98730   0.10097   0.01267  Uiso   1.00
C328   C     0.17900   0.95260   0.12444   0.01267  Uiso   1.00
C329   C     0.18660   0.98950   0.14805   0.01267  Uiso   1.00
C330   C     0.19630   0.05660   0.14664   0.01267  Uiso   1.00
C331   C     0.11420   0.39310   0.28573   0.01267  Uiso   1.00
C332   C     0.08870   0.42920   0.30624   0.01267  Uiso   1.00
C333   C     0.02550   0.45040   0.30555   0.01267  Uiso   1.00
C334   C     0.99330   0.43230   0.28330   0.01267  Uiso   1.00
C335   C     0.02110   0.39550   0.26370   0.01267  Uiso   1.00
C336   C     0.99620   0.49240   0.32712   0.01267  Uiso   1.00
C337   C     0.97260   0.46330   0.35146   0.01267  Uiso   1.00
C338   C     0.97310   0.39310   0.35570   0.01267  Uiso   1.00
C339   C     0.95230   0.36830   0.37960   0.01267  Uiso   1.00
C340   C     0.92530   0.41010   0.40040   0.01267  Uiso   1.00
C341   C     0.92610   0.47640   0.39691   0.01267  Uiso   1.00
C342   C     0.94820   0.50460   0.37247   0.01267  Uiso   1.00
C343   C     0.94520   0.57390   0.36845   0.01267  Uiso   1.00
C344   C     0.96680   0.59990   0.34446   0.01267  Uiso   1.00
C345   C     0.99290   0.55750   0.32408   0.01267  Uiso   1.00
C346   C     0.91660   0.61690   0.38995   0.01267  Uiso   1.00
C347   C     0.95670   0.64390   0.41031   0.01267  Uiso   1.00
C348   C     0.02650   0.63430   0.40981   0.01267  Uiso   1.00
C349   C     0.06730   0.65730   0.42958   0.01267  Uiso   1.00
C350   C     0.03850   0.69180   0.45170   0.01267  Uiso   1.00
C351   C     0.97170   0.70200   0.45273   0.01267  Uiso   1.00
C352   C     0.93000   0.68050   0.43246   0.01267  Uiso   1.00
C353   C     0.85950   0.69230   0.43171   0.01267  Uiso   1.00
C354   C     0.82240   0.66870   0.41158   0.01267  Uiso   1.00
C355   C     0.85020   0.62950   0.39030   0.01267  Uiso   1.00
C356   C     0.80920   0.83120   0.47899   0.01267  Uiso   1.00
C357   C     0.84660   0.79380   0.46083   0.01267  Uiso   1.00
C358   C     0.82700   0.73190   0.45333   0.01267  Uiso   1.00
C359   C     0.76920   0.70730   0.46512   0.01267  Uiso   1.00
C360   C     0.73440   0.74570   0.48315   0.01267  Uiso   1.00
C361   C     0.35220   0.23590   0.14162   0.01267  Uiso   1.00
C362   C     0.42010   0.23250   0.14326   0.01267  Uiso   1.00
C363   C     0.45500   0.19300   0.12554   0.01267  Uiso   1.00
C364   C     0.41900   0.15560   0.10781   0.01267  Uiso   1.00
C365   C     0.35000   0.16030   0.10719   0.01267  Uiso   1.00
C366   C     0.52750   0.18930   0.12659   0.01267  Uiso   1.00
C367   C     0.56260   0.22130   0.10659   0.01267  Uiso   1.00
C368   C     0.63260   0.21920   0.10561   0.01267  Uiso   1.00
C369   C     0.66740   0.18350   0.12481   0.01267  Uiso   1.00
C370   C     0.63100   0.14850   0.14558   0.01267  Uiso   1.00
C371   C     0.56220   0.15080   0.14609   0.01267  Uiso   1.00
C372   C     0.52730   0.11520   0.16624   0.01267  Uiso   1.00
C373   C     0.56110   0.07990   0.18460   0.01267  Uiso   1.00
C374   C     0.63080   0.07870   0.18490   0.01267  Uiso   1.00
C375   C     0.66360   0.11130   0.16531   0.01267  Uiso   1.00
C376   C     0.74040   0.18110   0.12434   0.01267  Uiso   1.00
C377   C     0.77390   0.13860   0.10589   0.01267  Uiso   1.00
C378   C     0.74000   0.09920   0.08750   0.01267  Uiso   1.00
C379   C     0.76990   0.05670   0.07049   0.01267  Uiso   1.00
C380   C     0.83870   0.04980   0.07205   0.01267  Uiso   1.00
C381   C     0.87470   0.08740   0.08966   0.01267  Uiso   1.00
C382   C     0.84440   0.13370   0.10645   0.01267  Uiso   1.00
C383   C     0.87950   0.17490   0.12484   0.01267  Uiso   1.00
C384   C     0.84680   0.21450   0.14193   0.01267  Uiso   1.00
C385   C     0.77630   0.21650   0.14283   0.01267  Uiso   1.00
C386   C     0.05450   0.18660   0.14883   0.01267  Uiso   1.00
C387   C     0.98730   0.17710   0.14903   0.01267  Uiso   1.00
C388   C     0.95260   0.17900   0.12556   0.01267  Uiso   1.00
C389   C     0.98950   0.18660   0.10195   0.01267  Uiso   1.00
C390   C     0.05660   0.19630   0.10336   0.01267  Uiso   1.00
C391   C     0.39310   0.11420   0.96427   0.01267  Uiso   1.00
C392   C     0.42920   0.08870   0.94376   0.01267  Uiso   1.00
C393   C     0.45040   0.02550   0.94445   0.01267  Uiso   1.00
C394   C     0.43230   0.99330   0.96670   0.01267  Uiso   1.00
C395   C     0.39550   0.02110   0.98630   0.01267  Uiso   1.00
C396   C     0.49240   0.99620   0.92288   0.01267  Uiso   1.00
C397   C     0.46330   0.97260   0.89854   0.01267  Uiso   1.00
C398   C     0.39310   0.97310   0.89430   0.01267  Uiso   1.00
C399   C     0.36830   0.95230   0.87040   0.01267  Uiso   1.00
C400   C     0.41010   0.92530   0.84960   0.01267  Uiso   1.00
C401   C     0.47640   0.92610   0.85309   0.01267  Uiso   1.00
C402   C     0.50460   0.94820   0.87753   0.01267  Uiso   1.00
C403   C     0.57390   0.94520   0.88155   0.01267  Uiso   1.00
C404   C     0.59990   0.96680   0.90554   0.01267  Uiso   1.00
C405   C     0.55750   0.99290   0.92592   0.01267  Uiso   1.00
C406   C     0.61690   0.91660   0.86005   0.01267  Uiso   1.00
C407   C     0.64390   0.95670   0.83969   0.01267  Uiso   1.00
C408   C     0.63430   0.02650   0.84019   0.01267  Uiso   1.00
C409   C     0.65730   0.06730   0.82042   0.01267  Uiso   1.00
C410   C     0.69180   0.03850   0.79830   0.01267  Uiso   1.00
C411   C     0.70200   0.97170   0.79727   0.01267  Uiso   1.00
C412   C     0.68050   0.93000   0.81754   0.01267  Uiso   1.00
C413   C     0.69230   0.85950   0.81829   0.01267  Uiso   1.00
C414   C     0.66870   0.82240   0.83842   0.01267  Uiso   1.00
C415   C     0.62950   0.85020   0.85970   0.01267  Uiso   1.00
C416   C     0.83120   0.80920   0.77101   0.01267  Uiso   1.00
C417   C     0.79380   0.84660   0.78917   0.01267  Uiso   1.00
C418   C     0.73190   0.82700   0.79667   0.01267  Uiso   1.00
C419   C     0.70730   0.76920   0.78488   0.01267  Uiso   1.00
C420   C     0.74570   0.73440   0.76685   0.01267  Uiso   1.00
C421   C     0.64780   0.76410   0.64162   0.01267  Uiso   1.00
C422   C     0.57990   0.76750   0.64326   0.01267  Uiso   1.00
C423   C     0.54500   0.80700   0.62554   0.01267  Uiso   1.00
C424   C     0.58100   0.84440   0.60781   0.01267  Uiso   1.00
C425   C     0.65000   0.83970   0.60719   0.01267  Uiso   1.00
C426   C     0.47250   0.81070   0.62659   0.01267  Uiso   1.00
C427   C     0.43740   0.77870   0.60659   0.01267  Uiso   1.00
C428   C     0.36740   0.78080   0.60561   0.01267  Uiso   1.00
C429   C     0.33260   0.81650   0.62481   0.01267  Uiso   1.00
C430   C     0.36900   0.85150   0.64558   0.01267  Uiso   1.00
C431   C     0.43780   0.84920   0.64609   0.01267  Uiso   1.00
C432   C     0.47270   0.88480   0.66624   0.01267  Uiso   1.00
C433   C     0.43890   0.92010   0.68460   0.01267  Uiso   1.00
C434   C     0.36920   0.92130   0.68490   0.01267  Uiso   1.00
C435   C     0.33640   0.88870   0.66531   0.01267  Uiso   1.00
C436   C     0.25960   0.81890   0.62434   0.01267  Uiso   1.00
C437   C     0.22610   0.86140   0.60589   0.01267  Uiso   1.00
C438   C     0.26000   0.90080   0.58750   0.01267  Uiso   1.00
C439   C     0.23010   0.94330   0.57049   0.01267  Uiso   1.00
C440   C     0.16130   0.95020   0.57205   0.01267  Uiso   1.00
C441   C     0.12530   0.91260   0.58966   0.01267  Uiso   1.00
C442   C     0.15560   0.86630   0.60645   0.01267  Uiso   1.00
C443   C     0.12050   0.82510   0.62484   0.01267  Uiso   1.00
C444   C     0.15320   0.78550   0.64193   0.01267  Uiso   1.00
C445   C     0.22370   0.78350   0.64283   0.01267  Uiso   1.00
C446   C     0.94550   0.81340   0.64883   0.01267  Uiso   1.00
C447   C     0.01270   0.82290   0.64903   0.01267  Uiso   1.00
C448   C     0.04740   0.82100   0.62556   0.01267  Uiso   1.00
C449   C     0.01050   0.81340   0.60195   0.01267  Uiso   1.00
C450   C     0.94340   0.80370   0.60336   0.01267  Uiso   1.00
C451   C     0.60690   0.88580   0.46427   0.01267  Uiso   1.00
C452   C     0.57080   0.91130   0.44376   0.01267  Uiso   1.00
C453   C     0.54960   0.97450   0.44445   0.01267  Uiso   1.00
C454   C     0.56770   0.00670   0.46670   0.01267  Uiso   1.00
C455   C     0.60450   0.97890   0.48630   0.01267  Uiso   1.00
C456   C     0.50760   0.00380   0.42288   0.01267  Uiso   1.00
C457   C     0.53670   0.02740   0.39854   0.01267  Uiso   1.00
C458   C     0.60690   0.02690   0.39430   0.01267  Uiso   1.00
C459   C     0.63170   0.04770   0.37040   0.01267  Uiso   1.00
C460   C     0.58990   0.07470   0.34960   0.01267  Uiso   1.00
C461   C     0.52360   0.07390   0.35309   0.01267  Uiso   1.00
C462   C     0.49540   0.05180   0.37753   0.01267  Uiso   1.00
C463   C     0.42610   0.05480   0.38155   0.01267  Uiso   1.00
C464   C     0.40010   0.03320   0.40554   0.01267  Uiso   1.00
C465   C     0.44250   0.00710   0.42592   0.01267  Uiso   1.00
C466   C     0.38310   0.08340   0.36005   0.01267  Uiso   1.00
C467   C     0.35610   0.04330   0.33969   0.01267  Uiso   1.00
C468   C     0.36570   0.97350   0.34019   0.01267  Uiso   1.00
C469   C     0.34270   0.93270   0.32042   0.01267  Uiso   1.00
C470   C     0.30820   0.96150   0.29830   0.01267  Uiso   1.00
C471   C     0.29800   0.02830   0.29727   0.01267  Uiso   1.00
C472   C     0.31950   0.07000   0.31754   0.01267  Uiso   1.00
C473   C     0.30770   0.14050   0.31829   0.01267  Uiso   1.00
C474   C     0.33130   0.17760   0.33842   0.01267  Uiso   1.00
C475   C     0.37050   0.14980   0.35970   0.01267  Uiso   1.00
C476   C     0.16880   0.19080   0.27101   0.01267  Uiso   1.00
C477   C     0.20620   0.15340   0.28917   0.01267  Uiso   1.00
C478   C     0.26810   0.17300   0.29667   0.01267  Uiso   1.00
C479   C     0.29270   0.23080   0.28488   0.01267  Uiso   1.00
C480   C     0.25430   0.26560   0.26685   0.01267  Uiso   1.00
N21    N     0.79890   0.68317   0.62681   0.01267  Uiso   1.00
N22    N     0.80290   0.91070   0.62336   0.01267  Uiso   1.00
N23    N     0.91900   0.62580   0.76503   0.01267  Uiso   1.00
N24    N     0.24650   0.19270   0.98980   0.01267  Uiso   1.00
N25    N     0.79470   0.76780   0.69015   0.01267  Uiso   1.00
N26    N     0.20110   0.31683   0.12681   0.01267  Uiso   1.00
N27    N     0.19710   0.08930   0.12336   0.01267  Uiso   1.00
N28    N     0.08100   0.37420   0.26503   0.01267  Uiso   1.00
N29    N     0.75350   0.80730   0.48980   0.01267  Uiso   1.00
N30    N     0.20530   0.23220   0.19015   0.01267  Uiso   1.00
N31    N     0.31683   0.20110   0.12319   0.01267  Uiso   1.00
N32    N     0.08930   0.19710   0.12664   0.01267  Uiso   1.00
N33    N     0.37420   0.08100   0.98497   0.01267  Uiso   1.00
N34    N     0.80730   0.75350   0.76020   0.01267  Uiso   1.00
N35    N     0.23220   0.20530   0.05985   0.01267  Uiso   1.00
N36    N     0.68317   0.79890   0.62319   0.01267  Uiso   1.00
N37    N     0.91070   0.80290   0.62664   0.01267  Uiso   1.00
N38    N     0.62580   0.91900   0.48497   0.01267  Uiso   1.00
N39    N     0.19270   0.24650   0.26020   0.01267  Uiso   1.00
N40    N     0.76780   0.79470   0.55985   0.01267  Uiso   1.00
Cl17   Cl    0.96420   0.48055   0.54037   0.01267  Uiso   1.00
Cl18   Cl    0.00488   0.12222   0.69962   0.01267  Uiso   1.00
Cl19   Cl    0.04580   0.71620   0.88516   0.01267  Uiso   1.00
Cl20   Cl    0.90919   0.27904   0.97659   0.01267  Uiso   1.00
Cl21   Cl    0.03580   0.51945   0.04037   0.01267  Uiso   1.00
Cl22   Cl    0.99512   0.87778   0.19962   0.01267  Uiso   1.00
Cl23   Cl    0.95420   0.28380   0.38516   0.01267  Uiso   1.00
Cl24   Cl    0.09081   0.72096   0.47659   0.01267  Uiso   1.00
Cl25   Cl    0.51945   0.03580   0.20963   0.01267  Uiso   1.00
Cl26   Cl    0.87778   0.99512   0.05038   0.01267  Uiso   1.00
Cl27   Cl    0.28380   0.95420   0.86484   0.01267  Uiso   1.00
Cl28   Cl    0.72096   0.09081   0.77341   0.01267  Uiso   1.00
Cl29   Cl    0.48055   0.96420   0.70963   0.01267  Uiso   1.00
Cl30   Cl    0.12222   0.00488   0.55038   0.01267  Uiso   1.00
Cl31   Cl    0.71620   0.04580   0.36484   0.01267  Uiso   1.00
Cl32   Cl    0.27904   0.90919   0.27341   0.01267  Uiso   1.00
O29    O     0.74960   0.33350   0.66377   0.01267  Uiso   1.00
O30    O     0.74330   0.25670   0.59060   0.01267  Uiso   1.00
O31    O     0.03620   0.33330   0.84053   0.01267  Uiso   1.00
O32    O     0.18900   0.39560   0.87103   0.01267  Uiso   1.00
O33    O     0.75430   0.72740   0.69939   0.01267  Uiso   1.00
O34    O     0.85020   0.76410   0.69750   0.01267  Uiso   1.00
O35    O     0.77530   0.80470   0.67153   0.01267  Uiso   1.00
O36    O     0.25040   0.66650   0.16377   0.01267  Uiso   1.00
O37    O     0.25670   0.74330   0.09060   0.01267  Uiso   1.00
O38    O     0.96380   0.66670   0.34053   0.01267  Uiso   1.00
O39    O     0.81100   0.60440   0.37103   0.01267  Uiso   1.00
O40    O     0.24570   0.27260   0.19939   0.01267  Uiso   1.00
O41    O     0.14980   0.23590   0.19750   0.01267  Uiso   1.00
O42    O     0.22470   0.19530   0.17153   0.01267  Uiso   1.00
O43    O     0.66650   0.25040   0.08623   0.01267  Uiso   1.00
O44    O     0.74330   0.25670   0.15940   0.01267  Uiso   1.00
O45    O     0.66670   0.96380   0.90947   0.01267  Uiso   1.00
O46    O     0.60440   0.81100   0.87897   0.01267  Uiso   1.00
O47    O     0.27260   0.24570   0.05061   0.01267  Uiso   1.00
O48    O     0.23590   0.14980   0.05250   0.01267  Uiso   1.00
O49    O     0.19530   0.22470   0.07847   0.01267  Uiso   1.00
O50    O     0.33350   0.74960   0.58623   0.01267  Uiso   1.00
O51    O     0.25670   0.74330   0.65940   0.01267  Uiso   1.00
O52    O     0.33330   0.03620   0.40947   0.01267  Uiso   1.00
O53    O     0.39560   0.18900   0.37897   0.01267  Uiso   1.00
O54    O     0.72740   0.75430   0.55061   0.01267  Uiso   1.00
O55    O     0.76410   0.85020   0.55250   0.01267  Uiso   1.00
O56    O     0.80470   0.77530   0.57847   0.01267  Uiso   1.00
