data_image0
_cell_length_a       27.749
_cell_length_b       13.817
_cell_length_c       44.362
_cell_angle_alpha    90
_cell_angle_beta     90
_cell_angle_gamma    90

_symmetry_space_group_name_H-M    "P 1"
_symmetry_int_tables_number       1

loop_
  _symmetry_equiv_pos_as_xyz
  'x, y, z'

loop_
  _atom_site_label
  _atom_site_occupancy
  _atom_site_fract_x
  _atom_site_fract_y
  _atom_site_fract_z
  _atom_site_thermal_displace_type
  _atom_site_B_iso_or_equiv
  _atom_site_type_symbol
  Zn1      1.0000 0.97543  0.62223  0.41516  Biso   1.000  Zn
  Zn2      1.0000 0.95265  0.85641  0.58614  Biso   1.000  Zn
  Zn3      1.0000 0.76049  0.81829  0.31894  Biso   1.000  Zn
  I1       1.0000 0.99435  0.69537  0.46677  Biso   1.000  I
  I2       1.0000 0.92598  0.71061  0.37609  Biso   1.000  I
  I3       1.0000 0.94594  0.67307  0.58013  Biso   1.000  I
  I4       1.0000 0.01748  0.94041  0.61645  Biso   1.000  I
  I5       1.0000 0.67129  0.81722  0.33253  Biso   1.000  I
  I6       1.0000 0.80415  0.65752  0.31273  Biso   1.000  I
  C1       1.0000 0.80210  0.99530  0.34778  Biso   1.000  C
  H1       1.0000 0.78990  0.02720  0.33040  Biso   1.000  H
  C2       1.0000 0.82510  0.05000  0.36973  Biso   1.000  C
  H2       1.0000 0.82890  0.11780  0.36720  Biso   1.000  H
  C3       1.0000 0.81440  0.85660  0.37445  Biso   1.000  C
  H3       1.0000 0.81120  0.78840  0.37620  Biso   1.000  H
  C4       1.0000 0.83730  0.90580  0.39730  Biso   1.000  C
  H4       1.0000 0.84940  0.87210  0.41430  Biso   1.000  H
  C5       1.0000 0.84230  0.00470  0.39508  Biso   1.000  C
  C6       1.0000 0.86720  0.05990  0.41899  Biso   1.000  C
  C7       1.0000 0.92790  0.86750  0.52095  Biso   1.000  C
  H5       1.0000 0.92300  0.79970  0.52300  Biso   1.000  H
  C8       1.0000 0.91500  0.91140  0.49411  Biso   1.000  C
  H6       1.0000 0.90170  0.87470  0.47800  Biso   1.000  H
  C9       1.0000 0.95590  0.01200  0.54031  Biso   1.000  C
  H7       1.0000 0.97150  0.04660  0.55600  Biso   1.000  H
  C10      1.0000 0.94330  0.06050  0.51432  Biso   1.000  C
  H8       1.0000 0.94930  0.12800  0.51240  Biso   1.000  H
  C11      1.0000 0.92200  0.01010  0.49123  Biso   1.000  C
  C12      1.0000 0.90610  0.06130  0.46373  Biso   1.000  C
  C13      1.0000 0.94540  0.44820  0.45058  Biso   1.000  C
  H9       1.0000 0.95650  0.48550  0.46720  Biso   1.000  H
  C14      1.0000 0.93040  0.35500  0.45547  Biso   1.000  C
  H10      1.0000 0.93160  0.32820  0.47520  Biso   1.000  H
  C15      1.0000 0.92770  0.43520  0.40016  Biso   1.000  C
  H11      1.0000 0.92640  0.46360  0.38070  Biso   1.000  H
  C16      1.0000 0.91210  0.34240  0.40340  Biso   1.000  C
  H12      1.0000 0.90050  0.30720  0.38650  Biso   1.000  H
  C17      1.0000 0.91340  0.30010  0.43168  Biso   1.000  C
  C18      1.0000 0.90020  0.19750  0.43631  Biso   1.000  C
  C19      1.0000 0.04150  0.57070  0.36491  Biso   1.000  C
  H13      1.0000 0.01200  0.56660  0.35410  Biso   1.000  H
  C20      1.0000 0.08370  0.55610  0.34939  Biso   1.000  C
  H14      1.0000 0.08330  0.54190  0.32840  Biso   1.000  H
  C21      1.0000 0.08190  0.59440  0.40941  Biso   1.000  C
  H15      1.0000 0.08130  0.60680  0.43050  Biso   1.000  H
  C22      1.0000 0.12580  0.58120  0.39536  Biso   1.000  C
  H16      1.0000 0.15490  0.58500  0.40660  Biso   1.000  H
  C23      1.0000 0.12690  0.56240  0.36487  Biso   1.000  C
  C24      1.0000 0.17380  0.55000  0.34938  Biso   1.000  C
  C25      1.0000 0.34620  0.61390  0.40978  Biso   1.000  C
  H17      1.0000 0.34700  0.63460  0.43020  Biso   1.000  H
  C26      1.0000 0.30180  0.59760  0.39657  Biso   1.000  C
  H18      1.0000 0.27280  0.60620  0.40770  Biso   1.000  H
  C27      1.0000 0.38640  0.57080  0.36666  Biso   1.000  C
  H19      1.0000 0.41600  0.55950  0.35640  Biso   1.000  H
  C28      1.0000 0.34420  0.55470  0.35170  Biso   1.000  C
  H20      1.0000 0.34450  0.53440  0.33130  Biso   1.000  H
  C29      1.0000 0.30060  0.56850  0.36668  Biso   1.000  C
  C30      1.0000 0.25440  0.55370  0.35055  Biso   1.000  C
  C31      1.0000 0.26680  0.43770  0.23343  Biso   1.000  C
  H21      1.0000 0.29690  0.44090  0.22320  Biso   1.000  H
  C32      1.0000 0.26360  0.47700  0.26197  Biso   1.000  C
  H22      1.0000 0.29120  0.50470  0.27130  Biso   1.000  H
  C33      1.0000 0.18720  0.39600  0.23381  Biso   1.000  C
  H23      1.0000 0.16040  0.36770  0.22390  Biso   1.000  H
  C34      1.0000 0.18070  0.43510  0.26192  Biso   1.000  C
  H24      1.0000 0.14980  0.43450  0.27110  Biso   1.000  H
  C35      1.0000 0.22020  0.47570  0.27676  Biso   1.000  C
  C36      1.0000 0.21640  0.51140  0.30782  Biso   1.000  C
  N1       1.0000 0.79659  0.89930  0.35011  Biso   1.000  N
  N2       1.0000 0.94679  0.91660  0.54405  Biso   1.000  N
  N3       1.0000 0.94481  0.48860  0.42286  Biso   1.000  N
  N4       1.0000 0.88192  0.00970  0.44289  Biso   1.000  N
  N5       1.0000 0.91670  0.15450  0.46118  Biso   1.000  N
  N6       1.0000 0.87453  0.15450  0.41471  Biso   1.000  N
  N7       1.0000 0.03970  0.59030  0.39420  Biso   1.000  N
  N8       1.0000 0.38761  0.60200  0.39545  Biso   1.000  N
  N9       1.0000 0.23010  0.39600  0.21977  Biso   1.000  N
  N10      1.0000 0.21357  0.56650  0.36545  Biso   1.000  N
  N11      1.0000 0.25783  0.52640  0.32164  Biso   1.000  N
  N12      1.0000 0.17267  0.52200  0.32039  Biso   1.000  N
  Zn4      1.0000 0.52457  0.37777  0.91516  Biso   1.000  Zn
  Zn5      1.0000 0.54735  0.14359  0.08614  Biso   1.000  Zn
  Zn6      1.0000 0.73951  0.18171  0.81894  Biso   1.000  Zn
  I7       1.0000 0.50565  0.30463  0.96677  Biso   1.000  I
  I8       1.0000 0.57402  0.28939  0.87609  Biso   1.000  I
  I9       1.0000 0.55406  0.32693  0.08013  Biso   1.000  I
  I10      1.0000 0.48252  0.05959  0.11645  Biso   1.000  I
  I11      1.0000 0.82871  0.18278  0.83253  Biso   1.000  I
  I12      1.0000 0.69585  0.34248  0.81273  Biso   1.000  I
  C37      1.0000 0.69790  0.00470  0.84778  Biso   1.000  C
  H25      1.0000 0.71010  0.97280  0.83040  Biso   1.000  H
  C38      1.0000 0.67490  0.95000  0.86973  Biso   1.000  C
  H26      1.0000 0.67110  0.88220  0.86720  Biso   1.000  H
  C39      1.0000 0.68560  0.14340  0.87445  Biso   1.000  C
  H27      1.0000 0.68880  0.21160  0.87620  Biso   1.000  H
  C40      1.0000 0.66270  0.09420  0.89730  Biso   1.000  C
  H28      1.0000 0.65060  0.12790  0.91430  Biso   1.000  H
  C41      1.0000 0.65770  0.99530  0.89508  Biso   1.000  C
  C42      1.0000 0.63280  0.94010  0.91899  Biso   1.000  C
  C43      1.0000 0.57210  0.13250  0.02095  Biso   1.000  C
  H29      1.0000 0.57700  0.20030  0.02300  Biso   1.000  H
  C44      1.0000 0.58500  0.08860  0.99411  Biso   1.000  C
  H30      1.0000 0.59830  0.12530  0.97800  Biso   1.000  H
  C45      1.0000 0.54410  0.98800  0.04031  Biso   1.000  C
  H31      1.0000 0.52850  0.95340  0.05600  Biso   1.000  H
  C46      1.0000 0.55670  0.93950  0.01432  Biso   1.000  C
  H32      1.0000 0.55070  0.87200  0.01240  Biso   1.000  H
  C47      1.0000 0.57800  0.98990  0.99123  Biso   1.000  C
  C48      1.0000 0.59390  0.93870  0.96373  Biso   1.000  C
  C49      1.0000 0.55460  0.55180  0.95058  Biso   1.000  C
  H33      1.0000 0.54350  0.51450  0.96720  Biso   1.000  H
  C50      1.0000 0.56960  0.64500  0.95547  Biso   1.000  C
  H34      1.0000 0.56840  0.67180  0.97520  Biso   1.000  H
  C51      1.0000 0.57230  0.56480  0.90016  Biso   1.000  C
  H35      1.0000 0.57360  0.53640  0.88070  Biso   1.000  H
  C52      1.0000 0.58790  0.65760  0.90340  Biso   1.000  C
  H36      1.0000 0.59950  0.69280  0.88650  Biso   1.000  H
  C53      1.0000 0.58660  0.69990  0.93168  Biso   1.000  C
  C54      1.0000 0.59980  0.80250  0.93631  Biso   1.000  C
  C55      1.0000 0.45850  0.42930  0.86491  Biso   1.000  C
  H37      1.0000 0.48800  0.43340  0.85410  Biso   1.000  H
  C56      1.0000 0.41630  0.44390  0.84939  Biso   1.000  C
  H38      1.0000 0.41670  0.45810  0.82840  Biso   1.000  H
  C57      1.0000 0.41810  0.40560  0.90941  Biso   1.000  C
  H39      1.0000 0.41870  0.39320  0.93050  Biso   1.000  H
  C58      1.0000 0.37420  0.41880  0.89536  Biso   1.000  C
  H40      1.0000 0.34510  0.41500  0.90660  Biso   1.000  H
  C59      1.0000 0.37310  0.43760  0.86487  Biso   1.000  C
  C60      1.0000 0.32620  0.45000  0.84938  Biso   1.000  C
  C61      1.0000 0.15380  0.38610  0.90978  Biso   1.000  C
  H41      1.0000 0.15300  0.36540  0.93020  Biso   1.000  H
  C62      1.0000 0.19820  0.40240  0.89657  Biso   1.000  C
  H42      1.0000 0.22720  0.39380  0.90770  Biso   1.000  H
  C63      1.0000 0.11360  0.42920  0.86666  Biso   1.000  C
  H43      1.0000 0.08400  0.44050  0.85640  Biso   1.000  H
  C64      1.0000 0.15580  0.44530  0.85170  Biso   1.000  C
  H44      1.0000 0.15550  0.46560  0.83130  Biso   1.000  H
  C65      1.0000 0.19940  0.43150  0.86668  Biso   1.000  C
  C66      1.0000 0.24560  0.44630  0.85055  Biso   1.000  C
  C67      1.0000 0.23320  0.56230  0.73343  Biso   1.000  C
  H45      1.0000 0.20310  0.55910  0.72320  Biso   1.000  H
  C68      1.0000 0.23640  0.52300  0.76197  Biso   1.000  C
  H46      1.0000 0.20880  0.49530  0.77130  Biso   1.000  H
  C69      1.0000 0.31280  0.60400  0.73381  Biso   1.000  C
  H47      1.0000 0.33960  0.63230  0.72390  Biso   1.000  H
  C70      1.0000 0.31930  0.56490  0.76192  Biso   1.000  C
  H48      1.0000 0.35020  0.56550  0.77110  Biso   1.000  H
  C71      1.0000 0.27980  0.52430  0.77676  Biso   1.000  C
  C72      1.0000 0.28360  0.48860  0.80782  Biso   1.000  C
  N13      1.0000 0.70341  0.10070  0.85011  Biso   1.000  N
  N14      1.0000 0.55321  0.08340  0.04405  Biso   1.000  N
  N15      1.0000 0.55519  0.51140  0.92286  Biso   1.000  N
  N16      1.0000 0.61808  0.99030  0.94289  Biso   1.000  N
  N17      1.0000 0.58330  0.84550  0.96118  Biso   1.000  N
  N18      1.0000 0.62547  0.84550  0.91471  Biso   1.000  N
  N19      1.0000 0.46030  0.40970  0.89420  Biso   1.000  N
  N20      1.0000 0.11239  0.39800  0.89545  Biso   1.000  N
  N21      1.0000 0.26990  0.60400  0.71977  Biso   1.000  N
  N22      1.0000 0.28643  0.43350  0.86545  Biso   1.000  N
  N23      1.0000 0.24217  0.47360  0.82164  Biso   1.000  N
  N24      1.0000 0.32733  0.47800  0.82039  Biso   1.000  N
  Zn7      1.0000 0.02457  0.12223  0.08484  Biso   1.000  Zn
  Zn8      1.0000 0.04735  0.35641  0.91386  Biso   1.000  Zn
  Zn9      1.0000 0.23951  0.31829  0.18106  Biso   1.000  Zn
  I13      1.0000 0.00565  0.19537  0.03323  Biso   1.000  I
  I14      1.0000 0.07402  0.21061  0.12391  Biso   1.000  I
  I15      1.0000 0.05406  0.17307  0.91987  Biso   1.000  I
  I16      1.0000 0.98252  0.44041  0.88355  Biso   1.000  I
  I17      1.0000 0.32871  0.31722  0.16747  Biso   1.000  I
  I18      1.0000 0.19585  0.15752  0.18727  Biso   1.000  I
  C73      1.0000 0.19790  0.49530  0.15222  Biso   1.000  C
  H49      1.0000 0.21010  0.52720  0.16960  Biso   1.000  H
  C74      1.0000 0.17490  0.55000  0.13027  Biso   1.000  C
  H50      1.0000 0.17110  0.61780  0.13280  Biso   1.000  H
  C75      1.0000 0.18560  0.35660  0.12555  Biso   1.000  C
  H51      1.0000 0.18880  0.28840  0.12380  Biso   1.000  H
  C76      1.0000 0.16270  0.40580  0.10270  Biso   1.000  C
  H52      1.0000 0.15060  0.37210  0.08570  Biso   1.000  H
  C77      1.0000 0.15770  0.50470  0.10492  Biso   1.000  C
  C78      1.0000 0.13280  0.55990  0.08101  Biso   1.000  C
  C79      1.0000 0.07210  0.36750  0.97905  Biso   1.000  C
  H53      1.0000 0.07700  0.29970  0.97700  Biso   1.000  H
  C80      1.0000 0.08500  0.41140  0.00589  Biso   1.000  C
  H54      1.0000 0.09830  0.37470  0.02200  Biso   1.000  H
  C81      1.0000 0.04410  0.51200  0.95969  Biso   1.000  C
  H55      1.0000 0.02850  0.54660  0.94400  Biso   1.000  H
  C82      1.0000 0.05670  0.56050  0.98568  Biso   1.000  C
  H56      1.0000 0.05070  0.62800  0.98760  Biso   1.000  H
  C83      1.0000 0.07800  0.51010  0.00877  Biso   1.000  C
  C84      1.0000 0.09390  0.56130  0.03627  Biso   1.000  C
  C85      1.0000 0.05460  0.94820  0.04942  Biso   1.000  C
  H57      1.0000 0.04350  0.98550  0.03280  Biso   1.000  H
  C86      1.0000 0.06960  0.85500  0.04453  Biso   1.000  C
  H58      1.0000 0.06840  0.82820  0.02480  Biso   1.000  H
  C87      1.0000 0.07230  0.93520  0.09984  Biso   1.000  C
  H59      1.0000 0.07360  0.96360  0.11930  Biso   1.000  H
  C88      1.0000 0.08790  0.84240  0.09660  Biso   1.000  C
  H60      1.0000 0.09950  0.80720  0.11350  Biso   1.000  H
  C89      1.0000 0.08660  0.80010  0.06832  Biso   1.000  C
  C90      1.0000 0.09980  0.69750  0.06369  Biso   1.000  C
  C91      1.0000 0.95850  0.07070  0.13509  Biso   1.000  C
  H61      1.0000 0.98800  0.06660  0.14590  Biso   1.000  H
  C92      1.0000 0.91630  0.05610  0.15061  Biso   1.000  C
  H62      1.0000 0.91670  0.04190  0.17160  Biso   1.000  H
  C93      1.0000 0.91810  0.09440  0.09059  Biso   1.000  C
  H63      1.0000 0.91870  0.10680  0.06950  Biso   1.000  H
  C94      1.0000 0.87420  0.08120  0.10464  Biso   1.000  C
  H64      1.0000 0.84510  0.08500  0.09340  Biso   1.000  H
  C95      1.0000 0.87310  0.06240  0.13513  Biso   1.000  C
  C96      1.0000 0.82620  0.05000  0.15062  Biso   1.000  C
  C97      1.0000 0.65380  0.11390  0.09022  Biso   1.000  C
  H65      1.0000 0.65300  0.13460  0.06980  Biso   1.000  H
  C98      1.0000 0.69820  0.09760  0.10343  Biso   1.000  C
  H66      1.0000 0.72720  0.10620  0.09230  Biso   1.000  H
  C99      1.0000 0.61360  0.07080  0.13334  Biso   1.000  C
  H67      1.0000 0.58400  0.05950  0.14360  Biso   1.000  H
  C100     1.0000 0.65580  0.05470  0.14830  Biso   1.000  C
  H68      1.0000 0.65550  0.03440  0.16870  Biso   1.000  H
  C101     1.0000 0.69940  0.06850  0.13332  Biso   1.000  C
  C102     1.0000 0.74560  0.05370  0.14945  Biso   1.000  C
  C103     1.0000 0.73320  0.93770  0.26657  Biso   1.000  C
  H69      1.0000 0.70310  0.94090  0.27680  Biso   1.000  H
  C104     1.0000 0.73640  0.97700  0.23803  Biso   1.000  C
  H70      1.0000 0.70880  0.00470  0.22870  Biso   1.000  H
  C105     1.0000 0.81280  0.89600  0.26619  Biso   1.000  C
  H71      1.0000 0.83960  0.86770  0.27610  Biso   1.000  H
  C106     1.0000 0.81930  0.93510  0.23808  Biso   1.000  C
  H72      1.0000 0.85020  0.93450  0.22890  Biso   1.000  H
  C107     1.0000 0.77980  0.97570  0.22324  Biso   1.000  C
  C108     1.0000 0.78360  0.01140  0.19218  Biso   1.000  C
  N25      1.0000 0.20341  0.39930  0.14989  Biso   1.000  N
  N26      1.0000 0.05321  0.41660  0.95595  Biso   1.000  N
  N27      1.0000 0.05519  0.98860  0.07714  Biso   1.000  N
  N28      1.0000 0.11808  0.50970  0.05711  Biso   1.000  N
  N29      1.0000 0.08330  0.65450  0.03882  Biso   1.000  N
  N30      1.0000 0.12547  0.65450  0.08529  Biso   1.000  N
  N31      1.0000 0.96030  0.09030  0.10580  Biso   1.000  N
  N32      1.0000 0.61239  0.10200  0.10455  Biso   1.000  N
  N33      1.0000 0.76990  0.89600  0.28023  Biso   1.000  N
  N34      1.0000 0.78643  0.06650  0.13455  Biso   1.000  N
  N35      1.0000 0.74217  0.02640  0.17836  Biso   1.000  N
  N36      1.0000 0.82733  0.02200  0.17961  Biso   1.000  N
  Zn10     1.0000 0.47543  0.87777  0.58484  Biso   1.000  Zn
  Zn11     1.0000 0.45265  0.64359  0.41386  Biso   1.000  Zn
  Zn12     1.0000 0.26049  0.68171  0.68106  Biso   1.000  Zn
  I19      1.0000 0.49435  0.80463  0.53323  Biso   1.000  I
  I20      1.0000 0.42598  0.78939  0.62391  Biso   1.000  I
  I21      1.0000 0.44594  0.82693  0.41987  Biso   1.000  I
  I22      1.0000 0.51748  0.55959  0.38355  Biso   1.000  I
  I23      1.0000 0.17129  0.68278  0.66747  Biso   1.000  I
  I24      1.0000 0.30415  0.84248  0.68727  Biso   1.000  I
  C109     1.0000 0.30210  0.50470  0.65222  Biso   1.000  C
  H73      1.0000 0.28990  0.47280  0.66960  Biso   1.000  H
  C110     1.0000 0.32510  0.45000  0.63027  Biso   1.000  C
  H74      1.0000 0.32890  0.38220  0.63280  Biso   1.000  H
  C111     1.0000 0.31440  0.64340  0.62555  Biso   1.000  C
  H75      1.0000 0.31120  0.71160  0.62380  Biso   1.000  H
  C112     1.0000 0.33730  0.59420  0.60270  Biso   1.000  C
  H76      1.0000 0.34940  0.62790  0.58570  Biso   1.000  H
  C113     1.0000 0.34230  0.49530  0.60492  Biso   1.000  C
  C114     1.0000 0.36720  0.44010  0.58101  Biso   1.000  C
  C115     1.0000 0.42790  0.63250  0.47905  Biso   1.000  C
  H77      1.0000 0.42300  0.70030  0.47700  Biso   1.000  H
  C116     1.0000 0.41500  0.58860  0.50589  Biso   1.000  C
  H78      1.0000 0.40170  0.62530  0.52200  Biso   1.000  H
  C117     1.0000 0.45590  0.48800  0.45969  Biso   1.000  C
  H79      1.0000 0.47150  0.45340  0.44400  Biso   1.000  H
  C118     1.0000 0.44330  0.43950  0.48568  Biso   1.000  C
  H80      1.0000 0.44930  0.37200  0.48760  Biso   1.000  H
  C119     1.0000 0.42200  0.48990  0.50877  Biso   1.000  C
  C120     1.0000 0.40610  0.43870  0.53627  Biso   1.000  C
  C121     1.0000 0.44540  0.05180  0.54942  Biso   1.000  C
  H81      1.0000 0.45650  0.01450  0.53280  Biso   1.000  H
  C122     1.0000 0.43040  0.14500  0.54453  Biso   1.000  C
  H82      1.0000 0.43160  0.17180  0.52480  Biso   1.000  H
  C123     1.0000 0.42770  0.06480  0.59984  Biso   1.000  C
  H83      1.0000 0.42640  0.03640  0.61930  Biso   1.000  H
  C124     1.0000 0.41210  0.15760  0.59660  Biso   1.000  C
  H84      1.0000 0.40050  0.19280  0.61350  Biso   1.000  H
  C125     1.0000 0.41340  0.19990  0.56832  Biso   1.000  C
  C126     1.0000 0.40020  0.30250  0.56369  Biso   1.000  C
  C127     1.0000 0.54150  0.92930  0.63509  Biso   1.000  C
  H85      1.0000 0.51200  0.93340  0.64590  Biso   1.000  H
  C128     1.0000 0.58370  0.94390  0.65061  Biso   1.000  C
  H86      1.0000 0.58330  0.95810  0.67160  Biso   1.000  H
  C129     1.0000 0.58190  0.90560  0.59059  Biso   1.000  C
  H87      1.0000 0.58130  0.89320  0.56950  Biso   1.000  H
  C130     1.0000 0.62580  0.91880  0.60464  Biso   1.000  C
  H88      1.0000 0.65490  0.91500  0.59340  Biso   1.000  H
  C131     1.0000 0.62690  0.93760  0.63513  Biso   1.000  C
  C132     1.0000 0.67380  0.95000  0.65062  Biso   1.000  C
  C133     1.0000 0.84620  0.88610  0.59022  Biso   1.000  C
  H89      1.0000 0.84700  0.86540  0.56980  Biso   1.000  H
  C134     1.0000 0.80180  0.90240  0.60343  Biso   1.000  C
  H90      1.0000 0.77280  0.89380  0.59230  Biso   1.000  H
  C135     1.0000 0.88640  0.92920  0.63334  Biso   1.000  C
  H91      1.0000 0.91600  0.94050  0.64360  Biso   1.000  H
  C136     1.0000 0.84420  0.94530  0.64830  Biso   1.000  C
  H92      1.0000 0.84450  0.96560  0.66870  Biso   1.000  H
  C137     1.0000 0.80060  0.93150  0.63332  Biso   1.000  C
  C138     1.0000 0.75440  0.94630  0.64945  Biso   1.000  C
  C139     1.0000 0.76680  0.06230  0.76657  Biso   1.000  C
  H93      1.0000 0.79690  0.05910  0.77680  Biso   1.000  H
  C140     1.0000 0.76360  0.02300  0.73803  Biso   1.000  C
  H94      1.0000 0.79120  0.99530  0.72870  Biso   1.000  H
  C141     1.0000 0.68720  0.10400  0.76619  Biso   1.000  C
  H95      1.0000 0.66040  0.13230  0.77610  Biso   1.000  H
  C142     1.0000 0.68070  0.06490  0.73808  Biso   1.000  C
  H96      1.0000 0.64980  0.06550  0.72890  Biso   1.000  H
  C143     1.0000 0.72020  0.02430  0.72324  Biso   1.000  C
  C144     1.0000 0.71640  0.98860  0.69218  Biso   1.000  C
  N37      1.0000 0.29659  0.60070  0.64989  Biso   1.000  N
  N38      1.0000 0.44679  0.58340  0.45595  Biso   1.000  N
  N39      1.0000 0.44481  0.01140  0.57714  Biso   1.000  N
  N40      1.0000 0.38192  0.49030  0.55711  Biso   1.000  N
  N41      1.0000 0.41670  0.34550  0.53882  Biso   1.000  N
  N42      1.0000 0.37453  0.34550  0.58529  Biso   1.000  N
  N43      1.0000 0.53970  0.90970  0.60580  Biso   1.000  N
  N44      1.0000 0.88761  0.89800  0.60455  Biso   1.000  N
  N45      1.0000 0.73010  0.10400  0.78023  Biso   1.000  N
  N46      1.0000 0.71357  0.93350  0.63455  Biso   1.000  N
  N47      1.0000 0.75783  0.97360  0.67836  Biso   1.000  N
  N48      1.0000 0.67267  0.97800  0.67961  Biso   1.000  N
  Zn13     1.0000 0.02457  0.37777  0.58484  Biso   1.000  Zn
  Zn14     1.0000 0.04735  0.14359  0.41386  Biso   1.000  Zn
  Zn15     1.0000 0.23951  0.18171  0.68106  Biso   1.000  Zn
  I25      1.0000 0.00565  0.30463  0.53323  Biso   1.000  I
  I26      1.0000 0.07402  0.28939  0.62391  Biso   1.000  I
  I27      1.0000 0.05406  0.32693  0.41987  Biso   1.000  I
  I28      1.0000 0.98252  0.05959  0.38355  Biso   1.000  I
  I29      1.0000 0.32871  0.18278  0.66747  Biso   1.000  I
  I30      1.0000 0.19585  0.34248  0.68727  Biso   1.000  I
  C145     1.0000 0.19790  0.00470  0.65222  Biso   1.000  C
  H97      1.0000 0.21010  0.97280  0.66960  Biso   1.000  H
  C146     1.0000 0.17490  0.95000  0.63027  Biso   1.000  C
  H98      1.0000 0.17110  0.88220  0.63280  Biso   1.000  H
  C147     1.0000 0.18560  0.14340  0.62555  Biso   1.000  C
  H99      1.0000 0.18880  0.21160  0.62380  Biso   1.000  H
  C148     1.0000 0.16270  0.09420  0.60270  Biso   1.000  C
  H100     1.0000 0.15060  0.12790  0.58570  Biso   1.000  H
  C149     1.0000 0.15770  0.99530  0.60492  Biso   1.000  C
  C150     1.0000 0.13280  0.94010  0.58101  Biso   1.000  C
  C151     1.0000 0.07210  0.13250  0.47905  Biso   1.000  C
  H101     1.0000 0.07700  0.20030  0.47700  Biso   1.000  H
  C152     1.0000 0.08500  0.08860  0.50589  Biso   1.000  C
  H102     1.0000 0.09830  0.12530  0.52200  Biso   1.000  H
  C153     1.0000 0.04410  0.98800  0.45969  Biso   1.000  C
  H103     1.0000 0.02850  0.95340  0.44400  Biso   1.000  H
  C154     1.0000 0.05670  0.93950  0.48568  Biso   1.000  C
  H104     1.0000 0.05070  0.87200  0.48760  Biso   1.000  H
  C155     1.0000 0.07800  0.98990  0.50877  Biso   1.000  C
  C156     1.0000 0.09390  0.93870  0.53627  Biso   1.000  C
  C157     1.0000 0.05460  0.55180  0.54942  Biso   1.000  C
  H105     1.0000 0.04350  0.51450  0.53280  Biso   1.000  H
  C158     1.0000 0.06960  0.64500  0.54453  Biso   1.000  C
  H106     1.0000 0.06840  0.67180  0.52480  Biso   1.000  H
  C159     1.0000 0.07230  0.56480  0.59984  Biso   1.000  C
  H107     1.0000 0.07360  0.53640  0.61930  Biso   1.000  H
  C160     1.0000 0.08790  0.65760  0.59660  Biso   1.000  C
  H108     1.0000 0.09950  0.69280  0.61350  Biso   1.000  H
  C161     1.0000 0.08660  0.69990  0.56832  Biso   1.000  C
  C162     1.0000 0.09980  0.80250  0.56369  Biso   1.000  C
  C163     1.0000 0.95850  0.42930  0.63509  Biso   1.000  C
  H109     1.0000 0.98800  0.43340  0.64590  Biso   1.000  H
  C164     1.0000 0.91630  0.44390  0.65061  Biso   1.000  C
  H110     1.0000 0.91670  0.45810  0.67160  Biso   1.000  H
  C165     1.0000 0.91810  0.40560  0.59059  Biso   1.000  C
  H111     1.0000 0.91870  0.39320  0.56950  Biso   1.000  H
  C166     1.0000 0.87420  0.41880  0.60464  Biso   1.000  C
  H112     1.0000 0.84510  0.41500  0.59340  Biso   1.000  H
  C167     1.0000 0.87310  0.43760  0.63513  Biso   1.000  C
  C168     1.0000 0.82620  0.45000  0.65062  Biso   1.000  C
  C169     1.0000 0.65380  0.38610  0.59022  Biso   1.000  C
  H113     1.0000 0.65300  0.36540  0.56980  Biso   1.000  H
  C170     1.0000 0.69820  0.40240  0.60343  Biso   1.000  C
  H114     1.0000 0.72720  0.39380  0.59230  Biso   1.000  H
  C171     1.0000 0.61360  0.42920  0.63334  Biso   1.000  C
  H115     1.0000 0.58400  0.44050  0.64360  Biso   1.000  H
  C172     1.0000 0.65580  0.44530  0.64830  Biso   1.000  C
  H116     1.0000 0.65550  0.46560  0.66870  Biso   1.000  H
  C173     1.0000 0.69940  0.43150  0.63332  Biso   1.000  C
  C174     1.0000 0.74560  0.44630  0.64945  Biso   1.000  C
  C175     1.0000 0.73320  0.56230  0.76657  Biso   1.000  C
  H117     1.0000 0.70310  0.55910  0.77680  Biso   1.000  H
  C176     1.0000 0.73640  0.52300  0.73803  Biso   1.000  C
  H118     1.0000 0.70880  0.49530  0.72870  Biso   1.000  H
  C177     1.0000 0.81280  0.60400  0.76619  Biso   1.000  C
  H119     1.0000 0.83960  0.63230  0.77610  Biso   1.000  H
  C178     1.0000 0.81930  0.56490  0.73808  Biso   1.000  C
  H120     1.0000 0.85020  0.56550  0.72890  Biso   1.000  H
  C179     1.0000 0.77980  0.52430  0.72324  Biso   1.000  C
  C180     1.0000 0.78360  0.48860  0.69218  Biso   1.000  C
  N49      1.0000 0.20341  0.10070  0.64989  Biso   1.000  N
  N50      1.0000 0.05321  0.08340  0.45595  Biso   1.000  N
  N51      1.0000 0.05519  0.51140  0.57714  Biso   1.000  N
  N52      1.0000 0.11808  0.99030  0.55711  Biso   1.000  N
  N53      1.0000 0.08330  0.84550  0.53882  Biso   1.000  N
  N54      1.0000 0.12547  0.84550  0.58529  Biso   1.000  N
  N55      1.0000 0.96030  0.40970  0.60580  Biso   1.000  N
  N56      1.0000 0.61239  0.39800  0.60455  Biso   1.000  N
  N57      1.0000 0.76990  0.60400  0.78023  Biso   1.000  N
  N58      1.0000 0.78643  0.43350  0.63455  Biso   1.000  N
  N59      1.0000 0.74217  0.47360  0.67836  Biso   1.000  N
  N60      1.0000 0.82733  0.47800  0.67961  Biso   1.000  N
  Zn16     1.0000 0.47543  0.62223  0.08484  Biso   1.000  Zn
  Zn17     1.0000 0.45265  0.85641  0.91386  Biso   1.000  Zn
  Zn18     1.0000 0.26049  0.81829  0.18106  Biso   1.000  Zn
  I31      1.0000 0.49435  0.69537  0.03323  Biso   1.000  I
  I32      1.0000 0.42598  0.71061  0.12391  Biso   1.000  I
  I33      1.0000 0.44594  0.67307  0.91987  Biso   1.000  I
  I34      1.0000 0.51748  0.94041  0.88355  Biso   1.000  I
  I35      1.0000 0.17129  0.81722  0.16747  Biso   1.000  I
  I36      1.0000 0.30415  0.65752  0.18727  Biso   1.000  I
  C181     1.0000 0.30210  0.99530  0.15222  Biso   1.000  C
  H121     1.0000 0.28990  0.02720  0.16960  Biso   1.000  H
  C182     1.0000 0.32510  0.05000  0.13027  Biso   1.000  C
  H122     1.0000 0.32890  0.11780  0.13280  Biso   1.000  H
  C183     1.0000 0.31440  0.85660  0.12555  Biso   1.000  C
  H123     1.0000 0.31120  0.78840  0.12380  Biso   1.000  H
  C184     1.0000 0.33730  0.90580  0.10270  Biso   1.000  C
  H124     1.0000 0.34940  0.87210  0.08570  Biso   1.000  H
  C185     1.0000 0.34230  0.00470  0.10492  Biso   1.000  C
  C186     1.0000 0.36720  0.05990  0.08101  Biso   1.000  C
  C187     1.0000 0.42790  0.86750  0.97905  Biso   1.000  C
  H125     1.0000 0.42300  0.79970  0.97700  Biso   1.000  H
  C188     1.0000 0.41500  0.91140  0.00589  Biso   1.000  C
  H126     1.0000 0.40170  0.87470  0.02200  Biso   1.000  H
  C189     1.0000 0.45590  0.01200  0.95969  Biso   1.000  C
  H127     1.0000 0.47150  0.04660  0.94400  Biso   1.000  H
  C190     1.0000 0.44330  0.06050  0.98568  Biso   1.000  C
  H128     1.0000 0.44930  0.12800  0.98760  Biso   1.000  H
  C191     1.0000 0.42200  0.01010  0.00877  Biso   1.000  C
  C192     1.0000 0.40610  0.06130  0.03627  Biso   1.000  C
  C193     1.0000 0.44540  0.44820  0.04942  Biso   1.000  C
  H129     1.0000 0.45650  0.48550  0.03280  Biso   1.000  H
  C194     1.0000 0.43040  0.35500  0.04453  Biso   1.000  C
  H130     1.0000 0.43160  0.32820  0.02480  Biso   1.000  H
  C195     1.0000 0.42770  0.43520  0.09984  Biso   1.000  C
  H131     1.0000 0.42640  0.46360  0.11930  Biso   1.000  H
  C196     1.0000 0.41210  0.34240  0.09660  Biso   1.000  C
  H132     1.0000 0.40050  0.30720  0.11350  Biso   1.000  H
  C197     1.0000 0.41340  0.30010  0.06832  Biso   1.000  C
  C198     1.0000 0.40020  0.19750  0.06369  Biso   1.000  C
  C199     1.0000 0.54150  0.57070  0.13509  Biso   1.000  C
  H133     1.0000 0.51200  0.56660  0.14590  Biso   1.000  H
  C200     1.0000 0.58370  0.55610  0.15061  Biso   1.000  C
  H134     1.0000 0.58330  0.54190  0.17160  Biso   1.000  H
  C201     1.0000 0.58190  0.59440  0.09059  Biso   1.000  C
  H135     1.0000 0.58130  0.60680  0.06950  Biso   1.000  H
  C202     1.0000 0.62580  0.58120  0.10464  Biso   1.000  C
  H136     1.0000 0.65490  0.58500  0.09340  Biso   1.000  H
  C203     1.0000 0.62690  0.56240  0.13513  Biso   1.000  C
  C204     1.0000 0.67380  0.55000  0.15062  Biso   1.000  C
  C205     1.0000 0.84620  0.61390  0.09022  Biso   1.000  C
  H137     1.0000 0.84700  0.63460  0.06980  Biso   1.000  H
  C206     1.0000 0.80180  0.59760  0.10343  Biso   1.000  C
  H138     1.0000 0.77280  0.60620  0.09230  Biso   1.000  H
  C207     1.0000 0.88640  0.57080  0.13334  Biso   1.000  C
  H139     1.0000 0.91600  0.55950  0.14360  Biso   1.000  H
  C208     1.0000 0.84420  0.55470  0.14830  Biso   1.000  C
  H140     1.0000 0.84450  0.53440  0.16870  Biso   1.000  H
  C209     1.0000 0.80060  0.56850  0.13332  Biso   1.000  C
  C210     1.0000 0.75440  0.55370  0.14945  Biso   1.000  C
  C211     1.0000 0.76680  0.43770  0.26657  Biso   1.000  C
  H141     1.0000 0.79690  0.44090  0.27680  Biso   1.000  H
  C212     1.0000 0.76360  0.47700  0.23803  Biso   1.000  C
  H142     1.0000 0.79120  0.50470  0.22870  Biso   1.000  H
  C213     1.0000 0.68720  0.39600  0.26619  Biso   1.000  C
  H143     1.0000 0.66040  0.36770  0.27610  Biso   1.000  H
  C214     1.0000 0.68070  0.43510  0.23808  Biso   1.000  C
  H144     1.0000 0.64980  0.43450  0.22890  Biso   1.000  H
  C215     1.0000 0.72020  0.47570  0.22324  Biso   1.000  C
  C216     1.0000 0.71640  0.51140  0.19218  Biso   1.000  C
  N61      1.0000 0.29659  0.89930  0.14989  Biso   1.000  N
  N62      1.0000 0.44679  0.91660  0.95595  Biso   1.000  N
  N63      1.0000 0.44481  0.48860  0.07714  Biso   1.000  N
  N64      1.0000 0.38192  0.00970  0.05711  Biso   1.000  N
  N65      1.0000 0.41670  0.15450  0.03882  Biso   1.000  N
  N66      1.0000 0.37453  0.15450  0.08529  Biso   1.000  N
  N67      1.0000 0.53970  0.59030  0.10580  Biso   1.000  N
  N68      1.0000 0.88761  0.60200  0.10455  Biso   1.000  N
  N69      1.0000 0.73010  0.39600  0.28023  Biso   1.000  N
  N70      1.0000 0.71357  0.56650  0.13455  Biso   1.000  N
  N71      1.0000 0.75783  0.52640  0.17836  Biso   1.000  N
  N72      1.0000 0.67267  0.52200  0.17961  Biso   1.000  N
  Zn19     1.0000 0.97543  0.87777  0.91516  Biso   1.000  Zn
  Zn20     1.0000 0.95265  0.64359  0.08614  Biso   1.000  Zn
  Zn21     1.0000 0.76049  0.68171  0.81894  Biso   1.000  Zn
  I37      1.0000 0.99435  0.80463  0.96677  Biso   1.000  I
  I38      1.0000 0.92598  0.78939  0.87609  Biso   1.000  I
  I39      1.0000 0.94594  0.82693  0.08013  Biso   1.000  I
  I40      1.0000 0.01748  0.55959  0.11645  Biso   1.000  I
  I41      1.0000 0.67129  0.68278  0.83253  Biso   1.000  I
  I42      1.0000 0.80415  0.84248  0.81273  Biso   1.000  I
  C217     1.0000 0.80210  0.50470  0.84778  Biso   1.000  C
  H145     1.0000 0.78990  0.47280  0.83040  Biso   1.000  H
  C218     1.0000 0.82510  0.45000  0.86973  Biso   1.000  C
  H146     1.0000 0.82890  0.38220  0.86720  Biso   1.000  H
  C219     1.0000 0.81440  0.64340  0.87445  Biso   1.000  C
  H147     1.0000 0.81120  0.71160  0.87620  Biso   1.000  H
  C220     1.0000 0.83730  0.59420  0.89730  Biso   1.000  C
  H148     1.0000 0.84940  0.62790  0.91430  Biso   1.000  H
  C221     1.0000 0.84230  0.49530  0.89508  Biso   1.000  C
  C222     1.0000 0.86720  0.44010  0.91899  Biso   1.000  C
  C223     1.0000 0.92790  0.63250  0.02095  Biso   1.000  C
  H149     1.0000 0.92300  0.70030  0.02300  Biso   1.000  H
  C224     1.0000 0.91500  0.58860  0.99411  Biso   1.000  C
  H150     1.0000 0.90170  0.62530  0.97800  Biso   1.000  H
  C225     1.0000 0.95590  0.48800  0.04031  Biso   1.000  C
  H151     1.0000 0.97150  0.45340  0.05600  Biso   1.000  H
  C226     1.0000 0.94330  0.43950  0.01432  Biso   1.000  C
  H152     1.0000 0.94930  0.37200  0.01240  Biso   1.000  H
  C227     1.0000 0.92200  0.48990  0.99123  Biso   1.000  C
  C228     1.0000 0.90610  0.43870  0.96373  Biso   1.000  C
  C229     1.0000 0.94540  0.05180  0.95058  Biso   1.000  C
  H153     1.0000 0.95650  0.01450  0.96720  Biso   1.000  H
  C230     1.0000 0.93040  0.14500  0.95547  Biso   1.000  C
  H154     1.0000 0.93160  0.17180  0.97520  Biso   1.000  H
  C231     1.0000 0.92770  0.06480  0.90016  Biso   1.000  C
  H155     1.0000 0.92640  0.03640  0.88070  Biso   1.000  H
  C232     1.0000 0.91210  0.15760  0.90340  Biso   1.000  C
  H156     1.0000 0.90050  0.19280  0.88650  Biso   1.000  H
  C233     1.0000 0.91340  0.19990  0.93168  Biso   1.000  C
  C234     1.0000 0.90020  0.30250  0.93631  Biso   1.000  C
  C235     1.0000 0.04150  0.92930  0.86491  Biso   1.000  C
  H157     1.0000 0.01200  0.93340  0.85410  Biso   1.000  H
  C236     1.0000 0.08370  0.94390  0.84939  Biso   1.000  C
  H158     1.0000 0.08330  0.95810  0.82840  Biso   1.000  H
  C237     1.0000 0.08190  0.90560  0.90941  Biso   1.000  C
  H159     1.0000 0.08130  0.89320  0.93050  Biso   1.000  H
  C238     1.0000 0.12580  0.91880  0.89536  Biso   1.000  C
  H160     1.0000 0.15490  0.91500  0.90660  Biso   1.000  H
  C239     1.0000 0.12690  0.93760  0.86487  Biso   1.000  C
  C240     1.0000 0.17380  0.95000  0.84938  Biso   1.000  C
  C241     1.0000 0.34620  0.88610  0.90978  Biso   1.000  C
  H161     1.0000 0.34700  0.86540  0.93020  Biso   1.000  H
  C242     1.0000 0.30180  0.90240  0.89657  Biso   1.000  C
  H162     1.0000 0.27280  0.89380  0.90770  Biso   1.000  H
  C243     1.0000 0.38640  0.92920  0.86666  Biso   1.000  C
  H163     1.0000 0.41600  0.94050  0.85640  Biso   1.000  H
  C244     1.0000 0.34420  0.94530  0.85170  Biso   1.000  C
  H164     1.0000 0.34450  0.96560  0.83130  Biso   1.000  H
  C245     1.0000 0.30060  0.93150  0.86668  Biso   1.000  C
  C246     1.0000 0.25440  0.94630  0.85055  Biso   1.000  C
  C247     1.0000 0.26680  0.06230  0.73343  Biso   1.000  C
  H165     1.0000 0.29690  0.05910  0.72320  Biso   1.000  H
  C248     1.0000 0.26360  0.02300  0.76197  Biso   1.000  C
  H166     1.0000 0.29120  0.99530  0.77130  Biso   1.000  H
  C249     1.0000 0.18720  0.10400  0.73381  Biso   1.000  C
  H167     1.0000 0.16040  0.13230  0.72390  Biso   1.000  H
  C250     1.0000 0.18070  0.06490  0.76192  Biso   1.000  C
  H168     1.0000 0.14980  0.06550  0.77110  Biso   1.000  H
  C251     1.0000 0.22020  0.02430  0.77676  Biso   1.000  C
  C252     1.0000 0.21640  0.98860  0.80782  Biso   1.000  C
  N73      1.0000 0.79659  0.60070  0.85011  Biso   1.000  N
  N74      1.0000 0.94679  0.58340  0.04405  Biso   1.000  N
  N75      1.0000 0.94481  0.01140  0.92286  Biso   1.000  N
  N76      1.0000 0.88192  0.49030  0.94289  Biso   1.000  N
  N77      1.0000 0.91670  0.34550  0.96118  Biso   1.000  N
  N78      1.0000 0.87453  0.34550  0.91471  Biso   1.000  N
  N79      1.0000 0.03970  0.90970  0.89420  Biso   1.000  N
  N80      1.0000 0.38761  0.89800  0.89545  Biso   1.000  N
  N81      1.0000 0.23010  0.10400  0.71977  Biso   1.000  N
  N82      1.0000 0.21357  0.93350  0.86545  Biso   1.000  N
  N83      1.0000 0.25783  0.97360  0.82164  Biso   1.000  N
  N84      1.0000 0.17267  0.97800  0.82039  Biso   1.000  N
  Zn22     1.0000 0.52457  0.12223  0.41516  Biso   1.000  Zn
  Zn23     1.0000 0.54735  0.35641  0.58614  Biso   1.000  Zn
  Zn24     1.0000 0.73951  0.31829  0.31894  Biso   1.000  Zn
  I43      1.0000 0.50565  0.19537  0.46677  Biso   1.000  I
  I44      1.0000 0.57402  0.21061  0.37609  Biso   1.000  I
  I45      1.0000 0.55406  0.17307  0.58013  Biso   1.000  I
  I46      1.0000 0.48252  0.44041  0.61645  Biso   1.000  I
  I47      1.0000 0.82871  0.31722  0.33253  Biso   1.000  I
  I48      1.0000 0.69585  0.15752  0.31273  Biso   1.000  I
  C253     1.0000 0.69790  0.49530  0.34778  Biso   1.000  C
  H169     1.0000 0.71010  0.52720  0.33040  Biso   1.000  H
  C254     1.0000 0.67490  0.55000  0.36973  Biso   1.000  C
  H170     1.0000 0.67110  0.61780  0.36720  Biso   1.000  H
  C255     1.0000 0.68560  0.35660  0.37445  Biso   1.000  C
  H171     1.0000 0.68880  0.28840  0.37620  Biso   1.000  H
  C256     1.0000 0.66270  0.40580  0.39730  Biso   1.000  C
  H172     1.0000 0.65060  0.37210  0.41430  Biso   1.000  H
  C257     1.0000 0.65770  0.50470  0.39508  Biso   1.000  C
  C258     1.0000 0.63280  0.55990  0.41899  Biso   1.000  C
  C259     1.0000 0.57210  0.36750  0.52095  Biso   1.000  C
  H173     1.0000 0.57700  0.29970  0.52300  Biso   1.000  H
  C260     1.0000 0.58500  0.41140  0.49411  Biso   1.000  C
  H174     1.0000 0.59830  0.37470  0.47800  Biso   1.000  H
  C261     1.0000 0.54410  0.51200  0.54031  Biso   1.000  C
  H175     1.0000 0.52850  0.54660  0.55600  Biso   1.000  H
  C262     1.0000 0.55670  0.56050  0.51432  Biso   1.000  C
  H176     1.0000 0.55070  0.62800  0.51240  Biso   1.000  H
  C263     1.0000 0.57800  0.51010  0.49123  Biso   1.000  C
  C264     1.0000 0.59390  0.56130  0.46373  Biso   1.000  C
  C265     1.0000 0.55460  0.94820  0.45058  Biso   1.000  C
  H177     1.0000 0.54350  0.98550  0.46720  Biso   1.000  H
  C266     1.0000 0.56960  0.85500  0.45547  Biso   1.000  C
  H178     1.0000 0.56840  0.82820  0.47520  Biso   1.000  H
  C267     1.0000 0.57230  0.93520  0.40016  Biso   1.000  C
  H179     1.0000 0.57360  0.96360  0.38070  Biso   1.000  H
  C268     1.0000 0.58790  0.84240  0.40340  Biso   1.000  C
  H180     1.0000 0.59950  0.80720  0.38650  Biso   1.000  H
  C269     1.0000 0.58660  0.80010  0.43168  Biso   1.000  C
  C270     1.0000 0.59980  0.69750  0.43631  Biso   1.000  C
  C271     1.0000 0.45850  0.07070  0.36491  Biso   1.000  C
  H181     1.0000 0.48800  0.06660  0.35410  Biso   1.000  H
  C272     1.0000 0.41630  0.05610  0.34939  Biso   1.000  C
  H182     1.0000 0.41670  0.04190  0.32840  Biso   1.000  H
  C273     1.0000 0.41810  0.09440  0.40941  Biso   1.000  C
  H183     1.0000 0.41870  0.10680  0.43050  Biso   1.000  H
  C274     1.0000 0.37420  0.08120  0.39536  Biso   1.000  C
  H184     1.0000 0.34510  0.08500  0.40660  Biso   1.000  H
  C275     1.0000 0.37310  0.06240  0.36487  Biso   1.000  C
  C276     1.0000 0.32620  0.05000  0.34938  Biso   1.000  C
  C277     1.0000 0.15380  0.11390  0.40978  Biso   1.000  C
  H185     1.0000 0.15300  0.13460  0.43020  Biso   1.000  H
  C278     1.0000 0.19820  0.09760  0.39657  Biso   1.000  C
  H186     1.0000 0.22720  0.10620  0.40770  Biso   1.000  H
  C279     1.0000 0.11360  0.07080  0.36666  Biso   1.000  C
  H187     1.0000 0.08400  0.05950  0.35640  Biso   1.000  H
  C280     1.0000 0.15580  0.05470  0.35170  Biso   1.000  C
  H188     1.0000 0.15550  0.03440  0.33130  Biso   1.000  H
  C281     1.0000 0.19940  0.06850  0.36668  Biso   1.000  C
  C282     1.0000 0.24560  0.05370  0.35055  Biso   1.000  C
  C283     1.0000 0.23320  0.93770  0.23343  Biso   1.000  C
  H189     1.0000 0.20310  0.94090  0.22320  Biso   1.000  H
  C284     1.0000 0.23640  0.97700  0.26197  Biso   1.000  C
  H190     1.0000 0.20880  0.00470  0.27130  Biso   1.000  H
  C285     1.0000 0.31280  0.89600  0.23381  Biso   1.000  C
  H191     1.0000 0.33960  0.86770  0.22390  Biso   1.000  H
  C286     1.0000 0.31930  0.93510  0.26192  Biso   1.000  C
  H192     1.0000 0.35020  0.93450  0.27110  Biso   1.000  H
  C287     1.0000 0.27980  0.97570  0.27676  Biso   1.000  C
  C288     1.0000 0.28360  0.01140  0.30782  Biso   1.000  C
  N85      1.0000 0.70341  0.39930  0.35011  Biso   1.000  N
  N86      1.0000 0.55321  0.41660  0.54405  Biso   1.000  N
  N87      1.0000 0.55519  0.98860  0.42286  Biso   1.000  N
  N88      1.0000 0.61808  0.50970  0.44289  Biso   1.000  N
  N89      1.0000 0.58330  0.65450  0.46118  Biso   1.000  N
  N90      1.0000 0.62547  0.65450  0.41471  Biso   1.000  N
  N91      1.0000 0.46030  0.09030  0.39420  Biso   1.000  N
  N92      1.0000 0.11239  0.10200  0.39545  Biso   1.000  N
  N93      1.0000 0.26990  0.89600  0.21977  Biso   1.000  N
  N94      1.0000 0.28643  0.06650  0.36545  Biso   1.000  N
  N95      1.0000 0.24217  0.02640  0.32164  Biso   1.000  N
  N96      1.0000 0.32733  0.02200  0.32039  Biso   1.000  N
