data_image0
_cell_length_a       28.857
_cell_length_b       13.7063
_cell_length_c       45.188
_cell_angle_alpha    90
_cell_angle_beta     90
_cell_angle_gamma    90

_symmetry_space_group_name_H-M    "P 1"
_symmetry_int_tables_number       1

loop_
  _symmetry_equiv_pos_as_xyz
  'x, y, z'

loop_
  _atom_site_label
  _atom_site_occupancy
  _atom_site_fract_x
  _atom_site_fract_y
  _atom_site_fract_z
  _atom_site_thermal_displace_type
  _atom_site_B_iso_or_equiv
  _atom_site_type_symbol
  Zn1      1.0000 0.02280  0.14722  0.91413  Biso   1.000  Zn
  Zn2      1.0000 0.56358  0.15855  0.92874  Biso   1.000  Zn
  Zn3      1.0000 0.76223  0.85594  0.68945  Biso   1.000  Zn
  I1       1.0000 0.00838  0.21800  0.96570  Biso   1.000  I
  I2       1.0000 0.06891  0.23483  0.87459  Biso   1.000  I
  I3       1.0000 0.57434  0.34173  0.93970  Biso   1.000  I
  I4       1.0000 0.49685  0.08954  0.89963  Biso   1.000  I
  I5       1.0000 0.80126  0.69023  0.69442  Biso   1.000  I
  I6       1.0000 0.67836  0.86240  0.67284  Biso   1.000  I
  C1       1.0000 0.92060  0.11370  0.91222  Biso   1.000  C
  H1       1.0000 0.92320  0.12380  0.93300  Biso   1.000  H
  C2       1.0000 0.87700  0.10020  0.89996  Biso   1.000  C
  H2       1.0000 0.85020  0.10060  0.91220  Biso   1.000  H
  C3       1.0000 0.95520  0.09670  0.86697  Biso   1.000  C
  H3       1.0000 0.98250  0.09470  0.85530  Biso   1.000  H
  C4       1.0000 0.91300  0.08240  0.85323  Biso   1.000  C
  H4       1.0000 0.91160  0.07020  0.83260  Biso   1.000  H
  C5       1.0000 0.87290  0.08610  0.86995  Biso   1.000  C
  C6       1.0000 0.82670  0.07350  0.85606  Biso   1.000  C
  C7       1.0000 0.81020  0.92460  0.74285  Biso   1.000  C
  H5       1.0000 0.83570  0.89400  0.73330  Biso   1.000  H
  C8       1.0000 0.81640  0.96280  0.77091  Biso   1.000  C
  H6       1.0000 0.84590  0.96010  0.78020  Biso   1.000  H
  C9       1.0000 0.73420  0.97120  0.74214  Biso   1.000  C
  H7       1.0000 0.70540  0.97550  0.73200  Biso   1.000  H
  C10      1.0000 0.73760  0.00900  0.77043  Biso   1.000  C
  H8       1.0000 0.71140  0.03780  0.77970  Biso   1.000  H
  C11      1.0000 0.77960  0.00440  0.78498  Biso   1.000  C
  C12      1.0000 0.78350  0.03830  0.81613  Biso   1.000  C
  C13      1.0000 0.62330  0.09620  0.87855  Biso   1.000  C
  H9       1.0000 0.59420  0.08880  0.86900  Biso   1.000  H
  C14      1.0000 0.66300  0.08110  0.86238  Biso   1.000  C
  H10      1.0000 0.66120  0.06480  0.84200  Biso   1.000  H
  C15      1.0000 0.66510  0.12860  0.92047  Biso   1.000  C
  H11      1.0000 0.66580  0.14570  0.94080  Biso   1.000  H
  C16      1.0000 0.70650  0.11320  0.90626  Biso   1.000  C
  H12      1.0000 0.73500  0.11820  0.91660  Biso   1.000  H
  C17      1.0000 0.70570  0.09010  0.87615  Biso   1.000  C
  C18      1.0000 0.74920  0.07610  0.85926  Biso   1.000  C
  C19      1.0000 0.09330  0.37550  0.00952  Biso   1.000  C
  H13      1.0000 0.10350  0.30980  0.01100  Biso   1.000  H
  C20      1.0000 0.10340  0.42610  0.98429  Biso   1.000  C
  H14      1.0000 0.11970  0.39540  0.96860  Biso   1.000  H
  C21      1.0000 0.05450  0.50510  0.02897  Biso   1.000  C
  H15      1.0000 0.03630  0.53210  0.04450  Biso   1.000  H
  C22      1.0000 0.06360  0.56150  0.00457  Biso   1.000  C
  H16      1.0000 0.05220  0.62640  0.00340  Biso   1.000  H
  C23      1.0000 0.08960  0.52240  0.98173  Biso   1.000  C
  C24      1.0000 0.10160  0.58050  0.95515  Biso   1.000  C
  C25      1.0000 0.04240  0.96030  0.94390  Biso   1.000  C
  H17      1.0000 0.02260  0.98810  0.95840  Biso   1.000  H
  C26      1.0000 0.05840  0.86670  0.94837  Biso   1.000  C
  H18      1.0000 0.05000  0.83130  0.96560  Biso   1.000  H
  C27      1.0000 0.08100  0.97360  0.90054  Biso   1.000  C
  H19      1.0000 0.08870  0.01070  0.88350  Biso   1.000  H
  C28      1.0000 0.09890  0.88050  0.90341  Biso   1.000  C
  H20      1.0000 0.11940  0.85530  0.88890  Biso   1.000  H
  C29      1.0000 0.08700  0.82540  0.92729  Biso   1.000  C
  C30      1.0000 0.10160  0.72220  0.93017  Biso   1.000  C
  C31      1.0000 0.19890  0.53340  0.84040  Biso   1.000  C
  H21      1.0000 0.21410  0.56770  0.82490  Biso   1.000  H
  C32      1.0000 0.17750  0.58720  0.86264  Biso   1.000  C
  H22      1.0000 0.17760  0.65650  0.86220  Biso   1.000  H
  C33      1.0000 0.17710  0.39010  0.86105  Biso   1.000  C
  H23      1.0000 0.17570  0.32080  0.86030  Biso   1.000  H
  C34      1.0000 0.15570  0.43700  0.88458  Biso   1.000  C
  H24      1.0000 0.14100  0.40080  0.89990  Biso   1.000  H
  C35      1.0000 0.15630  0.53740  0.88515  Biso   1.000  C
  C36      1.0000 0.13400  0.58910  0.90989  Biso   1.000  C
  N1       1.0000 0.95930  0.11310  0.89572  Biso   1.000  N
  N2       1.0000 0.76990  0.92910  0.72873  Biso   1.000  N
  N3       1.0000 0.62400  0.12090  0.90733  Biso   1.000  N
  N4       1.0000 0.82590  0.04850  0.82737  Biso   1.000  N
  N5       1.0000 0.74427  0.05260  0.83064  Biso   1.000  N
  N6       1.0000 0.78930  0.08650  0.87295  Biso   1.000  N
  N7       1.0000 0.19910  0.43590  0.83970  Biso   1.000  N
  N8       1.0000 0.07010  0.41370  0.03193  Biso   1.000  N
  N9       1.0000 0.05333  0.01290  0.92067  Biso   1.000  N
  N10      1.0000 0.12300  0.53390  0.93342  Biso   1.000  N
  N11      1.0000 0.09040  0.67470  0.95489  Biso   1.000  N
  N12      1.0000 0.12467  0.68390  0.90722  Biso   1.000  N
  Zn4      1.0000 0.47720  0.85278  0.41413  Biso   1.000  Zn
  Zn5      1.0000 0.93642  0.84145  0.42874  Biso   1.000  Zn
  Zn6      1.0000 0.73777  0.14406  0.18945  Biso   1.000  Zn
  I7       1.0000 0.49162  0.78200  0.46570  Biso   1.000  I
  I8       1.0000 0.43109  0.76517  0.37459  Biso   1.000  I
  I9       1.0000 0.92566  0.65827  0.43970  Biso   1.000  I
  I10      1.0000 0.00315  0.91046  0.39963  Biso   1.000  I
  I11      1.0000 0.69874  0.30977  0.19442  Biso   1.000  I
  I12      1.0000 0.82164  0.13760  0.17284  Biso   1.000  I
  C37      1.0000 0.57940  0.88630  0.41222  Biso   1.000  C
  H25      1.0000 0.57680  0.87620  0.43300  Biso   1.000  H
  C38      1.0000 0.62300  0.89980  0.39996  Biso   1.000  C
  H26      1.0000 0.64980  0.89940  0.41220  Biso   1.000  H
  C39      1.0000 0.54480  0.90330  0.36697  Biso   1.000  C
  H27      1.0000 0.51750  0.90530  0.35530  Biso   1.000  H
  C40      1.0000 0.58700  0.91760  0.35323  Biso   1.000  C
  H28      1.0000 0.58840  0.92980  0.33260  Biso   1.000  H
  C41      1.0000 0.62710  0.91390  0.36995  Biso   1.000  C
  C42      1.0000 0.67330  0.92650  0.35606  Biso   1.000  C
  C43      1.0000 0.68980  0.07540  0.24285  Biso   1.000  C
  H29      1.0000 0.66430  0.10600  0.23330  Biso   1.000  H
  C44      1.0000 0.68360  0.03720  0.27091  Biso   1.000  C
  H30      1.0000 0.65410  0.03990  0.28020  Biso   1.000  H
  C45      1.0000 0.76580  0.02880  0.24214  Biso   1.000  C
  H31      1.0000 0.79460  0.02450  0.23200  Biso   1.000  H
  C46      1.0000 0.76240  0.99100  0.27043  Biso   1.000  C
  H32      1.0000 0.78860  0.96220  0.27970  Biso   1.000  H
  C47      1.0000 0.72040  0.99560  0.28498  Biso   1.000  C
  C48      1.0000 0.71650  0.96170  0.31613  Biso   1.000  C
  C49      1.0000 0.87670  0.90380  0.37855  Biso   1.000  C
  H33      1.0000 0.90580  0.91120  0.36900  Biso   1.000  H
  C50      1.0000 0.83700  0.91890  0.36238  Biso   1.000  C
  H34      1.0000 0.83880  0.93520  0.34200  Biso   1.000  H
  C51      1.0000 0.83490  0.87140  0.42047  Biso   1.000  C
  H35      1.0000 0.83420  0.85430  0.44080  Biso   1.000  H
  C52      1.0000 0.79350  0.88680  0.40626  Biso   1.000  C
  H36      1.0000 0.76500  0.88180  0.41660  Biso   1.000  H
  C53      1.0000 0.79430  0.90990  0.37615  Biso   1.000  C
  C54      1.0000 0.75080  0.92390  0.35926  Biso   1.000  C
  C55      1.0000 0.40670  0.62450  0.50952  Biso   1.000  C
  H37      1.0000 0.39650  0.69020  0.51100  Biso   1.000  H
  C56      1.0000 0.39660  0.57390  0.48429  Biso   1.000  C
  H38      1.0000 0.38030  0.60460  0.46860  Biso   1.000  H
  C57      1.0000 0.44550  0.49490  0.52897  Biso   1.000  C
  H39      1.0000 0.46370  0.46790  0.54450  Biso   1.000  H
  C58      1.0000 0.43640  0.43850  0.50457  Biso   1.000  C
  H40      1.0000 0.44780  0.37360  0.50340  Biso   1.000  H
  C59      1.0000 0.41040  0.47760  0.48173  Biso   1.000  C
  C60      1.0000 0.39840  0.41950  0.45515  Biso   1.000  C
  C61      1.0000 0.45760  0.03970  0.44390  Biso   1.000  C
  H41      1.0000 0.47740  0.01190  0.45840  Biso   1.000  H
  C62      1.0000 0.44160  0.13330  0.44837  Biso   1.000  C
  H42      1.0000 0.45000  0.16870  0.46560  Biso   1.000  H
  C63      1.0000 0.41900  0.02640  0.40054  Biso   1.000  C
  H43      1.0000 0.41130  0.98930  0.38350  Biso   1.000  H
  C64      1.0000 0.40110  0.11950  0.40341  Biso   1.000  C
  H44      1.0000 0.38060  0.14470  0.38890  Biso   1.000  H
  C65      1.0000 0.41300  0.17460  0.42729  Biso   1.000  C
  C66      1.0000 0.39840  0.27780  0.43017  Biso   1.000  C
  C67      1.0000 0.30110  0.46660  0.34040  Biso   1.000  C
  H45      1.0000 0.28590  0.43230  0.32490  Biso   1.000  H
  C68      1.0000 0.32250  0.41280  0.36264  Biso   1.000  C
  H46      1.0000 0.32240  0.34350  0.36220  Biso   1.000  H
  C69      1.0000 0.32290  0.60990  0.36105  Biso   1.000  C
  H47      1.0000 0.32430  0.67920  0.36030  Biso   1.000  H
  C70      1.0000 0.34430  0.56300  0.38458  Biso   1.000  C
  H48      1.0000 0.35900  0.59920  0.39990  Biso   1.000  H
  C71      1.0000 0.34370  0.46260  0.38515  Biso   1.000  C
  C72      1.0000 0.36600  0.41090  0.40989  Biso   1.000  C
  N13      1.0000 0.54070  0.88690  0.39572  Biso   1.000  N
  N14      1.0000 0.73010  0.07090  0.22873  Biso   1.000  N
  N15      1.0000 0.87600  0.87910  0.40733  Biso   1.000  N
  N16      1.0000 0.67410  0.95150  0.32737  Biso   1.000  N
  N17      1.0000 0.75573  0.94740  0.33064  Biso   1.000  N
  N18      1.0000 0.71070  0.91350  0.37295  Biso   1.000  N
  N19      1.0000 0.30090  0.56410  0.33970  Biso   1.000  N
  N20      1.0000 0.42990  0.58630  0.53193  Biso   1.000  N
  N21      1.0000 0.44667  0.98710  0.42067  Biso   1.000  N
  N22      1.0000 0.37700  0.46610  0.43342  Biso   1.000  N
  N23      1.0000 0.40960  0.32530  0.45489  Biso   1.000  N
  N24      1.0000 0.37533  0.31610  0.40722  Biso   1.000  N
  Zn7      1.0000 0.97720  0.64722  0.58587  Biso   1.000  Zn
  Zn8      1.0000 0.43642  0.65855  0.57126  Biso   1.000  Zn
  Zn9      1.0000 0.23777  0.35594  0.81055  Biso   1.000  Zn
  I13      1.0000 0.99162  0.71800  0.53430  Biso   1.000  I
  I14      1.0000 0.93109  0.73483  0.62541  Biso   1.000  I
  I15      1.0000 0.42566  0.84173  0.56030  Biso   1.000  I
  I16      1.0000 0.50315  0.58954  0.60037  Biso   1.000  I
  I17      1.0000 0.19874  0.19023  0.80558  Biso   1.000  I
  I18      1.0000 0.32164  0.36240  0.82716  Biso   1.000  I
  C73      1.0000 0.07940  0.61370  0.58778  Biso   1.000  C
  H49      1.0000 0.07680  0.62380  0.56700  Biso   1.000  H
  C74      1.0000 0.12300  0.60020  0.60004  Biso   1.000  C
  H50      1.0000 0.14980  0.60060  0.58780  Biso   1.000  H
  C75      1.0000 0.04480  0.59670  0.63303  Biso   1.000  C
  H51      1.0000 0.01750  0.59470  0.64470  Biso   1.000  H
  C76      1.0000 0.08700  0.58240  0.64677  Biso   1.000  C
  H52      1.0000 0.08840  0.57020  0.66740  Biso   1.000  H
  C77      1.0000 0.12710  0.58610  0.63005  Biso   1.000  C
  C78      1.0000 0.17330  0.57350  0.64394  Biso   1.000  C
  C79      1.0000 0.18980  0.42460  0.75715  Biso   1.000  C
  H53      1.0000 0.16430  0.39400  0.76670  Biso   1.000  H
  C80      1.0000 0.18360  0.46280  0.72909  Biso   1.000  C
  H54      1.0000 0.15410  0.46010  0.71980  Biso   1.000  H
  C81      1.0000 0.26580  0.47120  0.75786  Biso   1.000  C
  H55      1.0000 0.29460  0.47550  0.76800  Biso   1.000  H
  C82      1.0000 0.26240  0.50900  0.72957  Biso   1.000  C
  H56      1.0000 0.28860  0.53780  0.72030  Biso   1.000  H
  C83      1.0000 0.22040  0.50440  0.71502  Biso   1.000  C
  C84      1.0000 0.21650  0.53830  0.68387  Biso   1.000  C
  C85      1.0000 0.37670  0.59620  0.62145  Biso   1.000  C
  H57      1.0000 0.40580  0.58880  0.63100  Biso   1.000  H
  C86      1.0000 0.33700  0.58110  0.63762  Biso   1.000  C
  H58      1.0000 0.33880  0.56480  0.65800  Biso   1.000  H
  C87      1.0000 0.33490  0.62860  0.57953  Biso   1.000  C
  H59      1.0000 0.33420  0.64570  0.55920  Biso   1.000  H
  C88      1.0000 0.29350  0.61320  0.59374  Biso   1.000  C
  H60      1.0000 0.26500  0.61820  0.58340  Biso   1.000  H
  C89      1.0000 0.29430  0.59010  0.62385  Biso   1.000  C
  C90      1.0000 0.25080  0.57610  0.64074  Biso   1.000  C
  C91      1.0000 0.90670  0.87550  0.49048  Biso   1.000  C
  H61      1.0000 0.89650  0.80980  0.48900  Biso   1.000  H
  C92      1.0000 0.89660  0.92610  0.51571  Biso   1.000  C
  H62      1.0000 0.88030  0.89540  0.53140  Biso   1.000  H
  C93      1.0000 0.94550  0.00510  0.47103  Biso   1.000  C
  H63      1.0000 0.96370  0.03210  0.45550  Biso   1.000  H
  C94      1.0000 0.93640  0.06150  0.49543  Biso   1.000  C
  H64      1.0000 0.94780  0.12640  0.49660  Biso   1.000  H
  C95      1.0000 0.91040  0.02240  0.51827  Biso   1.000  C
  C96      1.0000 0.89840  0.08050  0.54485  Biso   1.000  C
  C97      1.0000 0.95760  0.46030  0.55610  Biso   1.000  C
  H65      1.0000 0.97740  0.48810  0.54160  Biso   1.000  H
  C98      1.0000 0.94160  0.36670  0.55163  Biso   1.000  C
  H66      1.0000 0.95000  0.33130  0.53440  Biso   1.000  H
  C99      1.0000 0.91900  0.47360  0.59946  Biso   1.000  C
  H67      1.0000 0.91130  0.51070  0.61650  Biso   1.000  H
  C100     1.0000 0.90110  0.38050  0.59659  Biso   1.000  C
  H68      1.0000 0.88060  0.35530  0.61110  Biso   1.000  H
  C101     1.0000 0.91300  0.32540  0.57271  Biso   1.000  C
  C102     1.0000 0.89840  0.22220  0.56983  Biso   1.000  C
  C103     1.0000 0.80110  0.03340  0.65960  Biso   1.000  C
  H69      1.0000 0.78590  0.06770  0.67510  Biso   1.000  H
  C104     1.0000 0.82250  0.08720  0.63736  Biso   1.000  C
  H70      1.0000 0.82240  0.15650  0.63780  Biso   1.000  H
  C105     1.0000 0.82290  0.89010  0.63895  Biso   1.000  C
  H71      1.0000 0.82430  0.82080  0.63970  Biso   1.000  H
  C106     1.0000 0.84430  0.93700  0.61542  Biso   1.000  C
  H72      1.0000 0.85900  0.90080  0.60010  Biso   1.000  H
  C107     1.0000 0.84370  0.03740  0.61485  Biso   1.000  C
  C108     1.0000 0.86600  0.08910  0.59011  Biso   1.000  C
  N25      1.0000 0.04070  0.61310  0.60428  Biso   1.000  N
  N26      1.0000 0.23010  0.42910  0.77127  Biso   1.000  N
  N27      1.0000 0.37600  0.62090  0.59267  Biso   1.000  N
  N28      1.0000 0.17410  0.54850  0.67263  Biso   1.000  N
  N29      1.0000 0.25573  0.55260  0.66936  Biso   1.000  N
  N30      1.0000 0.21070  0.58650  0.62705  Biso   1.000  N
  N31      1.0000 0.80090  0.93590  0.66030  Biso   1.000  N
  N32      1.0000 0.92990  0.91370  0.46807  Biso   1.000  N
  N33      1.0000 0.94667  0.51290  0.57933  Biso   1.000  N
  N34      1.0000 0.87700  0.03390  0.56658  Biso   1.000  N
  N35      1.0000 0.90960  0.17470  0.54511  Biso   1.000  N
  N36      1.0000 0.87533  0.18390  0.59278  Biso   1.000  N
  Zn10     1.0000 0.52280  0.35278  0.08587  Biso   1.000  Zn
  Zn11     1.0000 0.06358  0.34145  0.07126  Biso   1.000  Zn
  Zn12     1.0000 0.26223  0.64406  0.31055  Biso   1.000  Zn
  I19      1.0000 0.50838  0.28200  0.03430  Biso   1.000  I
  I20      1.0000 0.56891  0.26517  0.12541  Biso   1.000  I
  I21      1.0000 0.07434  0.15827  0.06030  Biso   1.000  I
  I22      1.0000 0.99685  0.41046  0.10037  Biso   1.000  I
  I23      1.0000 0.30126  0.80977  0.30558  Biso   1.000  I
  I24      1.0000 0.17836  0.63760  0.32716  Biso   1.000  I
  C109     1.0000 0.42060  0.38630  0.08778  Biso   1.000  C
  H73      1.0000 0.42320  0.37620  0.06700  Biso   1.000  H
  C110     1.0000 0.37700  0.39980  0.10004  Biso   1.000  C
  H74      1.0000 0.35020  0.39940  0.08780  Biso   1.000  H
  C111     1.0000 0.45520  0.40330  0.13303  Biso   1.000  C
  H75      1.0000 0.48250  0.40530  0.14470  Biso   1.000  H
  C112     1.0000 0.41300  0.41760  0.14677  Biso   1.000  C
  H76      1.0000 0.41160  0.42980  0.16740  Biso   1.000  H
  C113     1.0000 0.37290  0.41390  0.13005  Biso   1.000  C
  C114     1.0000 0.32670  0.42650  0.14394  Biso   1.000  C
  C115     1.0000 0.31020  0.57540  0.25715  Biso   1.000  C
  H77      1.0000 0.33570  0.60600  0.26670  Biso   1.000  H
  C116     1.0000 0.31640  0.53720  0.22909  Biso   1.000  C
  H78      1.0000 0.34590  0.53990  0.21980  Biso   1.000  H
  C117     1.0000 0.23420  0.52880  0.25786  Biso   1.000  C
  H79      1.0000 0.20540  0.52450  0.26800  Biso   1.000  H
  C118     1.0000 0.23760  0.49100  0.22957  Biso   1.000  C
  H80      1.0000 0.21140  0.46220  0.22030  Biso   1.000  H
  C119     1.0000 0.27960  0.49560  0.21502  Biso   1.000  C
  C120     1.0000 0.28350  0.46170  0.18387  Biso   1.000  C
  C121     1.0000 0.12330  0.40380  0.12145  Biso   1.000  C
  H81      1.0000 0.09420  0.41120  0.13100  Biso   1.000  H
  C122     1.0000 0.16300  0.41890  0.13762  Biso   1.000  C
  H82      1.0000 0.16120  0.43520  0.15800  Biso   1.000  H
  C123     1.0000 0.16510  0.37140  0.07953  Biso   1.000  C
  H83      1.0000 0.16580  0.35430  0.05920  Biso   1.000  H
  C124     1.0000 0.20650  0.38680  0.09374  Biso   1.000  C
  H84      1.0000 0.23500  0.38180  0.08340  Biso   1.000  H
  C125     1.0000 0.20570  0.40990  0.12385  Biso   1.000  C
  C126     1.0000 0.24920  0.42390  0.14074  Biso   1.000  C
  C127     1.0000 0.59330  0.12450  0.99048  Biso   1.000  C
  H85      1.0000 0.60350  0.19020  0.98900  Biso   1.000  H
  C128     1.0000 0.60340  0.07390  0.01571  Biso   1.000  C
  H86      1.0000 0.61970  0.10460  0.03140  Biso   1.000  H
  C129     1.0000 0.55450  0.99490  0.97103  Biso   1.000  C
  H87      1.0000 0.53630  0.96790  0.95550  Biso   1.000  H
  C130     1.0000 0.56360  0.93850  0.99543  Biso   1.000  C
  H88      1.0000 0.55220  0.87360  0.99660  Biso   1.000  H
  C131     1.0000 0.58960  0.97760  0.01827  Biso   1.000  C
  C132     1.0000 0.60160  0.91950  0.04485  Biso   1.000  C
  C133     1.0000 0.54240  0.53970  0.05610  Biso   1.000  C
  H89      1.0000 0.52260  0.51190  0.04160  Biso   1.000  H
  C134     1.0000 0.55840  0.63330  0.05163  Biso   1.000  C
  H90      1.0000 0.55000  0.66870  0.03440  Biso   1.000  H
  C135     1.0000 0.58100  0.52640  0.09946  Biso   1.000  C
  H91      1.0000 0.58870  0.48930  0.11650  Biso   1.000  H
  C136     1.0000 0.59890  0.61950  0.09659  Biso   1.000  C
  H92      1.0000 0.61940  0.64470  0.11110  Biso   1.000  H
  C137     1.0000 0.58700  0.67460  0.07271  Biso   1.000  C
  C138     1.0000 0.60160  0.77780  0.06983  Biso   1.000  C
  C139     1.0000 0.69890  0.96660  0.15960  Biso   1.000  C
  H93      1.0000 0.71410  0.93230  0.17510  Biso   1.000  H
  C140     1.0000 0.67750  0.91280  0.13736  Biso   1.000  C
  H94      1.0000 0.67760  0.84350  0.13780  Biso   1.000  H
  C141     1.0000 0.67710  0.10990  0.13895  Biso   1.000  C
  H95      1.0000 0.67570  0.17920  0.13970  Biso   1.000  H
  C142     1.0000 0.65570  0.06300  0.11542  Biso   1.000  C
  H96      1.0000 0.64100  0.09920  0.10010  Biso   1.000  H
  C143     1.0000 0.65630  0.96260  0.11485  Biso   1.000  C
  C144     1.0000 0.63400  0.91090  0.09011  Biso   1.000  C
  N37      1.0000 0.45930  0.38690  0.10428  Biso   1.000  N
  N38      1.0000 0.26990  0.57090  0.27127  Biso   1.000  N
  N39      1.0000 0.12400  0.37910  0.09267  Biso   1.000  N
  N40      1.0000 0.32590  0.45150  0.17263  Biso   1.000  N
  N41      1.0000 0.24427  0.44740  0.16936  Biso   1.000  N
  N42      1.0000 0.28930  0.41350  0.12705  Biso   1.000  N
  N43      1.0000 0.69910  0.06410  0.16030  Biso   1.000  N
  N44      1.0000 0.57010  0.08630  0.96807  Biso   1.000  N
  N45      1.0000 0.55333  0.48710  0.07933  Biso   1.000  N
  N46      1.0000 0.62300  0.96610  0.06658  Biso   1.000  N
  N47      1.0000 0.59040  0.82530  0.04511  Biso   1.000  N
  N48      1.0000 0.62467  0.81610  0.09278  Biso   1.000  N
  Zn13     1.0000 0.97720  0.85278  0.08587  Biso   1.000  Zn
  Zn14     1.0000 0.43642  0.84145  0.07126  Biso   1.000  Zn
  Zn15     1.0000 0.23777  0.14406  0.31055  Biso   1.000  Zn
  I25      1.0000 0.99162  0.78200  0.03430  Biso   1.000  I
  I26      1.0000 0.93109  0.76517  0.12541  Biso   1.000  I
  I27      1.0000 0.42566  0.65827  0.06030  Biso   1.000  I
  I28      1.0000 0.50315  0.91046  0.10037  Biso   1.000  I
  I29      1.0000 0.19874  0.30977  0.30558  Biso   1.000  I
  I30      1.0000 0.32164  0.13760  0.32716  Biso   1.000  I
  C145     1.0000 0.07940  0.88630  0.08778  Biso   1.000  C
  H97      1.0000 0.07680  0.87620  0.06700  Biso   1.000  H
  C146     1.0000 0.12300  0.89980  0.10004  Biso   1.000  C
  H98      1.0000 0.14980  0.89940  0.08780  Biso   1.000  H
  C147     1.0000 0.04480  0.90330  0.13303  Biso   1.000  C
  H99      1.0000 0.01750  0.90530  0.14470  Biso   1.000  H
  C148     1.0000 0.08700  0.91760  0.14677  Biso   1.000  C
  H100     1.0000 0.08840  0.92980  0.16740  Biso   1.000  H
  C149     1.0000 0.12710  0.91390  0.13005  Biso   1.000  C
  C150     1.0000 0.17330  0.92650  0.14394  Biso   1.000  C
  C151     1.0000 0.18980  0.07540  0.25715  Biso   1.000  C
  H101     1.0000 0.16430  0.10600  0.26670  Biso   1.000  H
  C152     1.0000 0.18360  0.03720  0.22909  Biso   1.000  C
  H102     1.0000 0.15410  0.03990  0.21980  Biso   1.000  H
  C153     1.0000 0.26580  0.02880  0.25786  Biso   1.000  C
  H103     1.0000 0.29460  0.02450  0.26800  Biso   1.000  H
  C154     1.0000 0.26240  0.99100  0.22957  Biso   1.000  C
  H104     1.0000 0.28860  0.96220  0.22030  Biso   1.000  H
  C155     1.0000 0.22040  0.99560  0.21502  Biso   1.000  C
  C156     1.0000 0.21650  0.96170  0.18387  Biso   1.000  C
  C157     1.0000 0.37670  0.90380  0.12145  Biso   1.000  C
  H105     1.0000 0.40580  0.91120  0.13100  Biso   1.000  H
  C158     1.0000 0.33700  0.91890  0.13762  Biso   1.000  C
  H106     1.0000 0.33880  0.93520  0.15800  Biso   1.000  H
  C159     1.0000 0.33490  0.87140  0.07953  Biso   1.000  C
  H107     1.0000 0.33420  0.85430  0.05920  Biso   1.000  H
  C160     1.0000 0.29350  0.88680  0.09374  Biso   1.000  C
  H108     1.0000 0.26500  0.88180  0.08340  Biso   1.000  H
  C161     1.0000 0.29430  0.90990  0.12385  Biso   1.000  C
  C162     1.0000 0.25080  0.92390  0.14074  Biso   1.000  C
  C163     1.0000 0.90670  0.62450  0.99048  Biso   1.000  C
  H109     1.0000 0.89650  0.69020  0.98900  Biso   1.000  H
  C164     1.0000 0.89660  0.57390  0.01571  Biso   1.000  C
  H110     1.0000 0.88030  0.60460  0.03140  Biso   1.000  H
  C165     1.0000 0.94550  0.49490  0.97103  Biso   1.000  C
  H111     1.0000 0.96370  0.46790  0.95550  Biso   1.000  H
  C166     1.0000 0.93640  0.43850  0.99543  Biso   1.000  C
  H112     1.0000 0.94780  0.37360  0.99660  Biso   1.000  H
  C167     1.0000 0.91040  0.47760  0.01827  Biso   1.000  C
  C168     1.0000 0.89840  0.41950  0.04485  Biso   1.000  C
  C169     1.0000 0.95760  0.03970  0.05610  Biso   1.000  C
  H113     1.0000 0.97740  0.01190  0.04160  Biso   1.000  H
  C170     1.0000 0.94160  0.13330  0.05163  Biso   1.000  C
  H114     1.0000 0.95000  0.16870  0.03440  Biso   1.000  H
  C171     1.0000 0.91900  0.02640  0.09946  Biso   1.000  C
  H115     1.0000 0.91130  0.98930  0.11650  Biso   1.000  H
  C172     1.0000 0.90110  0.11950  0.09659  Biso   1.000  C
  H116     1.0000 0.88060  0.14470  0.11110  Biso   1.000  H
  C173     1.0000 0.91300  0.17460  0.07271  Biso   1.000  C
  C174     1.0000 0.89840  0.27780  0.06983  Biso   1.000  C
  C175     1.0000 0.80110  0.46660  0.15960  Biso   1.000  C
  H117     1.0000 0.78590  0.43230  0.17510  Biso   1.000  H
  C176     1.0000 0.82250  0.41280  0.13736  Biso   1.000  C
  H118     1.0000 0.82240  0.34350  0.13780  Biso   1.000  H
  C177     1.0000 0.82290  0.60990  0.13895  Biso   1.000  C
  H119     1.0000 0.82430  0.67920  0.13970  Biso   1.000  H
  C178     1.0000 0.84430  0.56300  0.11542  Biso   1.000  C
  H120     1.0000 0.85900  0.59920  0.10010  Biso   1.000  H
  C179     1.0000 0.84370  0.46260  0.11485  Biso   1.000  C
  C180     1.0000 0.86600  0.41090  0.09011  Biso   1.000  C
  N49      1.0000 0.04070  0.88690  0.10428  Biso   1.000  N
  N50      1.0000 0.23010  0.07090  0.27127  Biso   1.000  N
  N51      1.0000 0.37600  0.87910  0.09267  Biso   1.000  N
  N52      1.0000 0.17410  0.95150  0.17263  Biso   1.000  N
  N53      1.0000 0.25573  0.94740  0.16936  Biso   1.000  N
  N54      1.0000 0.21070  0.91350  0.12705  Biso   1.000  N
  N55      1.0000 0.80090  0.56410  0.16030  Biso   1.000  N
  N56      1.0000 0.92990  0.58630  0.96807  Biso   1.000  N
  N57      1.0000 0.94667  0.98710  0.07933  Biso   1.000  N
  N58      1.0000 0.87700  0.46610  0.06658  Biso   1.000  N
  N59      1.0000 0.90960  0.32530  0.04511  Biso   1.000  N
  N60      1.0000 0.87533  0.31610  0.09278  Biso   1.000  N
  Zn16     1.0000 0.52280  0.14722  0.58587  Biso   1.000  Zn
  Zn17     1.0000 0.06358  0.15855  0.57126  Biso   1.000  Zn
  Zn18     1.0000 0.26223  0.85594  0.81055  Biso   1.000  Zn
  I31      1.0000 0.50838  0.21800  0.53430  Biso   1.000  I
  I32      1.0000 0.56891  0.23483  0.62541  Biso   1.000  I
  I33      1.0000 0.07434  0.34173  0.56030  Biso   1.000  I
  I34      1.0000 0.99685  0.08954  0.60037  Biso   1.000  I
  I35      1.0000 0.30126  0.69023  0.80558  Biso   1.000  I
  I36      1.0000 0.17836  0.86240  0.82716  Biso   1.000  I
  C181     1.0000 0.42060  0.11370  0.58778  Biso   1.000  C
  H121     1.0000 0.42320  0.12380  0.56700  Biso   1.000  H
  C182     1.0000 0.37700  0.10020  0.60004  Biso   1.000  C
  H122     1.0000 0.35020  0.10060  0.58780  Biso   1.000  H
  C183     1.0000 0.45520  0.09670  0.63303  Biso   1.000  C
  H123     1.0000 0.48250  0.09470  0.64470  Biso   1.000  H
  C184     1.0000 0.41300  0.08240  0.64677  Biso   1.000  C
  H124     1.0000 0.41160  0.07020  0.66740  Biso   1.000  H
  C185     1.0000 0.37290  0.08610  0.63005  Biso   1.000  C
  C186     1.0000 0.32670  0.07350  0.64394  Biso   1.000  C
  C187     1.0000 0.31020  0.92460  0.75715  Biso   1.000  C
  H125     1.0000 0.33570  0.89400  0.76670  Biso   1.000  H
  C188     1.0000 0.31640  0.96280  0.72909  Biso   1.000  C
  H126     1.0000 0.34590  0.96010  0.71980  Biso   1.000  H
  C189     1.0000 0.23420  0.97120  0.75786  Biso   1.000  C
  H127     1.0000 0.20540  0.97550  0.76800  Biso   1.000  H
  C190     1.0000 0.23760  0.00900  0.72957  Biso   1.000  C
  H128     1.0000 0.21140  0.03780  0.72030  Biso   1.000  H
  C191     1.0000 0.27960  0.00440  0.71502  Biso   1.000  C
  C192     1.0000 0.28350  0.03830  0.68387  Biso   1.000  C
  C193     1.0000 0.12330  0.09620  0.62145  Biso   1.000  C
  H129     1.0000 0.09420  0.08880  0.63100  Biso   1.000  H
  C194     1.0000 0.16300  0.08110  0.63762  Biso   1.000  C
  H130     1.0000 0.16120  0.06480  0.65800  Biso   1.000  H
  C195     1.0000 0.16510  0.12860  0.57953  Biso   1.000  C
  H131     1.0000 0.16580  0.14570  0.55920  Biso   1.000  H
  C196     1.0000 0.20650  0.11320  0.59374  Biso   1.000  C
  H132     1.0000 0.23500  0.11820  0.58340  Biso   1.000  H
  C197     1.0000 0.20570  0.09010  0.62385  Biso   1.000  C
  C198     1.0000 0.24920  0.07610  0.64074  Biso   1.000  C
  C199     1.0000 0.59330  0.37550  0.49048  Biso   1.000  C
  H133     1.0000 0.60350  0.30980  0.48900  Biso   1.000  H
  C200     1.0000 0.60340  0.42610  0.51571  Biso   1.000  C
  H134     1.0000 0.61970  0.39540  0.53140  Biso   1.000  H
  C201     1.0000 0.55450  0.50510  0.47103  Biso   1.000  C
  H135     1.0000 0.53630  0.53210  0.45550  Biso   1.000  H
  C202     1.0000 0.56360  0.56150  0.49543  Biso   1.000  C
  H136     1.0000 0.55220  0.62640  0.49660  Biso   1.000  H
  C203     1.0000 0.58960  0.52240  0.51827  Biso   1.000  C
  C204     1.0000 0.60160  0.58050  0.54485  Biso   1.000  C
  C205     1.0000 0.54240  0.96030  0.55610  Biso   1.000  C
  H137     1.0000 0.52260  0.98810  0.54160  Biso   1.000  H
  C206     1.0000 0.55840  0.86670  0.55163  Biso   1.000  C
  H138     1.0000 0.55000  0.83130  0.53440  Biso   1.000  H
  C207     1.0000 0.58100  0.97360  0.59946  Biso   1.000  C
  H139     1.0000 0.58870  0.01070  0.61650  Biso   1.000  H
  C208     1.0000 0.59890  0.88050  0.59659  Biso   1.000  C
  H140     1.0000 0.61940  0.85530  0.61110  Biso   1.000  H
  C209     1.0000 0.58700  0.82540  0.57271  Biso   1.000  C
  C210     1.0000 0.60160  0.72220  0.56983  Biso   1.000  C
  C211     1.0000 0.69890  0.53340  0.65960  Biso   1.000  C
  H141     1.0000 0.71410  0.56770  0.67510  Biso   1.000  H
  C212     1.0000 0.67750  0.58720  0.63736  Biso   1.000  C
  H142     1.0000 0.67760  0.65650  0.63780  Biso   1.000  H
  C213     1.0000 0.67710  0.39010  0.63895  Biso   1.000  C
  H143     1.0000 0.67570  0.32080  0.63970  Biso   1.000  H
  C214     1.0000 0.65570  0.43700  0.61542  Biso   1.000  C
  H144     1.0000 0.64100  0.40080  0.60010  Biso   1.000  H
  C215     1.0000 0.65630  0.53740  0.61485  Biso   1.000  C
  C216     1.0000 0.63400  0.58910  0.59011  Biso   1.000  C
  N61      1.0000 0.45930  0.11310  0.60428  Biso   1.000  N
  N62      1.0000 0.26990  0.92910  0.77127  Biso   1.000  N
  N63      1.0000 0.12400  0.12090  0.59267  Biso   1.000  N
  N64      1.0000 0.32590  0.04850  0.67263  Biso   1.000  N
  N65      1.0000 0.24427  0.05260  0.66936  Biso   1.000  N
  N66      1.0000 0.28930  0.08650  0.62705  Biso   1.000  N
  N67      1.0000 0.69910  0.43590  0.66030  Biso   1.000  N
  N68      1.0000 0.57010  0.41370  0.46807  Biso   1.000  N
  N69      1.0000 0.55333  0.01290  0.57933  Biso   1.000  N
  N70      1.0000 0.62300  0.53390  0.56658  Biso   1.000  N
  N71      1.0000 0.59040  0.67470  0.54511  Biso   1.000  N
  N72      1.0000 0.62467  0.68390  0.59278  Biso   1.000  N
  Zn19     1.0000 0.02280  0.35278  0.41413  Biso   1.000  Zn
  Zn20     1.0000 0.56358  0.34145  0.42874  Biso   1.000  Zn
  Zn21     1.0000 0.76223  0.64406  0.18945  Biso   1.000  Zn
  I37      1.0000 0.00838  0.28200  0.46570  Biso   1.000  I
  I38      1.0000 0.06891  0.26517  0.37459  Biso   1.000  I
  I39      1.0000 0.57434  0.15827  0.43970  Biso   1.000  I
  I40      1.0000 0.49685  0.41046  0.39963  Biso   1.000  I
  I41      1.0000 0.80126  0.80977  0.19442  Biso   1.000  I
  I42      1.0000 0.67836  0.63760  0.17284  Biso   1.000  I
  C217     1.0000 0.92060  0.38630  0.41222  Biso   1.000  C
  H145     1.0000 0.92320  0.37620  0.43300  Biso   1.000  H
  C218     1.0000 0.87700  0.39980  0.39996  Biso   1.000  C
  H146     1.0000 0.85020  0.39940  0.41220  Biso   1.000  H
  C219     1.0000 0.95520  0.40330  0.36697  Biso   1.000  C
  H147     1.0000 0.98250  0.40530  0.35530  Biso   1.000  H
  C220     1.0000 0.91300  0.41760  0.35323  Biso   1.000  C
  H148     1.0000 0.91160  0.42980  0.33260  Biso   1.000  H
  C221     1.0000 0.87290  0.41390  0.36995  Biso   1.000  C
  C222     1.0000 0.82670  0.42650  0.35606  Biso   1.000  C
  C223     1.0000 0.81020  0.57540  0.24285  Biso   1.000  C
  H149     1.0000 0.83570  0.60600  0.23330  Biso   1.000  H
  C224     1.0000 0.81640  0.53720  0.27091  Biso   1.000  C
  H150     1.0000 0.84590  0.53990  0.28020  Biso   1.000  H
  C225     1.0000 0.73420  0.52880  0.24214  Biso   1.000  C
  H151     1.0000 0.70540  0.52450  0.23200  Biso   1.000  H
  C226     1.0000 0.73760  0.49100  0.27043  Biso   1.000  C
  H152     1.0000 0.71140  0.46220  0.27970  Biso   1.000  H
  C227     1.0000 0.77960  0.49560  0.28498  Biso   1.000  C
  C228     1.0000 0.78350  0.46170  0.31613  Biso   1.000  C
  C229     1.0000 0.62330  0.40380  0.37855  Biso   1.000  C
  H153     1.0000 0.59420  0.41120  0.36900  Biso   1.000  H
  C230     1.0000 0.66300  0.41890  0.36238  Biso   1.000  C
  H154     1.0000 0.66120  0.43520  0.34200  Biso   1.000  H
  C231     1.0000 0.66510  0.37140  0.42047  Biso   1.000  C
  H155     1.0000 0.66580  0.35430  0.44080  Biso   1.000  H
  C232     1.0000 0.70650  0.38680  0.40626  Biso   1.000  C
  H156     1.0000 0.73500  0.38180  0.41660  Biso   1.000  H
  C233     1.0000 0.70570  0.40990  0.37615  Biso   1.000  C
  C234     1.0000 0.74920  0.42390  0.35926  Biso   1.000  C
  C235     1.0000 0.09330  0.12450  0.50952  Biso   1.000  C
  H157     1.0000 0.10350  0.19020  0.51100  Biso   1.000  H
  C236     1.0000 0.10340  0.07390  0.48429  Biso   1.000  C
  H158     1.0000 0.11970  0.10460  0.46860  Biso   1.000  H
  C237     1.0000 0.05450  0.99490  0.52897  Biso   1.000  C
  H159     1.0000 0.03630  0.96790  0.54450  Biso   1.000  H
  C238     1.0000 0.06360  0.93850  0.50457  Biso   1.000  C
  H160     1.0000 0.05220  0.87360  0.50340  Biso   1.000  H
  C239     1.0000 0.08960  0.97760  0.48173  Biso   1.000  C
  C240     1.0000 0.10160  0.91950  0.45515  Biso   1.000  C
  C241     1.0000 0.04240  0.53970  0.44390  Biso   1.000  C
  H161     1.0000 0.02260  0.51190  0.45840  Biso   1.000  H
  C242     1.0000 0.05840  0.63330  0.44837  Biso   1.000  C
  H162     1.0000 0.05000  0.66870  0.46560  Biso   1.000  H
  C243     1.0000 0.08100  0.52640  0.40054  Biso   1.000  C
  H163     1.0000 0.08870  0.48930  0.38350  Biso   1.000  H
  C244     1.0000 0.09890  0.61950  0.40341  Biso   1.000  C
  H164     1.0000 0.11940  0.64470  0.38890  Biso   1.000  H
  C245     1.0000 0.08700  0.67460  0.42729  Biso   1.000  C
  C246     1.0000 0.10160  0.77780  0.43017  Biso   1.000  C
  C247     1.0000 0.19890  0.96660  0.34040  Biso   1.000  C
  H165     1.0000 0.21410  0.93230  0.32490  Biso   1.000  H
  C248     1.0000 0.17750  0.91280  0.36264  Biso   1.000  C
  H166     1.0000 0.17760  0.84350  0.36220  Biso   1.000  H
  C249     1.0000 0.17710  0.10990  0.36105  Biso   1.000  C
  H167     1.0000 0.17570  0.17920  0.36030  Biso   1.000  H
  C250     1.0000 0.15570  0.06300  0.38458  Biso   1.000  C
  H168     1.0000 0.14100  0.09920  0.39990  Biso   1.000  H
  C251     1.0000 0.15630  0.96260  0.38515  Biso   1.000  C
  C252     1.0000 0.13400  0.91090  0.40989  Biso   1.000  C
  N73      1.0000 0.95930  0.38690  0.39572  Biso   1.000  N
  N74      1.0000 0.76990  0.57090  0.22873  Biso   1.000  N
  N75      1.0000 0.62400  0.37910  0.40733  Biso   1.000  N
  N76      1.0000 0.82590  0.45150  0.32737  Biso   1.000  N
  N77      1.0000 0.74427  0.44740  0.33064  Biso   1.000  N
  N78      1.0000 0.78930  0.41350  0.37295  Biso   1.000  N
  N79      1.0000 0.19910  0.06410  0.33970  Biso   1.000  N
  N80      1.0000 0.07010  0.08630  0.53193  Biso   1.000  N
  N81      1.0000 0.05333  0.48710  0.42067  Biso   1.000  N
  N82      1.0000 0.12300  0.96610  0.43342  Biso   1.000  N
  N83      1.0000 0.09040  0.82530  0.45489  Biso   1.000  N
  N84      1.0000 0.12467  0.81610  0.40722  Biso   1.000  N
  Zn22     1.0000 0.47720  0.64722  0.91413  Biso   1.000  Zn
  Zn23     1.0000 0.93642  0.65855  0.92874  Biso   1.000  Zn
  Zn24     1.0000 0.73777  0.35594  0.68945  Biso   1.000  Zn
  I43      1.0000 0.49162  0.71800  0.96570  Biso   1.000  I
  I44      1.0000 0.43109  0.73483  0.87459  Biso   1.000  I
  I45      1.0000 0.92566  0.84173  0.93970  Biso   1.000  I
  I46      1.0000 0.00315  0.58954  0.89963  Biso   1.000  I
  I47      1.0000 0.69874  0.19023  0.69442  Biso   1.000  I
  I48      1.0000 0.82164  0.36240  0.67284  Biso   1.000  I
  C253     1.0000 0.57940  0.61370  0.91222  Biso   1.000  C
  H169     1.0000 0.57680  0.62380  0.93300  Biso   1.000  H
  C254     1.0000 0.62300  0.60020  0.89996  Biso   1.000  C
  H170     1.0000 0.64980  0.60060  0.91220  Biso   1.000  H
  C255     1.0000 0.54480  0.59670  0.86697  Biso   1.000  C
  H171     1.0000 0.51750  0.59470  0.85530  Biso   1.000  H
  C256     1.0000 0.58700  0.58240  0.85323  Biso   1.000  C
  H172     1.0000 0.58840  0.57020  0.83260  Biso   1.000  H
  C257     1.0000 0.62710  0.58610  0.86995  Biso   1.000  C
  C258     1.0000 0.67330  0.57350  0.85606  Biso   1.000  C
  C259     1.0000 0.68980  0.42460  0.74285  Biso   1.000  C
  H173     1.0000 0.66430  0.39400  0.73330  Biso   1.000  H
  C260     1.0000 0.68360  0.46280  0.77091  Biso   1.000  C
  H174     1.0000 0.65410  0.46010  0.78020  Biso   1.000  H
  C261     1.0000 0.76580  0.47120  0.74214  Biso   1.000  C
  H175     1.0000 0.79460  0.47550  0.73200  Biso   1.000  H
  C262     1.0000 0.76240  0.50900  0.77043  Biso   1.000  C
  H176     1.0000 0.78860  0.53780  0.77970  Biso   1.000  H
  C263     1.0000 0.72040  0.50440  0.78498  Biso   1.000  C
  C264     1.0000 0.71650  0.53830  0.81613  Biso   1.000  C
  C265     1.0000 0.87670  0.59620  0.87855  Biso   1.000  C
  H177     1.0000 0.90580  0.58880  0.86900  Biso   1.000  H
  C266     1.0000 0.83700  0.58110  0.86238  Biso   1.000  C
  H178     1.0000 0.83880  0.56480  0.84200  Biso   1.000  H
  C267     1.0000 0.83490  0.62860  0.92047  Biso   1.000  C
  H179     1.0000 0.83420  0.64570  0.94080  Biso   1.000  H
  C268     1.0000 0.79350  0.61320  0.90626  Biso   1.000  C
  H180     1.0000 0.76500  0.61820  0.91660  Biso   1.000  H
  C269     1.0000 0.79430  0.59010  0.87615  Biso   1.000  C
  C270     1.0000 0.75080  0.57610  0.85926  Biso   1.000  C
  C271     1.0000 0.40670  0.87550  0.00952  Biso   1.000  C
  H181     1.0000 0.39650  0.80980  0.01100  Biso   1.000  H
  C272     1.0000 0.39660  0.92610  0.98429  Biso   1.000  C
  H182     1.0000 0.38030  0.89540  0.96860  Biso   1.000  H
  C273     1.0000 0.44550  0.00510  0.02897  Biso   1.000  C
  H183     1.0000 0.46370  0.03210  0.04450  Biso   1.000  H
  C274     1.0000 0.43640  0.06150  0.00457  Biso   1.000  C
  H184     1.0000 0.44780  0.12640  0.00340  Biso   1.000  H
  C275     1.0000 0.41040  0.02240  0.98173  Biso   1.000  C
  C276     1.0000 0.39840  0.08050  0.95515  Biso   1.000  C
  C277     1.0000 0.45760  0.46030  0.94390  Biso   1.000  C
  H185     1.0000 0.47740  0.48810  0.95840  Biso   1.000  H
  C278     1.0000 0.44160  0.36670  0.94837  Biso   1.000  C
  H186     1.0000 0.45000  0.33130  0.96560  Biso   1.000  H
  C279     1.0000 0.41900  0.47360  0.90054  Biso   1.000  C
  H187     1.0000 0.41130  0.51070  0.88350  Biso   1.000  H
  C280     1.0000 0.40110  0.38050  0.90341  Biso   1.000  C
  H188     1.0000 0.38060  0.35530  0.88890  Biso   1.000  H
  C281     1.0000 0.41300  0.32540  0.92729  Biso   1.000  C
  C282     1.0000 0.39840  0.22220  0.93017  Biso   1.000  C
  C283     1.0000 0.30110  0.03340  0.84040  Biso   1.000  C
  H189     1.0000 0.28590  0.06770  0.82490  Biso   1.000  H
  C284     1.0000 0.32250  0.08720  0.86264  Biso   1.000  C
  H190     1.0000 0.32240  0.15650  0.86220  Biso   1.000  H
  C285     1.0000 0.32290  0.89010  0.86105  Biso   1.000  C
  H191     1.0000 0.32430  0.82080  0.86030  Biso   1.000  H
  C286     1.0000 0.34430  0.93700  0.88458  Biso   1.000  C
  H192     1.0000 0.35900  0.90080  0.89990  Biso   1.000  H
  C287     1.0000 0.34370  0.03740  0.88515  Biso   1.000  C
  C288     1.0000 0.36600  0.08910  0.90989  Biso   1.000  C
  N85      1.0000 0.54070  0.61310  0.89572  Biso   1.000  N
  N86      1.0000 0.73010  0.42910  0.72873  Biso   1.000  N
  N87      1.0000 0.87600  0.62090  0.90733  Biso   1.000  N
  N88      1.0000 0.67410  0.54850  0.82737  Biso   1.000  N
  N89      1.0000 0.75573  0.55260  0.83064  Biso   1.000  N
  N90      1.0000 0.71070  0.58650  0.87295  Biso   1.000  N
  N91      1.0000 0.30090  0.93590  0.83970  Biso   1.000  N
  N92      1.0000 0.42990  0.91370  0.03193  Biso   1.000  N
  N93      1.0000 0.44667  0.51290  0.92067  Biso   1.000  N
  N94      1.0000 0.37700  0.03390  0.93342  Biso   1.000  N
  N95      1.0000 0.40960  0.17470  0.95489  Biso   1.000  N
  N96      1.0000 0.37533  0.18390  0.90722  Biso   1.000  N
