data_image0
_cell_length_a       13.6728
_cell_length_b       45.5987
_cell_length_c       28.4576
_cell_angle_alpha    90
_cell_angle_beta     90
_cell_angle_gamma    90

_symmetry_space_group_name_H-M    "P 1"
_symmetry_int_tables_number       1

loop_
  _symmetry_equiv_pos_as_xyz
  'x, y, z'

loop_
  _atom_site_label
  _atom_site_occupancy
  _atom_site_fract_x
  _atom_site_fract_y
  _atom_site_fract_z
  _atom_site_thermal_displace_type
  _atom_site_B_iso_or_equiv
  _atom_site_type_symbol
  Zn1      1.0000 0.33055  0.56823  0.56324  Biso   1.000  Zn
  Zn2      1.0000 0.63817  0.81006  0.75686  Biso   1.000  Zn
  Zn3      1.0000 0.34718  0.58737  0.02618  Biso   1.000  Zn
  I1       1.0000 0.40234  0.59660  0.49538  Biso   1.000  I
  I2       1.0000 0.15060  0.55533  0.57667  Biso   1.000  I
  I3       1.0000 0.80099  0.80327  0.79881  Biso   1.000  I
  I4       1.0000 0.63409  0.82470  0.67096  Biso   1.000  I
  I5       1.0000 0.27007  0.53743  0.01020  Biso   1.000  I
  I6       1.0000 0.26145  0.62796  0.07173  Biso   1.000  I
  C1       1.0000 0.41530  0.64139  0.74860  Biso   1.000  C
  C2       1.0000 0.45280  0.68484  0.78240  Biso   1.000  C
  C3       1.0000 0.41700  0.64556  0.82730  Biso   1.000  C
  C4       1.0000 0.40150  0.62402  0.70460  Biso   1.000  C
  C5       1.0000 0.37480  0.59473  0.70680  Biso   1.000  C
  H1       1.0000 0.36710  0.58530  0.73630  Biso   1.000  H
  C6       1.0000 0.35980  0.57968  0.66600  Biso   1.000  C
  H2       1.0000 0.34200  0.55960  0.66800  Biso   1.000  H
  C7       1.0000 0.39630  0.61983  0.62130  Biso   1.000  C
  H3       1.0000 0.40440  0.62850  0.59110  Biso   1.000  H
  C8       1.0000 0.41340  0.63670  0.66050  Biso   1.000  C
  H4       1.0000 0.43300  0.65660  0.65760  Biso   1.000  H
  C9       1.0000 0.48680  0.71569  0.77710  Biso   1.000  C
  C10      1.0000 0.48190  0.72957  0.73450  Biso   1.000  C
  H5       1.0000 0.45210  0.72010  0.70840  Biso   1.000  H
  C11      1.0000 0.52080  0.75767  0.72980  Biso   1.000  C
  H6       1.0000 0.51660  0.76740  0.70030  Biso   1.000  H
  C12      1.0000 0.56660  0.75807  0.80750  Biso   1.000  C
  H7       1.0000 0.59540  0.76800  0.83340  Biso   1.000  H
  C13      1.0000 0.52840  0.72999  0.81440  Biso   1.000  C
  H8       1.0000 0.53120  0.72100  0.84450  Biso   1.000  H
  C14      1.0000 0.40690  0.63164  0.87410  Biso   1.000  C
  C15      1.0000 0.40730  0.64856  0.91500  Biso   1.000  C
  H9       1.0000 0.41550  0.66920  0.91350  Biso   1.000  H
  C16      1.0000 0.39570  0.63470  0.95750  Biso   1.000  C
  H10      1.0000 0.39710  0.64630  0.98520  Biso   1.000  H
  C17      1.0000 0.38270  0.58963  0.92230  Biso   1.000  C
  H11      1.0000 0.37350  0.56900  0.92470  Biso   1.000  H
  C18      1.0000 0.39580  0.60202  0.87840  Biso   1.000  C
  H12      1.0000 0.39710  0.58990  0.85120  Biso   1.000  H
  C19      1.0000 0.58260  0.45546  0.60750  Biso   1.000  C
  C20      1.0000 0.59140  0.41001  0.63830  Biso   1.000  C
  C21      1.0000 0.72540  0.43054  0.60660  Biso   1.000  C
  C22      1.0000 0.52410  0.48167  0.59460  Biso   1.000  C
  C23      1.0000 0.56050  0.50352  0.56650  Biso   1.000  C
  H13      1.0000 0.62530  0.50240  0.55450  Biso   1.000  H
  C24      1.0000 0.50090  0.52739  0.55570  Biso   1.000  C
  H14      1.0000 0.52540  0.54220  0.53540  Biso   1.000  H
  C25      1.0000 0.37440  0.50879  0.59850  Biso   1.000  C
  H15      1.0000 0.30830  0.51000  0.60860  Biso   1.000  H
  C26      1.0000 0.42930  0.48431  0.61130  Biso   1.000  C
  H16      1.0000 0.40210  0.46970  0.63120  Biso   1.000  H
  C27      1.0000 0.54070  0.38509  0.66040  Biso   1.000  C
  C28      1.0000 0.43950  0.38444  0.66190  Biso   1.000  C
  H17      1.0000 0.40290  0.40000  0.64830  Biso   1.000  H
  C29      1.0000 0.39170  0.36131  0.68300  Biso   1.000  C
  H18      1.0000 0.32220  0.36070  0.68250  Biso   1.000  H
  C30      1.0000 0.53780  0.33996  0.70280  Biso   1.000  C
  H19      1.0000 0.57230  0.32430  0.71710  Biso   1.000  H
  C31      1.0000 0.59110  0.36240  0.68090  Biso   1.000  C
  H20      1.0000 0.66050  0.36190  0.68030  Biso   1.000  H
  C32      1.0000 0.82860  0.42781  0.59070  Biso   1.000  C
  C33      1.0000 0.88340  0.40297  0.60110  Biso   1.000  C
  H21      1.0000 0.85640  0.38810  0.62060  Biso   1.000  H
  C34      1.0000 0.97550  0.39973  0.58360  Biso   1.000  C
  H22      1.0000 0.01120  0.38250  0.59120  Biso   1.000  H
  C35      1.0000 0.96580  0.44387  0.54670  Biso   1.000  C
  H23      1.0000 0.99500  0.45860  0.52770  Biso   1.000  H
  C36      1.0000 0.87320  0.44859  0.56280  Biso   1.000  C
  H24      1.0000 0.83950  0.46610  0.55480  Biso   1.000  H
  N1       1.0000 0.43820  0.67009  0.74220  Biso   1.000  N
  N2       1.0000 0.44120  0.67415  0.82540  Biso   1.000  N
  N3       1.0000 0.40440  0.62833  0.78930  Biso   1.000  N
  N4       1.0000 0.36870  0.59164  0.62390  Biso   1.000  N
  N5       1.0000 0.56420  0.77137  0.76610  Biso   1.000  N
  N6       1.0000 0.38260  0.60608  0.96200  Biso   1.000  N
  N7       1.0000 0.53670  0.43382  0.62790  Biso   1.000  N
  N8       1.0000 0.68720  0.40754  0.62860  Biso   1.000  N
  N9       1.0000 0.67920  0.45551  0.59570  Biso   1.000  N
  N10      1.0000 0.41010  0.53017  0.57300  Biso   1.000  N
  N11      1.0000 0.44040  0.33993  0.70410  Biso   1.000  N
  N12      1.0000 0.01780  0.42002  0.55580  Biso   1.000  N
  Zn4      1.0000 0.16945  0.43177  0.06324  Biso   1.000  Zn
  Zn5      1.0000 0.86183  0.18994  0.25686  Biso   1.000  Zn
  Zn6      1.0000 0.15282  0.41263  0.52618  Biso   1.000  Zn
  I7       1.0000 0.09766  0.40340  0.99538  Biso   1.000  I
  I8       1.0000 0.34940  0.44467  0.07667  Biso   1.000  I
  I9       1.0000 0.69901  0.19673  0.29881  Biso   1.000  I
  I10      1.0000 0.86591  0.17530  0.17096  Biso   1.000  I
  I11      1.0000 0.22993  0.46257  0.51020  Biso   1.000  I
  I12      1.0000 0.23855  0.37204  0.57173  Biso   1.000  I
  C37      1.0000 0.08470  0.35861  0.24860  Biso   1.000  C
  C38      1.0000 0.04720  0.31516  0.28240  Biso   1.000  C
  C39      1.0000 0.08300  0.35444  0.32730  Biso   1.000  C
  C40      1.0000 0.09850  0.37598  0.20460  Biso   1.000  C
  C41      1.0000 0.12520  0.40527  0.20680  Biso   1.000  C
  H25      1.0000 0.13290  0.41470  0.23630  Biso   1.000  H
  C42      1.0000 0.14020  0.42032  0.16600  Biso   1.000  C
  H26      1.0000 0.15800  0.44040  0.16800  Biso   1.000  H
  C43      1.0000 0.10370  0.38017  0.12130  Biso   1.000  C
  H27      1.0000 0.09560  0.37150  0.09110  Biso   1.000  H
  C44      1.0000 0.08660  0.36330  0.16050  Biso   1.000  C
  H28      1.0000 0.06700  0.34340  0.15760  Biso   1.000  H
  C45      1.0000 0.01320  0.28431  0.27710  Biso   1.000  C
  C46      1.0000 0.01810  0.27043  0.23450  Biso   1.000  C
  H29      1.0000 0.04790  0.27990  0.20840  Biso   1.000  H
  C47      1.0000 0.97920  0.24233  0.22980  Biso   1.000  C
  H30      1.0000 0.98340  0.23260  0.20030  Biso   1.000  H
  C48      1.0000 0.93340  0.24193  0.30750  Biso   1.000  C
  H31      1.0000 0.90460  0.23200  0.33340  Biso   1.000  H
  C49      1.0000 0.97160  0.27001  0.31440  Biso   1.000  C
  H32      1.0000 0.96880  0.27900  0.34450  Biso   1.000  H
  C50      1.0000 0.09310  0.36836  0.37410  Biso   1.000  C
  C51      1.0000 0.09270  0.35144  0.41500  Biso   1.000  C
  H33      1.0000 0.08450  0.33080  0.41350  Biso   1.000  H
  C52      1.0000 0.10430  0.36530  0.45750  Biso   1.000  C
  H34      1.0000 0.10290  0.35370  0.48520  Biso   1.000  H
  C53      1.0000 0.11730  0.41037  0.42230  Biso   1.000  C
  H35      1.0000 0.12650  0.43100  0.42470  Biso   1.000  H
  C54      1.0000 0.10420  0.39798  0.37840  Biso   1.000  C
  H36      1.0000 0.10290  0.41010  0.35120  Biso   1.000  H
  C55      1.0000 0.91740  0.54454  0.10750  Biso   1.000  C
  C56      1.0000 0.90860  0.58999  0.13830  Biso   1.000  C
  C57      1.0000 0.77460  0.56946  0.10660  Biso   1.000  C
  C58      1.0000 0.97590  0.51833  0.09460  Biso   1.000  C
  C59      1.0000 0.93950  0.49648  0.06650  Biso   1.000  C
  H37      1.0000 0.87470  0.49760  0.05450  Biso   1.000  H
  C60      1.0000 0.99910  0.47261  0.05570  Biso   1.000  C
  H38      1.0000 0.97460  0.45780  0.03540  Biso   1.000  H
  C61      1.0000 0.12560  0.49121  0.09850  Biso   1.000  C
  H39      1.0000 0.19170  0.49000  0.10860  Biso   1.000  H
  C62      1.0000 0.07070  0.51569  0.11130  Biso   1.000  C
  H40      1.0000 0.09790  0.53030  0.13120  Biso   1.000  H
  C63      1.0000 0.95930  0.61491  0.16040  Biso   1.000  C
  C64      1.0000 0.06050  0.61556  0.16190  Biso   1.000  C
  H41      1.0000 0.09710  0.60000  0.14830  Biso   1.000  H
  C65      1.0000 0.10830  0.63869  0.18300  Biso   1.000  C
  H42      1.0000 0.17780  0.63930  0.18250  Biso   1.000  H
  C66      1.0000 0.96220  0.66004  0.20280  Biso   1.000  C
  H43      1.0000 0.92770  0.67570  0.21710  Biso   1.000  H
  C67      1.0000 0.90890  0.63760  0.18090  Biso   1.000  C
  H44      1.0000 0.83950  0.63810  0.18030  Biso   1.000  H
  C68      1.0000 0.67140  0.57219  0.09070  Biso   1.000  C
  C69      1.0000 0.61660  0.59703  0.10110  Biso   1.000  C
  H45      1.0000 0.64360  0.61190  0.12060  Biso   1.000  H
  C70      1.0000 0.52450  0.60027  0.08360  Biso   1.000  C
  H46      1.0000 0.48880  0.61750  0.09120  Biso   1.000  H
  C71      1.0000 0.53420  0.55613  0.04670  Biso   1.000  C
  H47      1.0000 0.50500  0.54140  0.02770  Biso   1.000  H
  C72      1.0000 0.62680  0.55141  0.06280  Biso   1.000  C
  H48      1.0000 0.66050  0.53390  0.05480  Biso   1.000  H
  N13      1.0000 0.06180  0.32991  0.24220  Biso   1.000  N
  N14      1.0000 0.05880  0.32585  0.32540  Biso   1.000  N
  N15      1.0000 0.09560  0.37167  0.28930  Biso   1.000  N
  N16      1.0000 0.13130  0.40836  0.12390  Biso   1.000  N
  N17      1.0000 0.93580  0.22863  0.26610  Biso   1.000  N
  N18      1.0000 0.11740  0.39392  0.46200  Biso   1.000  N
  N19      1.0000 0.96330  0.56618  0.12790  Biso   1.000  N
  N20      1.0000 0.81280  0.59246  0.12860  Biso   1.000  N
  N21      1.0000 0.82080  0.54449  0.09570  Biso   1.000  N
  N22      1.0000 0.08990  0.46983  0.07300  Biso   1.000  N
  N23      1.0000 0.05960  0.66007  0.20410  Biso   1.000  N
  N24      1.0000 0.48220  0.57998  0.05580  Biso   1.000  N
  Zn7      1.0000 0.66945  0.06823  0.93676  Biso   1.000  Zn
  Zn8      1.0000 0.36183  0.31006  0.74314  Biso   1.000  Zn
  Zn9      1.0000 0.65282  0.08737  0.47382  Biso   1.000  Zn
  I13      1.0000 0.59766  0.09660  0.00462  Biso   1.000  I
  I14      1.0000 0.84940  0.05533  0.92333  Biso   1.000  I
  I15      1.0000 0.19901  0.30327  0.70119  Biso   1.000  I
  I16      1.0000 0.36591  0.32470  0.82904  Biso   1.000  I
  I17      1.0000 0.72993  0.03743  0.48980  Biso   1.000  I
  I18      1.0000 0.73855  0.12796  0.42827  Biso   1.000  I
  C73      1.0000 0.58470  0.14139  0.75140  Biso   1.000  C
  C74      1.0000 0.54720  0.18484  0.71760  Biso   1.000  C
  C75      1.0000 0.58300  0.14556  0.67270  Biso   1.000  C
  C76      1.0000 0.59850  0.12402  0.79540  Biso   1.000  C
  C77      1.0000 0.62520  0.09473  0.79320  Biso   1.000  C
  H49      1.0000 0.63290  0.08530  0.76370  Biso   1.000  H
  C78      1.0000 0.64020  0.07968  0.83400  Biso   1.000  C
  H50      1.0000 0.65800  0.05960  0.83200  Biso   1.000  H
  C79      1.0000 0.60370  0.11983  0.87870  Biso   1.000  C
  H51      1.0000 0.59560  0.12850  0.90890  Biso   1.000  H
  C80      1.0000 0.58660  0.13670  0.83950  Biso   1.000  C
  H52      1.0000 0.56700  0.15660  0.84240  Biso   1.000  H
  C81      1.0000 0.51320  0.21569  0.72290  Biso   1.000  C
  C82      1.0000 0.51810  0.22957  0.76550  Biso   1.000  C
  H53      1.0000 0.54790  0.22010  0.79160  Biso   1.000  H
  C83      1.0000 0.47920  0.25767  0.77020  Biso   1.000  C
  H54      1.0000 0.48340  0.26740  0.79970  Biso   1.000  H
  C84      1.0000 0.43340  0.25807  0.69250  Biso   1.000  C
  H55      1.0000 0.40460  0.26800  0.66660  Biso   1.000  H
  C85      1.0000 0.47160  0.22999  0.68560  Biso   1.000  C
  H56      1.0000 0.46880  0.22100  0.65550  Biso   1.000  H
  C86      1.0000 0.59310  0.13164  0.62590  Biso   1.000  C
  C87      1.0000 0.59270  0.14856  0.58500  Biso   1.000  C
  H57      1.0000 0.58450  0.16920  0.58650  Biso   1.000  H
  C88      1.0000 0.60430  0.13470  0.54250  Biso   1.000  C
  H58      1.0000 0.60290  0.14630  0.51480  Biso   1.000  H
  C89      1.0000 0.61730  0.08963  0.57770  Biso   1.000  C
  H59      1.0000 0.62650  0.06900  0.57530  Biso   1.000  H
  C90      1.0000 0.60420  0.10202  0.62160  Biso   1.000  C
  H60      1.0000 0.60290  0.08990  0.64880  Biso   1.000  H
  C91      1.0000 0.41740  0.95546  0.89250  Biso   1.000  C
  C92      1.0000 0.40860  0.91001  0.86170  Biso   1.000  C
  C93      1.0000 0.27460  0.93054  0.89340  Biso   1.000  C
  C94      1.0000 0.47590  0.98167  0.90540  Biso   1.000  C
  C95      1.0000 0.43950  0.00352  0.93350  Biso   1.000  C
  H61      1.0000 0.37470  0.00240  0.94550  Biso   1.000  H
  C96      1.0000 0.49910  0.02739  0.94430  Biso   1.000  C
  H62      1.0000 0.47460  0.04220  0.96460  Biso   1.000  H
  C97      1.0000 0.62560  0.00879  0.90150  Biso   1.000  C
  H63      1.0000 0.69170  0.01000  0.89140  Biso   1.000  H
  C98      1.0000 0.57070  0.98431  0.88870  Biso   1.000  C
  H64      1.0000 0.59790  0.96970  0.86880  Biso   1.000  H
  C99      1.0000 0.45930  0.88509  0.83960  Biso   1.000  C
  C100     1.0000 0.56050  0.88444  0.83810  Biso   1.000  C
  H65      1.0000 0.59710  0.90000  0.85170  Biso   1.000  H
  C101     1.0000 0.60830  0.86131  0.81700  Biso   1.000  C
  H66      1.0000 0.67780  0.86070  0.81750  Biso   1.000  H
  C102     1.0000 0.46220  0.83996  0.79720  Biso   1.000  C
  H67      1.0000 0.42770  0.82430  0.78290  Biso   1.000  H
  C103     1.0000 0.40890  0.86240  0.81910  Biso   1.000  C
  H68      1.0000 0.33950  0.86190  0.81970  Biso   1.000  H
  C104     1.0000 0.17140  0.92781  0.90930  Biso   1.000  C
  C105     1.0000 0.11660  0.90297  0.89890  Biso   1.000  C
  H69      1.0000 0.14360  0.88810  0.87940  Biso   1.000  H
  C106     1.0000 0.02450  0.89973  0.91640  Biso   1.000  C
  H70      1.0000 0.98880  0.88250  0.90880  Biso   1.000  H
  C107     1.0000 0.03420  0.94387  0.95330  Biso   1.000  C
  H71      1.0000 0.00500  0.95860  0.97230  Biso   1.000  H
  C108     1.0000 0.12680  0.94859  0.93720  Biso   1.000  C
  H72      1.0000 0.16050  0.96610  0.94520  Biso   1.000  H
  N25      1.0000 0.56180  0.17009  0.75780  Biso   1.000  N
  N26      1.0000 0.55880  0.17415  0.67460  Biso   1.000  N
  N27      1.0000 0.59560  0.12833  0.71070  Biso   1.000  N
  N28      1.0000 0.63130  0.09164  0.87610  Biso   1.000  N
  N29      1.0000 0.43580  0.27137  0.73390  Biso   1.000  N
  N30      1.0000 0.61740  0.10608  0.53800  Biso   1.000  N
  N31      1.0000 0.46330  0.93382  0.87210  Biso   1.000  N
  N32      1.0000 0.31280  0.90754  0.87140  Biso   1.000  N
  N33      1.0000 0.32080  0.95551  0.90430  Biso   1.000  N
  N34      1.0000 0.58990  0.03017  0.92700  Biso   1.000  N
  N35      1.0000 0.55960  0.83993  0.79590  Biso   1.000  N
  N36      1.0000 0.98220  0.92002  0.94420  Biso   1.000  N
  Zn10     1.0000 0.83055  0.93177  0.43676  Biso   1.000  Zn
  Zn11     1.0000 0.13817  0.68994  0.24314  Biso   1.000  Zn
  Zn12     1.0000 0.84718  0.91263  0.97382  Biso   1.000  Zn
  I19      1.0000 0.90234  0.90340  0.50462  Biso   1.000  I
  I20      1.0000 0.65060  0.94467  0.42333  Biso   1.000  I
  I21      1.0000 0.30099  0.69673  0.20119  Biso   1.000  I
  I22      1.0000 0.13409  0.67530  0.32904  Biso   1.000  I
  I23      1.0000 0.77007  0.96257  0.98980  Biso   1.000  I
  I24      1.0000 0.76145  0.87204  0.92827  Biso   1.000  I
  C109     1.0000 0.91530  0.85861  0.25140  Biso   1.000  C
  C110     1.0000 0.95280  0.81516  0.21760  Biso   1.000  C
  C111     1.0000 0.91700  0.85444  0.17270  Biso   1.000  C
  C112     1.0000 0.90150  0.87598  0.29540  Biso   1.000  C
  C113     1.0000 0.87480  0.90527  0.29320  Biso   1.000  C
  H73      1.0000 0.86710  0.91470  0.26370  Biso   1.000  H
  C114     1.0000 0.85980  0.92032  0.33400  Biso   1.000  C
  H74      1.0000 0.84200  0.94040  0.33200  Biso   1.000  H
  C115     1.0000 0.89630  0.88017  0.37870  Biso   1.000  C
  H75      1.0000 0.90440  0.87150  0.40890  Biso   1.000  H
  C116     1.0000 0.91340  0.86330  0.33950  Biso   1.000  C
  H76      1.0000 0.93300  0.84340  0.34240  Biso   1.000  H
  C117     1.0000 0.98680  0.78431  0.22290  Biso   1.000  C
  C118     1.0000 0.98190  0.77043  0.26550  Biso   1.000  C
  H77      1.0000 0.95210  0.77990  0.29160  Biso   1.000  H
  C119     1.0000 0.02080  0.74233  0.27020  Biso   1.000  C
  H78      1.0000 0.01660  0.73260  0.29970  Biso   1.000  H
  C120     1.0000 0.06660  0.74193  0.19250  Biso   1.000  C
  H79      1.0000 0.09540  0.73200  0.16660  Biso   1.000  H
  C121     1.0000 0.02840  0.77001  0.18560  Biso   1.000  C
  H80      1.0000 0.03120  0.77900  0.15550  Biso   1.000  H
  C122     1.0000 0.90690  0.86836  0.12590  Biso   1.000  C
  C123     1.0000 0.90730  0.85144  0.08500  Biso   1.000  C
  H81      1.0000 0.91550  0.83080  0.08650  Biso   1.000  H
  C124     1.0000 0.89570  0.86530  0.04250  Biso   1.000  C
  H82      1.0000 0.89710  0.85370  0.01480  Biso   1.000  H
  C125     1.0000 0.88270  0.91037  0.07770  Biso   1.000  C
  H83      1.0000 0.87350  0.93100  0.07530  Biso   1.000  H
  C126     1.0000 0.89580  0.89798  0.12160  Biso   1.000  C
  H84      1.0000 0.89710  0.91010  0.14880  Biso   1.000  H
  C127     1.0000 0.08260  0.04454  0.39250  Biso   1.000  C
  C128     1.0000 0.09140  0.08999  0.36170  Biso   1.000  C
  C129     1.0000 0.22540  0.06946  0.39340  Biso   1.000  C
  C130     1.0000 0.02410  0.01833  0.40540  Biso   1.000  C
  C131     1.0000 0.06050  0.99648  0.43350  Biso   1.000  C
  H85      1.0000 0.12530  0.99760  0.44550  Biso   1.000  H
  C132     1.0000 0.00090  0.97261  0.44430  Biso   1.000  C
  H86      1.0000 0.02540  0.95780  0.46460  Biso   1.000  H
  C133     1.0000 0.87440  0.99121  0.40150  Biso   1.000  C
  H87      1.0000 0.80830  0.99000  0.39140  Biso   1.000  H
  C134     1.0000 0.92930  0.01569  0.38870  Biso   1.000  C
  H88      1.0000 0.90210  0.03030  0.36880  Biso   1.000  H
  C135     1.0000 0.04070  0.11491  0.33960  Biso   1.000  C
  C136     1.0000 0.93950  0.11556  0.33810  Biso   1.000  C
  H89      1.0000 0.90290  0.10000  0.35170  Biso   1.000  H
  C137     1.0000 0.89170  0.13869  0.31700  Biso   1.000  C
  H90      1.0000 0.82220  0.13930  0.31750  Biso   1.000  H
  C138     1.0000 0.03780  0.16004  0.29720  Biso   1.000  C
  H91      1.0000 0.07230  0.17570  0.28290  Biso   1.000  H
  C139     1.0000 0.09110  0.13760  0.31910  Biso   1.000  C
  H92      1.0000 0.16050  0.13810  0.31970  Biso   1.000  H
  C140     1.0000 0.32860  0.07219  0.40930  Biso   1.000  C
  C141     1.0000 0.38340  0.09703  0.39890  Biso   1.000  C
  H93      1.0000 0.35640  0.11190  0.37940  Biso   1.000  H
  C142     1.0000 0.47550  0.10027  0.41640  Biso   1.000  C
  H94      1.0000 0.51120  0.11750  0.40880  Biso   1.000  H
  C143     1.0000 0.46580  0.05613  0.45330  Biso   1.000  C
  H95      1.0000 0.49500  0.04140  0.47230  Biso   1.000  H
  C144     1.0000 0.37320  0.05141  0.43720  Biso   1.000  C
  H96      1.0000 0.33950  0.03390  0.44520  Biso   1.000  H
  N37      1.0000 0.93820  0.82991  0.25780  Biso   1.000  N
  N38      1.0000 0.94120  0.82585  0.17460  Biso   1.000  N
  N39      1.0000 0.90440  0.87167  0.21070  Biso   1.000  N
  N40      1.0000 0.86870  0.90836  0.37610  Biso   1.000  N
  N41      1.0000 0.06420  0.72863  0.23390  Biso   1.000  N
  N42      1.0000 0.88260  0.89392  0.03800  Biso   1.000  N
  N43      1.0000 0.03670  0.06618  0.37210  Biso   1.000  N
  N44      1.0000 0.18720  0.09246  0.37140  Biso   1.000  N
  N45      1.0000 0.17920  0.04449  0.40430  Biso   1.000  N
  N46      1.0000 0.91010  0.96983  0.42700  Biso   1.000  N
  N47      1.0000 0.94040  0.16007  0.29590  Biso   1.000  N
  N48      1.0000 0.51780  0.07998  0.44420  Biso   1.000  N
  Zn13     1.0000 0.66945  0.43177  0.43676  Biso   1.000  Zn
  Zn14     1.0000 0.36183  0.18994  0.24314  Biso   1.000  Zn
  Zn15     1.0000 0.65282  0.41263  0.97382  Biso   1.000  Zn
  I25      1.0000 0.59766  0.40340  0.50462  Biso   1.000  I
  I26      1.0000 0.84940  0.44467  0.42333  Biso   1.000  I
  I27      1.0000 0.19901  0.19673  0.20119  Biso   1.000  I
  I28      1.0000 0.36591  0.17530  0.32904  Biso   1.000  I
  I29      1.0000 0.72993  0.46257  0.98980  Biso   1.000  I
  I30      1.0000 0.73855  0.37204  0.92827  Biso   1.000  I
  C145     1.0000 0.58470  0.35861  0.25140  Biso   1.000  C
  C146     1.0000 0.54720  0.31516  0.21760  Biso   1.000  C
  C147     1.0000 0.58300  0.35444  0.17270  Biso   1.000  C
  C148     1.0000 0.59850  0.37598  0.29540  Biso   1.000  C
  C149     1.0000 0.62520  0.40527  0.29320  Biso   1.000  C
  H97      1.0000 0.63290  0.41470  0.26370  Biso   1.000  H
  C150     1.0000 0.64020  0.42032  0.33400  Biso   1.000  C
  H98      1.0000 0.65800  0.44040  0.33200  Biso   1.000  H
  C151     1.0000 0.60370  0.38017  0.37870  Biso   1.000  C
  H99      1.0000 0.59560  0.37150  0.40890  Biso   1.000  H
  C152     1.0000 0.58660  0.36330  0.33950  Biso   1.000  C
  H100     1.0000 0.56700  0.34340  0.34240  Biso   1.000  H
  C153     1.0000 0.51320  0.28431  0.22290  Biso   1.000  C
  C154     1.0000 0.51810  0.27043  0.26550  Biso   1.000  C
  H101     1.0000 0.54790  0.27990  0.29160  Biso   1.000  H
  C155     1.0000 0.47920  0.24233  0.27020  Biso   1.000  C
  H102     1.0000 0.48340  0.23260  0.29970  Biso   1.000  H
  C156     1.0000 0.43340  0.24193  0.19250  Biso   1.000  C
  H103     1.0000 0.40460  0.23200  0.16660  Biso   1.000  H
  C157     1.0000 0.47160  0.27001  0.18560  Biso   1.000  C
  H104     1.0000 0.46880  0.27900  0.15550  Biso   1.000  H
  C158     1.0000 0.59310  0.36836  0.12590  Biso   1.000  C
  C159     1.0000 0.59270  0.35144  0.08500  Biso   1.000  C
  H105     1.0000 0.58450  0.33080  0.08650  Biso   1.000  H
  C160     1.0000 0.60430  0.36530  0.04250  Biso   1.000  C
  H106     1.0000 0.60290  0.35370  0.01480  Biso   1.000  H
  C161     1.0000 0.61730  0.41037  0.07770  Biso   1.000  C
  H107     1.0000 0.62650  0.43100  0.07530  Biso   1.000  H
  C162     1.0000 0.60420  0.39798  0.12160  Biso   1.000  C
  H108     1.0000 0.60290  0.41010  0.14880  Biso   1.000  H
  C163     1.0000 0.41740  0.54454  0.39250  Biso   1.000  C
  C164     1.0000 0.40860  0.58999  0.36170  Biso   1.000  C
  C165     1.0000 0.27460  0.56946  0.39340  Biso   1.000  C
  C166     1.0000 0.47590  0.51833  0.40540  Biso   1.000  C
  C167     1.0000 0.43950  0.49648  0.43350  Biso   1.000  C
  H109     1.0000 0.37470  0.49760  0.44550  Biso   1.000  H
  C168     1.0000 0.49910  0.47261  0.44430  Biso   1.000  C
  H110     1.0000 0.47460  0.45780  0.46460  Biso   1.000  H
  C169     1.0000 0.62560  0.49121  0.40150  Biso   1.000  C
  H111     1.0000 0.69170  0.49000  0.39140  Biso   1.000  H
  C170     1.0000 0.57070  0.51569  0.38870  Biso   1.000  C
  H112     1.0000 0.59790  0.53030  0.36880  Biso   1.000  H
  C171     1.0000 0.45930  0.61491  0.33960  Biso   1.000  C
  C172     1.0000 0.56050  0.61556  0.33810  Biso   1.000  C
  H113     1.0000 0.59710  0.60000  0.35170  Biso   1.000  H
  C173     1.0000 0.60830  0.63869  0.31700  Biso   1.000  C
  H114     1.0000 0.67780  0.63930  0.31750  Biso   1.000  H
  C174     1.0000 0.46220  0.66004  0.29720  Biso   1.000  C
  H115     1.0000 0.42770  0.67570  0.28290  Biso   1.000  H
  C175     1.0000 0.40890  0.63760  0.31910  Biso   1.000  C
  H116     1.0000 0.33950  0.63810  0.31970  Biso   1.000  H
  C176     1.0000 0.17140  0.57219  0.40930  Biso   1.000  C
  C177     1.0000 0.11660  0.59703  0.39890  Biso   1.000  C
  H117     1.0000 0.14360  0.61190  0.37940  Biso   1.000  H
  C178     1.0000 0.02450  0.60027  0.41640  Biso   1.000  C
  H118     1.0000 0.98880  0.61750  0.40880  Biso   1.000  H
  C179     1.0000 0.03420  0.55613  0.45330  Biso   1.000  C
  H119     1.0000 0.00500  0.54140  0.47230  Biso   1.000  H
  C180     1.0000 0.12680  0.55141  0.43720  Biso   1.000  C
  H120     1.0000 0.16050  0.53390  0.44520  Biso   1.000  H
  N49      1.0000 0.56180  0.32991  0.25780  Biso   1.000  N
  N50      1.0000 0.55880  0.32585  0.17460  Biso   1.000  N
  N51      1.0000 0.59560  0.37167  0.21070  Biso   1.000  N
  N52      1.0000 0.63130  0.40836  0.37610  Biso   1.000  N
  N53      1.0000 0.43580  0.22863  0.23390  Biso   1.000  N
  N54      1.0000 0.61740  0.39392  0.03800  Biso   1.000  N
  N55      1.0000 0.46330  0.56618  0.37210  Biso   1.000  N
  N56      1.0000 0.31280  0.59246  0.37140  Biso   1.000  N
  N57      1.0000 0.32080  0.54449  0.40430  Biso   1.000  N
  N58      1.0000 0.58990  0.46983  0.42700  Biso   1.000  N
  N59      1.0000 0.55960  0.66007  0.29590  Biso   1.000  N
  N60      1.0000 0.98220  0.57998  0.44420  Biso   1.000  N
  Zn16     1.0000 0.83055  0.56823  0.93676  Biso   1.000  Zn
  Zn17     1.0000 0.13817  0.81006  0.74314  Biso   1.000  Zn
  Zn18     1.0000 0.84718  0.58737  0.47382  Biso   1.000  Zn
  I31      1.0000 0.90234  0.59660  0.00462  Biso   1.000  I
  I32      1.0000 0.65060  0.55533  0.92333  Biso   1.000  I
  I33      1.0000 0.30099  0.80327  0.70119  Biso   1.000  I
  I34      1.0000 0.13409  0.82470  0.82904  Biso   1.000  I
  I35      1.0000 0.77007  0.53743  0.48980  Biso   1.000  I
  I36      1.0000 0.76145  0.62796  0.42827  Biso   1.000  I
  C181     1.0000 0.91530  0.64139  0.75140  Biso   1.000  C
  C182     1.0000 0.95280  0.68484  0.71760  Biso   1.000  C
  C183     1.0000 0.91700  0.64556  0.67270  Biso   1.000  C
  C184     1.0000 0.90150  0.62402  0.79540  Biso   1.000  C
  C185     1.0000 0.87480  0.59473  0.79320  Biso   1.000  C
  H121     1.0000 0.86710  0.58530  0.76370  Biso   1.000  H
  C186     1.0000 0.85980  0.57968  0.83400  Biso   1.000  C
  H122     1.0000 0.84200  0.55960  0.83200  Biso   1.000  H
  C187     1.0000 0.89630  0.61983  0.87870  Biso   1.000  C
  H123     1.0000 0.90440  0.62850  0.90890  Biso   1.000  H
  C188     1.0000 0.91340  0.63670  0.83950  Biso   1.000  C
  H124     1.0000 0.93300  0.65660  0.84240  Biso   1.000  H
  C189     1.0000 0.98680  0.71569  0.72290  Biso   1.000  C
  C190     1.0000 0.98190  0.72957  0.76550  Biso   1.000  C
  H125     1.0000 0.95210  0.72010  0.79160  Biso   1.000  H
  C191     1.0000 0.02080  0.75767  0.77020  Biso   1.000  C
  H126     1.0000 0.01660  0.76740  0.79970  Biso   1.000  H
  C192     1.0000 0.06660  0.75807  0.69250  Biso   1.000  C
  H127     1.0000 0.09540  0.76800  0.66660  Biso   1.000  H
  C193     1.0000 0.02840  0.72999  0.68560  Biso   1.000  C
  H128     1.0000 0.03120  0.72100  0.65550  Biso   1.000  H
  C194     1.0000 0.90690  0.63164  0.62590  Biso   1.000  C
  C195     1.0000 0.90730  0.64856  0.58500  Biso   1.000  C
  H129     1.0000 0.91550  0.66920  0.58650  Biso   1.000  H
  C196     1.0000 0.89570  0.63470  0.54250  Biso   1.000  C
  H130     1.0000 0.89710  0.64630  0.51480  Biso   1.000  H
  C197     1.0000 0.88270  0.58963  0.57770  Biso   1.000  C
  H131     1.0000 0.87350  0.56900  0.57530  Biso   1.000  H
  C198     1.0000 0.89580  0.60202  0.62160  Biso   1.000  C
  H132     1.0000 0.89710  0.58990  0.64880  Biso   1.000  H
  C199     1.0000 0.08260  0.45546  0.89250  Biso   1.000  C
  C200     1.0000 0.09140  0.41001  0.86170  Biso   1.000  C
  C201     1.0000 0.22540  0.43054  0.89340  Biso   1.000  C
  C202     1.0000 0.02410  0.48167  0.90540  Biso   1.000  C
  C203     1.0000 0.06050  0.50352  0.93350  Biso   1.000  C
  H133     1.0000 0.12530  0.50240  0.94550  Biso   1.000  H
  C204     1.0000 0.00090  0.52739  0.94430  Biso   1.000  C
  H134     1.0000 0.02540  0.54220  0.96460  Biso   1.000  H
  C205     1.0000 0.87440  0.50879  0.90150  Biso   1.000  C
  H135     1.0000 0.80830  0.51000  0.89140  Biso   1.000  H
  C206     1.0000 0.92930  0.48431  0.88870  Biso   1.000  C
  H136     1.0000 0.90210  0.46970  0.86880  Biso   1.000  H
  C207     1.0000 0.04070  0.38509  0.83960  Biso   1.000  C
  C208     1.0000 0.93950  0.38444  0.83810  Biso   1.000  C
  H137     1.0000 0.90290  0.40000  0.85170  Biso   1.000  H
  C209     1.0000 0.89170  0.36131  0.81700  Biso   1.000  C
  H138     1.0000 0.82220  0.36070  0.81750  Biso   1.000  H
  C210     1.0000 0.03780  0.33996  0.79720  Biso   1.000  C
  H139     1.0000 0.07230  0.32430  0.78290  Biso   1.000  H
  C211     1.0000 0.09110  0.36240  0.81910  Biso   1.000  C
  H140     1.0000 0.16050  0.36190  0.81970  Biso   1.000  H
  C212     1.0000 0.32860  0.42781  0.90930  Biso   1.000  C
  C213     1.0000 0.38340  0.40297  0.89890  Biso   1.000  C
  H141     1.0000 0.35640  0.38810  0.87940  Biso   1.000  H
  C214     1.0000 0.47550  0.39973  0.91640  Biso   1.000  C
  H142     1.0000 0.51120  0.38250  0.90880  Biso   1.000  H
  C215     1.0000 0.46580  0.44387  0.95330  Biso   1.000  C
  H143     1.0000 0.49500  0.45860  0.97230  Biso   1.000  H
  C216     1.0000 0.37320  0.44859  0.93720  Biso   1.000  C
  H144     1.0000 0.33950  0.46610  0.94520  Biso   1.000  H
  N61      1.0000 0.93820  0.67009  0.75780  Biso   1.000  N
  N62      1.0000 0.94120  0.67415  0.67460  Biso   1.000  N
  N63      1.0000 0.90440  0.62833  0.71070  Biso   1.000  N
  N64      1.0000 0.86870  0.59164  0.87610  Biso   1.000  N
  N65      1.0000 0.06420  0.77137  0.73390  Biso   1.000  N
  N66      1.0000 0.88260  0.60608  0.53800  Biso   1.000  N
  N67      1.0000 0.03670  0.43382  0.87210  Biso   1.000  N
  N68      1.0000 0.18720  0.40754  0.87140  Biso   1.000  N
  N69      1.0000 0.17920  0.45551  0.90430  Biso   1.000  N
  N70      1.0000 0.91010  0.53017  0.92700  Biso   1.000  N
  N71      1.0000 0.94040  0.33993  0.79590  Biso   1.000  N
  N72      1.0000 0.51780  0.42002  0.94420  Biso   1.000  N
  Zn19     1.0000 0.33055  0.93177  0.06324  Biso   1.000  Zn
  Zn20     1.0000 0.63817  0.68994  0.25686  Biso   1.000  Zn
  Zn21     1.0000 0.34718  0.91263  0.52618  Biso   1.000  Zn
  I37      1.0000 0.40234  0.90340  0.99538  Biso   1.000  I
  I38      1.0000 0.15060  0.94467  0.07667  Biso   1.000  I
  I39      1.0000 0.80099  0.69673  0.29881  Biso   1.000  I
  I40      1.0000 0.63409  0.67530  0.17096  Biso   1.000  I
  I41      1.0000 0.27007  0.96257  0.51020  Biso   1.000  I
  I42      1.0000 0.26145  0.87204  0.57173  Biso   1.000  I
  C217     1.0000 0.41530  0.85861  0.24860  Biso   1.000  C
  C218     1.0000 0.45280  0.81516  0.28240  Biso   1.000  C
  C219     1.0000 0.41700  0.85444  0.32730  Biso   1.000  C
  C220     1.0000 0.40150  0.87598  0.20460  Biso   1.000  C
  C221     1.0000 0.37480  0.90527  0.20680  Biso   1.000  C
  H145     1.0000 0.36710  0.91470  0.23630  Biso   1.000  H
  C222     1.0000 0.35980  0.92032  0.16600  Biso   1.000  C
  H146     1.0000 0.34200  0.94040  0.16800  Biso   1.000  H
  C223     1.0000 0.39630  0.88017  0.12130  Biso   1.000  C
  H147     1.0000 0.40440  0.87150  0.09110  Biso   1.000  H
  C224     1.0000 0.41340  0.86330  0.16050  Biso   1.000  C
  H148     1.0000 0.43300  0.84340  0.15760  Biso   1.000  H
  C225     1.0000 0.48680  0.78431  0.27710  Biso   1.000  C
  C226     1.0000 0.48190  0.77043  0.23450  Biso   1.000  C
  H149     1.0000 0.45210  0.77990  0.20840  Biso   1.000  H
  C227     1.0000 0.52080  0.74233  0.22980  Biso   1.000  C
  H150     1.0000 0.51660  0.73260  0.20030  Biso   1.000  H
  C228     1.0000 0.56660  0.74193  0.30750  Biso   1.000  C
  H151     1.0000 0.59540  0.73200  0.33340  Biso   1.000  H
  C229     1.0000 0.52840  0.77001  0.31440  Biso   1.000  C
  H152     1.0000 0.53120  0.77900  0.34450  Biso   1.000  H
  C230     1.0000 0.40690  0.86836  0.37410  Biso   1.000  C
  C231     1.0000 0.40730  0.85144  0.41500  Biso   1.000  C
  H153     1.0000 0.41550  0.83080  0.41350  Biso   1.000  H
  C232     1.0000 0.39570  0.86530  0.45750  Biso   1.000  C
  H154     1.0000 0.39710  0.85370  0.48520  Biso   1.000  H
  C233     1.0000 0.38270  0.91037  0.42230  Biso   1.000  C
  H155     1.0000 0.37350  0.93100  0.42470  Biso   1.000  H
  C234     1.0000 0.39580  0.89798  0.37840  Biso   1.000  C
  H156     1.0000 0.39710  0.91010  0.35120  Biso   1.000  H
  C235     1.0000 0.58260  0.04454  0.10750  Biso   1.000  C
  C236     1.0000 0.59140  0.08999  0.13830  Biso   1.000  C
  C237     1.0000 0.72540  0.06946  0.10660  Biso   1.000  C
  C238     1.0000 0.52410  0.01833  0.09460  Biso   1.000  C
  C239     1.0000 0.56050  0.99648  0.06650  Biso   1.000  C
  H157     1.0000 0.62530  0.99760  0.05450  Biso   1.000  H
  C240     1.0000 0.50090  0.97261  0.05570  Biso   1.000  C
  H158     1.0000 0.52540  0.95780  0.03540  Biso   1.000  H
  C241     1.0000 0.37440  0.99121  0.09850  Biso   1.000  C
  H159     1.0000 0.30830  0.99000  0.10860  Biso   1.000  H
  C242     1.0000 0.42930  0.01569  0.11130  Biso   1.000  C
  H160     1.0000 0.40210  0.03030  0.13120  Biso   1.000  H
  C243     1.0000 0.54070  0.11491  0.16040  Biso   1.000  C
  C244     1.0000 0.43950  0.11556  0.16190  Biso   1.000  C
  H161     1.0000 0.40290  0.10000  0.14830  Biso   1.000  H
  C245     1.0000 0.39170  0.13869  0.18300  Biso   1.000  C
  H162     1.0000 0.32220  0.13930  0.18250  Biso   1.000  H
  C246     1.0000 0.53780  0.16004  0.20280  Biso   1.000  C
  H163     1.0000 0.57230  0.17570  0.21710  Biso   1.000  H
  C247     1.0000 0.59110  0.13760  0.18090  Biso   1.000  C
  H164     1.0000 0.66050  0.13810  0.18030  Biso   1.000  H
  C248     1.0000 0.82860  0.07219  0.09070  Biso   1.000  C
  C249     1.0000 0.88340  0.09703  0.10110  Biso   1.000  C
  H165     1.0000 0.85640  0.11190  0.12060  Biso   1.000  H
  C250     1.0000 0.97550  0.10027  0.08360  Biso   1.000  C
  H166     1.0000 0.01120  0.11750  0.09120  Biso   1.000  H
  C251     1.0000 0.96580  0.05613  0.04670  Biso   1.000  C
  H167     1.0000 0.99500  0.04140  0.02770  Biso   1.000  H
  C252     1.0000 0.87320  0.05141  0.06280  Biso   1.000  C
  H168     1.0000 0.83950  0.03390  0.05480  Biso   1.000  H
  N73      1.0000 0.43820  0.82991  0.24220  Biso   1.000  N
  N74      1.0000 0.44120  0.82585  0.32540  Biso   1.000  N
  N75      1.0000 0.40440  0.87167  0.28930  Biso   1.000  N
  N76      1.0000 0.36870  0.90836  0.12390  Biso   1.000  N
  N77      1.0000 0.56420  0.72863  0.26610  Biso   1.000  N
  N78      1.0000 0.38260  0.89392  0.46200  Biso   1.000  N
  N79      1.0000 0.53670  0.06618  0.12790  Biso   1.000  N
  N80      1.0000 0.68720  0.09246  0.12860  Biso   1.000  N
  N81      1.0000 0.67920  0.04449  0.09570  Biso   1.000  N
  N82      1.0000 0.41010  0.96983  0.07300  Biso   1.000  N
  N83      1.0000 0.44040  0.16007  0.20410  Biso   1.000  N
  N84      1.0000 0.01780  0.07998  0.05580  Biso   1.000  N
  Zn22     1.0000 0.16945  0.06823  0.56324  Biso   1.000  Zn
  Zn23     1.0000 0.86183  0.31006  0.75686  Biso   1.000  Zn
  Zn24     1.0000 0.15282  0.08737  0.02618  Biso   1.000  Zn
  I43      1.0000 0.09766  0.09660  0.49538  Biso   1.000  I
  I44      1.0000 0.34940  0.05533  0.57667  Biso   1.000  I
  I45      1.0000 0.69901  0.30327  0.79881  Biso   1.000  I
  I46      1.0000 0.86591  0.32470  0.67096  Biso   1.000  I
  I47      1.0000 0.22993  0.03743  0.01020  Biso   1.000  I
  I48      1.0000 0.23855  0.12796  0.07173  Biso   1.000  I
  C253     1.0000 0.08470  0.14139  0.74860  Biso   1.000  C
  C254     1.0000 0.04720  0.18484  0.78240  Biso   1.000  C
  C255     1.0000 0.08300  0.14556  0.82730  Biso   1.000  C
  C256     1.0000 0.09850  0.12402  0.70460  Biso   1.000  C
  C257     1.0000 0.12520  0.09473  0.70680  Biso   1.000  C
  H169     1.0000 0.13290  0.08530  0.73630  Biso   1.000  H
  C258     1.0000 0.14020  0.07968  0.66600  Biso   1.000  C
  H170     1.0000 0.15800  0.05960  0.66800  Biso   1.000  H
  C259     1.0000 0.10370  0.11983  0.62130  Biso   1.000  C
  H171     1.0000 0.09560  0.12850  0.59110  Biso   1.000  H
  C260     1.0000 0.08660  0.13670  0.66050  Biso   1.000  C
  H172     1.0000 0.06700  0.15660  0.65760  Biso   1.000  H
  C261     1.0000 0.01320  0.21569  0.77710  Biso   1.000  C
  C262     1.0000 0.01810  0.22957  0.73450  Biso   1.000  C
  H173     1.0000 0.04790  0.22010  0.70840  Biso   1.000  H
  C263     1.0000 0.97920  0.25767  0.72980  Biso   1.000  C
  H174     1.0000 0.98340  0.26740  0.70030  Biso   1.000  H
  C264     1.0000 0.93340  0.25807  0.80750  Biso   1.000  C
  H175     1.0000 0.90460  0.26800  0.83340  Biso   1.000  H
  C265     1.0000 0.97160  0.22999  0.81440  Biso   1.000  C
  H176     1.0000 0.96880  0.22100  0.84450  Biso   1.000  H
  C266     1.0000 0.09310  0.13164  0.87410  Biso   1.000  C
  C267     1.0000 0.09270  0.14856  0.91500  Biso   1.000  C
  H177     1.0000 0.08450  0.16920  0.91350  Biso   1.000  H
  C268     1.0000 0.10430  0.13470  0.95750  Biso   1.000  C
  H178     1.0000 0.10290  0.14630  0.98520  Biso   1.000  H
  C269     1.0000 0.11730  0.08963  0.92230  Biso   1.000  C
  H179     1.0000 0.12650  0.06900  0.92470  Biso   1.000  H
  C270     1.0000 0.10420  0.10202  0.87840  Biso   1.000  C
  H180     1.0000 0.10290  0.08990  0.85120  Biso   1.000  H
  C271     1.0000 0.91740  0.95546  0.60750  Biso   1.000  C
  C272     1.0000 0.90860  0.91001  0.63830  Biso   1.000  C
  C273     1.0000 0.77460  0.93054  0.60660  Biso   1.000  C
  C274     1.0000 0.97590  0.98167  0.59460  Biso   1.000  C
  C275     1.0000 0.93950  0.00352  0.56650  Biso   1.000  C
  H181     1.0000 0.87470  0.00240  0.55450  Biso   1.000  H
  C276     1.0000 0.99910  0.02739  0.55570  Biso   1.000  C
  H182     1.0000 0.97460  0.04220  0.53540  Biso   1.000  H
  C277     1.0000 0.12560  0.00879  0.59850  Biso   1.000  C
  H183     1.0000 0.19170  0.01000  0.60860  Biso   1.000  H
  C278     1.0000 0.07070  0.98431  0.61130  Biso   1.000  C
  H184     1.0000 0.09790  0.96970  0.63120  Biso   1.000  H
  C279     1.0000 0.95930  0.88509  0.66040  Biso   1.000  C
  C280     1.0000 0.06050  0.88444  0.66190  Biso   1.000  C
  H185     1.0000 0.09710  0.90000  0.64830  Biso   1.000  H
  C281     1.0000 0.10830  0.86131  0.68300  Biso   1.000  C
  H186     1.0000 0.17780  0.86070  0.68250  Biso   1.000  H
  C282     1.0000 0.96220  0.83996  0.70280  Biso   1.000  C
  H187     1.0000 0.92770  0.82430  0.71710  Biso   1.000  H
  C283     1.0000 0.90890  0.86240  0.68090  Biso   1.000  C
  H188     1.0000 0.83950  0.86190  0.68030  Biso   1.000  H
  C284     1.0000 0.67140  0.92781  0.59070  Biso   1.000  C
  C285     1.0000 0.61660  0.90297  0.60110  Biso   1.000  C
  H189     1.0000 0.64360  0.88810  0.62060  Biso   1.000  H
  C286     1.0000 0.52450  0.89973  0.58360  Biso   1.000  C
  H190     1.0000 0.48880  0.88250  0.59120  Biso   1.000  H
  C287     1.0000 0.53420  0.94387  0.54670  Biso   1.000  C
  H191     1.0000 0.50500  0.95860  0.52770  Biso   1.000  H
  C288     1.0000 0.62680  0.94859  0.56280  Biso   1.000  C
  H192     1.0000 0.66050  0.96610  0.55480  Biso   1.000  H
  N85      1.0000 0.06180  0.17009  0.74220  Biso   1.000  N
  N86      1.0000 0.05880  0.17415  0.82540  Biso   1.000  N
  N87      1.0000 0.09560  0.12833  0.78930  Biso   1.000  N
  N88      1.0000 0.13130  0.09164  0.62390  Biso   1.000  N
  N89      1.0000 0.93580  0.27137  0.76610  Biso   1.000  N
  N90      1.0000 0.11740  0.10608  0.96200  Biso   1.000  N
  N91      1.0000 0.96330  0.93382  0.62790  Biso   1.000  N
  N92      1.0000 0.81280  0.90754  0.62860  Biso   1.000  N
  N93      1.0000 0.82080  0.95551  0.59570  Biso   1.000  N
  N94      1.0000 0.08990  0.03017  0.57300  Biso   1.000  N
  N95      1.0000 0.05960  0.83993  0.70410  Biso   1.000  N
  N96      1.0000 0.48220  0.92002  0.55580  Biso   1.000  N
