data_image0
_cell_length_a       27.806
_cell_length_b       13.8091
_cell_length_c       45.1378
_cell_angle_alpha    90
_cell_angle_beta     90
_cell_angle_gamma    90

_symmetry_space_group_name_H-M    "P 1"
_symmetry_int_tables_number       1

loop_
  _symmetry_equiv_pos_as_xyz
  'x, y, z'

loop_
  _atom_site_label
  _atom_site_occupancy
  _atom_site_fract_x
  _atom_site_fract_y
  _atom_site_fract_z
  _atom_site_thermal_displace_type
  _atom_site_B_iso_or_equiv
  _atom_site_type_symbol
  Zn1      1.0000 0.47652  0.12844  0.41532  Biso   1.000  Zn
  Zn2      1.0000 0.73880  0.83092  0.18533  Biso   1.000  Zn
  Zn3      1.0000 0.95148  0.14518  0.42169  Biso   1.000  Zn
  I1       1.0000 0.49452  0.20158  0.46633  Biso   1.000  I
  I2       1.0000 0.43073  0.21682  0.37528  Biso   1.000  I
  I3       1.0000 0.69389  0.67095  0.19226  Biso   1.000  I
  I4       1.0000 0.82676  0.83229  0.17010  Biso   1.000  I
  I5       1.0000 0.94575  0.32757  0.42694  Biso   1.000  I
  I6       1.0000 0.01626  0.05227  0.39445  Biso   1.000  I
  C1       1.0000 0.67660  0.04710  0.35344  Biso   1.000  C
  C2       1.0000 0.71980  0.01060  0.31267  Biso   1.000  C
  C3       1.0000 0.75690  0.05020  0.35504  Biso   1.000  C
  C4       1.0000 0.62930  0.06000  0.36850  Biso   1.000  C
  C5       1.0000 0.62650  0.08060  0.39786  Biso   1.000  C
  H1       1.0000 0.65510  0.08420  0.40930  Biso   1.000  H
  C6       1.0000 0.58330  0.09640  0.41123  Biso   1.000  C
  H2       1.0000 0.58260  0.11200  0.43170  Biso   1.000  H
  C7       1.0000 0.54460  0.06770  0.36730  Biso   1.000  C
  H3       1.0000 0.51550  0.06250  0.35640  Biso   1.000  H
  C8       1.0000 0.58660  0.05140  0.35276  Biso   1.000  C
  H4       1.0000 0.58670  0.03460  0.33230  Biso   1.000  H
  C9       1.0000 0.72360  0.97750  0.28164  Biso   1.000  C
  C10      1.0000 0.68300  0.94050  0.26716  Biso   1.000  C
  H5       1.0000 0.65240  0.94000  0.27640  Biso   1.000  H
  C11      1.0000 0.68960  0.90380  0.23823  Biso   1.000  C
  H6       1.0000 0.66260  0.87730  0.22830  Biso   1.000  H
  C12      1.0000 0.76920  0.94240  0.23828  Biso   1.000  C
  H7       1.0000 0.79910  0.94470  0.22810  Biso   1.000  H
  C13      1.0000 0.76690  0.97830  0.26678  Biso   1.000  C
  H8       1.0000 0.79490  0.00340  0.27610  Biso   1.000  H
  C14      1.0000 0.80240  0.06700  0.37145  Biso   1.000  C
  C15      1.0000 0.84690  0.05800  0.35748  Biso   1.000  C
  H9       1.0000 0.84840  0.03990  0.33720  Biso   1.000  H
  C16      1.0000 0.88820  0.07530  0.37296  Biso   1.000  C
  H10      1.0000 0.91820  0.06790  0.36320  Biso   1.000  H
  C17      1.0000 0.84540  0.11030  0.41546  Biso   1.000  C
  H11      1.0000 0.84510  0.12920  0.43570  Biso   1.000  H
  C18      1.0000 0.80200  0.09210  0.40169  Biso   1.000  C
  H12      1.0000 0.77270  0.09650  0.41230  Biso   1.000  H
  C19      1.0000 0.39430  0.70680  0.43380  Biso   1.000  C
  C20      1.0000 0.39880  0.56930  0.46020  Biso   1.000  C
  C21      1.0000 0.36150  0.57170  0.41556  Biso   1.000  C
  C22      1.0000 0.40850  0.80980  0.43015  Biso   1.000  C
  C23      1.0000 0.40550  0.85560  0.40305  Biso   1.000  C
  H13      1.0000 0.39230  0.82300  0.38640  Biso   1.000  H
  C24      1.0000 0.42170  0.94770  0.40053  Biso   1.000  C
  H14      1.0000 0.41810  0.97940  0.38200  Biso   1.000  H
  C25      1.0000 0.44520  0.95290  0.44898  Biso   1.000  C
  H15      1.0000 0.45890  0.98720  0.46510  Biso   1.000  H
  C26      1.0000 0.42930  0.86120  0.45412  Biso   1.000  C
  H16      1.0000 0.43200  0.83260  0.47320  Biso   1.000  H
  C27      1.0000 0.41500  0.51540  0.48604  Biso   1.000  C
  C28      1.0000 0.43950  0.56190  0.50894  Biso   1.000  C
  H17      1.0000 0.44700  0.62880  0.50730  Biso   1.000  H
  C29      1.0000 0.45260  0.51150  0.53385  Biso   1.000  C
  H18      1.0000 0.46950  0.54470  0.54910  Biso   1.000  H
  C30      1.0000 0.42030  0.37080  0.51555  Biso   1.000  C
  H19      1.0000 0.41400  0.30360  0.51770  Biso   1.000  H
  C31      1.0000 0.40600  0.41810  0.48932  Biso   1.000  C
  H20      1.0000 0.39020  0.38300  0.47400  Biso   1.000  H
  C32      1.0000 0.33800  0.51780  0.39165  Biso   1.000  C
  C33      1.0000 0.34040  0.41740  0.39070  Biso   1.000  C
  H21      1.0000 0.35700  0.38290  0.40580  Biso   1.000  H
  C34      1.0000 0.31920  0.36870  0.36820  Biso   1.000  C
  H22      1.0000 0.32060  0.30000  0.36830  Biso   1.000  H
  C35      1.0000 0.29280  0.50880  0.34687  Biso   1.000  C
  H23      1.0000 0.27550  0.54070  0.33160  Biso   1.000  H
  C36      1.0000 0.31260  0.56430  0.36838  Biso   1.000  C
  H24      1.0000 0.30950  0.63280  0.36790  Biso   1.000  H
  N1       1.0000 0.67600  0.02100  0.32454  Biso   1.000  N
  N2       1.0000 0.76130  0.02530  0.32704  Biso   1.000  N
  N3       1.0000 0.71560  0.06310  0.36963  Biso   1.000  N
  N4       1.0000 0.54160  0.09050  0.39623  Biso   1.000  N
  N5       1.0000 0.73120  0.90450  0.22441  Biso   1.000  N
  N6       1.0000 0.88770  0.10260  0.40184  Biso   1.000  N
  N7       1.0000 0.40930  0.66400  0.45851  Biso   1.000  N
  N8       1.0000 0.37420  0.51990  0.43948  Biso   1.000  N
  N9       1.0000 0.36970  0.66630  0.41180  Biso   1.000  N
  N10      1.0000 0.44280  0.99750  0.42312  Biso   1.000  N
  N11      1.0000 0.44270  0.41820  0.53760  Biso   1.000  N
  N12      1.0000 0.29600  0.41330  0.34560  Biso   1.000  N
  Zn4      1.0000 0.02348  0.87156  0.91532  Biso   1.000  Zn
  Zn5      1.0000 0.76120  0.16908  0.68533  Biso   1.000  Zn
  Zn6      1.0000 0.54852  0.85482  0.92169  Biso   1.000  Zn
  I7       1.0000 0.00548  0.79842  0.96633  Biso   1.000  I
  I8       1.0000 0.06927  0.78318  0.87528  Biso   1.000  I
  I9       1.0000 0.80611  0.32905  0.69226  Biso   1.000  I
  I10      1.0000 0.67324  0.16771  0.67010  Biso   1.000  I
  I11      1.0000 0.55425  0.67243  0.92694  Biso   1.000  I
  I12      1.0000 0.48374  0.94773  0.89445  Biso   1.000  I
  C37      1.0000 0.82340  0.95290  0.85344  Biso   1.000  C
  C38      1.0000 0.78020  0.98940  0.81267  Biso   1.000  C
  C39      1.0000 0.74310  0.94980  0.85504  Biso   1.000  C
  C40      1.0000 0.87070  0.94000  0.86850  Biso   1.000  C
  C41      1.0000 0.87350  0.91940  0.89786  Biso   1.000  C
  H25      1.0000 0.84490  0.91580  0.90930  Biso   1.000  H
  C42      1.0000 0.91670  0.90360  0.91123  Biso   1.000  C
  H26      1.0000 0.91740  0.88800  0.93170  Biso   1.000  H
  C43      1.0000 0.95540  0.93230  0.86730  Biso   1.000  C
  H27      1.0000 0.98450  0.93750  0.85640  Biso   1.000  H
  C44      1.0000 0.91340  0.94860  0.85276  Biso   1.000  C
  H28      1.0000 0.91330  0.96540  0.83230  Biso   1.000  H
  C45      1.0000 0.77640  0.02250  0.78164  Biso   1.000  C
  C46      1.0000 0.81700  0.05950  0.76716  Biso   1.000  C
  H29      1.0000 0.84760  0.06000  0.77640  Biso   1.000  H
  C47      1.0000 0.81040  0.09620  0.73823  Biso   1.000  C
  H30      1.0000 0.83740  0.12270  0.72830  Biso   1.000  H
  C48      1.0000 0.73080  0.05760  0.73828  Biso   1.000  C
  H31      1.0000 0.70090  0.05530  0.72810  Biso   1.000  H
  C49      1.0000 0.73310  0.02170  0.76678  Biso   1.000  C
  H32      1.0000 0.70510  0.99660  0.77610  Biso   1.000  H
  C50      1.0000 0.69760  0.93300  0.87145  Biso   1.000  C
  C51      1.0000 0.65310  0.94200  0.85748  Biso   1.000  C
  H33      1.0000 0.65160  0.96010  0.83720  Biso   1.000  H
  C52      1.0000 0.61180  0.92470  0.87296  Biso   1.000  C
  H34      1.0000 0.58180  0.93210  0.86320  Biso   1.000  H
  C53      1.0000 0.65460  0.88970  0.91546  Biso   1.000  C
  H35      1.0000 0.65490  0.87080  0.93570  Biso   1.000  H
  C54      1.0000 0.69800  0.90790  0.90169  Biso   1.000  C
  H36      1.0000 0.72730  0.90350  0.91230  Biso   1.000  H
  C55      1.0000 0.10570  0.29320  0.93380  Biso   1.000  C
  C56      1.0000 0.10120  0.43070  0.96020  Biso   1.000  C
  C57      1.0000 0.13850  0.42830  0.91556  Biso   1.000  C
  C58      1.0000 0.09150  0.19020  0.93015  Biso   1.000  C
  C59      1.0000 0.09450  0.14440  0.90305  Biso   1.000  C
  H37      1.0000 0.10770  0.17700  0.88640  Biso   1.000  H
  C60      1.0000 0.07830  0.05230  0.90053  Biso   1.000  C
  H38      1.0000 0.08190  0.02060  0.88200  Biso   1.000  H
  C61      1.0000 0.05480  0.04710  0.94898  Biso   1.000  C
  H39      1.0000 0.04110  0.01280  0.96510  Biso   1.000  H
  C62      1.0000 0.07070  0.13880  0.95412  Biso   1.000  C
  H40      1.0000 0.06800  0.16740  0.97320  Biso   1.000  H
  C63      1.0000 0.08500  0.48460  0.98604  Biso   1.000  C
  C64      1.0000 0.06050  0.43810  0.00894  Biso   1.000  C
  H41      1.0000 0.05300  0.37120  0.00730  Biso   1.000  H
  C65      1.0000 0.04740  0.48850  0.03385  Biso   1.000  C
  H42      1.0000 0.03050  0.45530  0.04910  Biso   1.000  H
  C66      1.0000 0.07970  0.62920  0.01555  Biso   1.000  C
  H43      1.0000 0.08600  0.69640  0.01770  Biso   1.000  H
  C67      1.0000 0.09400  0.58190  0.98932  Biso   1.000  C
  H44      1.0000 0.10980  0.61700  0.97400  Biso   1.000  H
  C68      1.0000 0.16200  0.48220  0.89165  Biso   1.000  C
  C69      1.0000 0.15960  0.58260  0.89070  Biso   1.000  C
  H45      1.0000 0.14300  0.61710  0.90580  Biso   1.000  H
  C70      1.0000 0.18080  0.63130  0.86820  Biso   1.000  C
  H46      1.0000 0.17940  0.70000  0.86830  Biso   1.000  H
  C71      1.0000 0.20720  0.49120  0.84687  Biso   1.000  C
  H47      1.0000 0.22450  0.45930  0.83160  Biso   1.000  H
  C72      1.0000 0.18740  0.43570  0.86838  Biso   1.000  C
  H48      1.0000 0.19050  0.36720  0.86790  Biso   1.000  H
  N13      1.0000 0.82400  0.97900  0.82454  Biso   1.000  N
  N14      1.0000 0.73870  0.97470  0.82704  Biso   1.000  N
  N15      1.0000 0.78440  0.93690  0.86963  Biso   1.000  N
  N16      1.0000 0.95840  0.90950  0.89623  Biso   1.000  N
  N17      1.0000 0.76880  0.09550  0.72441  Biso   1.000  N
  N18      1.0000 0.61230  0.89740  0.90184  Biso   1.000  N
  N19      1.0000 0.09070  0.33600  0.95851  Biso   1.000  N
  N20      1.0000 0.12580  0.48010  0.93948  Biso   1.000  N
  N21      1.0000 0.13030  0.33370  0.91180  Biso   1.000  N
  N22      1.0000 0.05720  0.00250  0.92312  Biso   1.000  N
  N23      1.0000 0.05730  0.58180  0.03760  Biso   1.000  N
  N24      1.0000 0.20400  0.58670  0.84560  Biso   1.000  N
  Zn7      1.0000 0.52348  0.62844  0.08468  Biso   1.000  Zn
  Zn8      1.0000 0.26120  0.33092  0.31467  Biso   1.000  Zn
  Zn9      1.0000 0.04852  0.64518  0.07831  Biso   1.000  Zn
  I13      1.0000 0.50548  0.70158  0.03367  Biso   1.000  I
  I14      1.0000 0.56927  0.71682  0.12472  Biso   1.000  I
  I15      1.0000 0.30611  0.17095  0.30774  Biso   1.000  I
  I16      1.0000 0.17324  0.33229  0.32990  Biso   1.000  I
  I17      1.0000 0.05425  0.82757  0.07306  Biso   1.000  I
  I18      1.0000 0.98374  0.55227  0.10555  Biso   1.000  I
  C73      1.0000 0.32340  0.54710  0.14656  Biso   1.000  C
  C74      1.0000 0.28020  0.51060  0.18733  Biso   1.000  C
  C75      1.0000 0.24310  0.55020  0.14496  Biso   1.000  C
  C76      1.0000 0.37070  0.56000  0.13150  Biso   1.000  C
  C77      1.0000 0.37350  0.58060  0.10214  Biso   1.000  C
  H49      1.0000 0.34490  0.58420  0.09070  Biso   1.000  H
  C78      1.0000 0.41670  0.59640  0.08877  Biso   1.000  C
  H50      1.0000 0.41740  0.61200  0.06830  Biso   1.000  H
  C79      1.0000 0.45540  0.56770  0.13270  Biso   1.000  C
  H51      1.0000 0.48450  0.56250  0.14360  Biso   1.000  H
  C80      1.0000 0.41340  0.55140  0.14724  Biso   1.000  C
  H52      1.0000 0.41330  0.53460  0.16770  Biso   1.000  H
  C81      1.0000 0.27640  0.47750  0.21836  Biso   1.000  C
  C82      1.0000 0.31700  0.44050  0.23284  Biso   1.000  C
  H53      1.0000 0.34760  0.44000  0.22360  Biso   1.000  H
  C83      1.0000 0.31040  0.40380  0.26177  Biso   1.000  C
  H54      1.0000 0.33740  0.37730  0.27170  Biso   1.000  H
  C84      1.0000 0.23080  0.44240  0.26172  Biso   1.000  C
  H55      1.0000 0.20090  0.44470  0.27190  Biso   1.000  H
  C85      1.0000 0.23310  0.47830  0.23322  Biso   1.000  C
  H56      1.0000 0.20510  0.50340  0.22390  Biso   1.000  H
  C86      1.0000 0.19760  0.56700  0.12855  Biso   1.000  C
  C87      1.0000 0.15310  0.55800  0.14252  Biso   1.000  C
  H57      1.0000 0.15160  0.53990  0.16280  Biso   1.000  H
  C88      1.0000 0.11180  0.57530  0.12704  Biso   1.000  C
  H58      1.0000 0.08180  0.56790  0.13680  Biso   1.000  H
  C89      1.0000 0.15460  0.61030  0.08454  Biso   1.000  C
  H59      1.0000 0.15490  0.62920  0.06430  Biso   1.000  H
  C90      1.0000 0.19800  0.59210  0.09831  Biso   1.000  C
  H60      1.0000 0.22730  0.59650  0.08770  Biso   1.000  H
  C91      1.0000 0.60570  0.20680  0.06620  Biso   1.000  C
  C92      1.0000 0.60120  0.06930  0.03980  Biso   1.000  C
  C93      1.0000 0.63850  0.07170  0.08444  Biso   1.000  C
  C94      1.0000 0.59150  0.30980  0.06985  Biso   1.000  C
  C95      1.0000 0.59450  0.35560  0.09695  Biso   1.000  C
  H61      1.0000 0.60770  0.32300  0.11360  Biso   1.000  H
  C96      1.0000 0.57830  0.44770  0.09947  Biso   1.000  C
  H62      1.0000 0.58190  0.47940  0.11800  Biso   1.000  H
  C97      1.0000 0.55480  0.45290  0.05102  Biso   1.000  C
  H63      1.0000 0.54110  0.48720  0.03490  Biso   1.000  H
  C98      1.0000 0.57070  0.36120  0.04588  Biso   1.000  C
  H64      1.0000 0.56800  0.33260  0.02680  Biso   1.000  H
  C99      1.0000 0.58500  0.01540  0.01396  Biso   1.000  C
  C100     1.0000 0.56050  0.06190  0.99106  Biso   1.000  C
  H65      1.0000 0.55300  0.12880  0.99270  Biso   1.000  H
  C101     1.0000 0.54740  0.01150  0.96615  Biso   1.000  C
  H66      1.0000 0.53050  0.04470  0.95090  Biso   1.000  H
  C102     1.0000 0.57970  0.87080  0.98445  Biso   1.000  C
  H67      1.0000 0.58600  0.80360  0.98230  Biso   1.000  H
  C103     1.0000 0.59400  0.91810  0.01068  Biso   1.000  C
  H68      1.0000 0.60980  0.88300  0.02600  Biso   1.000  H
  C104     1.0000 0.66200  0.01780  0.10835  Biso   1.000  C
  C105     1.0000 0.65960  0.91740  0.10930  Biso   1.000  C
  H69      1.0000 0.64300  0.88290  0.09420  Biso   1.000  H
  C106     1.0000 0.68080  0.86870  0.13180  Biso   1.000  C
  H70      1.0000 0.67940  0.80000  0.13170  Biso   1.000  H
  C107     1.0000 0.70720  0.00880  0.15313  Biso   1.000  C
  H71      1.0000 0.72450  0.04070  0.16840  Biso   1.000  H
  C108     1.0000 0.68740  0.06430  0.13162  Biso   1.000  C
  H72      1.0000 0.69050  0.13280  0.13210  Biso   1.000  H
  N25      1.0000 0.32400  0.52100  0.17546  Biso   1.000  N
  N26      1.0000 0.23870  0.52530  0.17296  Biso   1.000  N
  N27      1.0000 0.28440  0.56310  0.13037  Biso   1.000  N
  N28      1.0000 0.45840  0.59050  0.10377  Biso   1.000  N
  N29      1.0000 0.26880  0.40450  0.27559  Biso   1.000  N
  N30      1.0000 0.11230  0.60260  0.09816  Biso   1.000  N
  N31      1.0000 0.59070  0.16400  0.04149  Biso   1.000  N
  N32      1.0000 0.62580  0.01990  0.06052  Biso   1.000  N
  N33      1.0000 0.63030  0.16630  0.08820  Biso   1.000  N
  N34      1.0000 0.55720  0.49750  0.07688  Biso   1.000  N
  N35      1.0000 0.55730  0.91820  0.96240  Biso   1.000  N
  N36      1.0000 0.70400  0.91330  0.15440  Biso   1.000  N
  Zn10     1.0000 0.97652  0.37156  0.58468  Biso   1.000  Zn
  Zn11     1.0000 0.23880  0.66908  0.81467  Biso   1.000  Zn
  Zn12     1.0000 0.45148  0.35482  0.57831  Biso   1.000  Zn
  I19      1.0000 0.99452  0.29842  0.53367  Biso   1.000  I
  I20      1.0000 0.93073  0.28318  0.62472  Biso   1.000  I
  I21      1.0000 0.19389  0.82905  0.80774  Biso   1.000  I
  I22      1.0000 0.32676  0.66771  0.82990  Biso   1.000  I
  I23      1.0000 0.44575  0.17243  0.57306  Biso   1.000  I
  I24      1.0000 0.51626  0.44773  0.60555  Biso   1.000  I
  C109     1.0000 0.17660  0.45290  0.64656  Biso   1.000  C
  C110     1.0000 0.21980  0.48940  0.68733  Biso   1.000  C
  C111     1.0000 0.25690  0.44980  0.64496  Biso   1.000  C
  C112     1.0000 0.12930  0.44000  0.63150  Biso   1.000  C
  C113     1.0000 0.12650  0.41940  0.60214  Biso   1.000  C
  H73      1.0000 0.15510  0.41580  0.59070  Biso   1.000  H
  C114     1.0000 0.08330  0.40360  0.58877  Biso   1.000  C
  H74      1.0000 0.08260  0.38800  0.56830  Biso   1.000  H
  C115     1.0000 0.04460  0.43230  0.63270  Biso   1.000  C
  H75      1.0000 0.01550  0.43750  0.64360  Biso   1.000  H
  C116     1.0000 0.08660  0.44860  0.64724  Biso   1.000  C
  H76      1.0000 0.08670  0.46540  0.66770  Biso   1.000  H
  C117     1.0000 0.22360  0.52250  0.71836  Biso   1.000  C
  C118     1.0000 0.18300  0.55950  0.73284  Biso   1.000  C
  H77      1.0000 0.15240  0.56000  0.72360  Biso   1.000  H
  C119     1.0000 0.18960  0.59620  0.76177  Biso   1.000  C
  H78      1.0000 0.16260  0.62270  0.77170  Biso   1.000  H
  C120     1.0000 0.26920  0.55760  0.76172  Biso   1.000  C
  H79      1.0000 0.29910  0.55530  0.77190  Biso   1.000  H
  C121     1.0000 0.26690  0.52170  0.73322  Biso   1.000  C
  H80      1.0000 0.29490  0.49660  0.72390  Biso   1.000  H
  C122     1.0000 0.30240  0.43300  0.62855  Biso   1.000  C
  C123     1.0000 0.34690  0.44200  0.64252  Biso   1.000  C
  H81      1.0000 0.34840  0.46010  0.66280  Biso   1.000  H
  C124     1.0000 0.38820  0.42470  0.62704  Biso   1.000  C
  H82      1.0000 0.41820  0.43210  0.63680  Biso   1.000  H
  C125     1.0000 0.34540  0.38970  0.58454  Biso   1.000  C
  H83      1.0000 0.34510  0.37080  0.56430  Biso   1.000  H
  C126     1.0000 0.30200  0.40790  0.59831  Biso   1.000  C
  H84      1.0000 0.27270  0.40350  0.58770  Biso   1.000  H
  C127     1.0000 0.89430  0.79320  0.56620  Biso   1.000  C
  C128     1.0000 0.89880  0.93070  0.53980  Biso   1.000  C
  C129     1.0000 0.86150  0.92830  0.58444  Biso   1.000  C
  C130     1.0000 0.90850  0.69020  0.56985  Biso   1.000  C
  C131     1.0000 0.90550  0.64440  0.59695  Biso   1.000  C
  H85      1.0000 0.89230  0.67700  0.61360  Biso   1.000  H
  C132     1.0000 0.92170  0.55230  0.59947  Biso   1.000  C
  H86      1.0000 0.91810  0.52060  0.61800  Biso   1.000  H
  C133     1.0000 0.94520  0.54710  0.55102  Biso   1.000  C
  H87      1.0000 0.95890  0.51280  0.53490  Biso   1.000  H
  C134     1.0000 0.92930  0.63880  0.54588  Biso   1.000  C
  H88      1.0000 0.93200  0.66740  0.52680  Biso   1.000  H
  C135     1.0000 0.91500  0.98460  0.51396  Biso   1.000  C
  C136     1.0000 0.93950  0.93810  0.49106  Biso   1.000  C
  H89      1.0000 0.94700  0.87120  0.49270  Biso   1.000  H
  C137     1.0000 0.95260  0.98850  0.46615  Biso   1.000  C
  H90      1.0000 0.96950  0.95530  0.45090  Biso   1.000  H
  C138     1.0000 0.92030  0.12920  0.48445  Biso   1.000  C
  H91      1.0000 0.91400  0.19640  0.48230  Biso   1.000  H
  C139     1.0000 0.90600  0.08190  0.51068  Biso   1.000  C
  H92      1.0000 0.89020  0.11700  0.52600  Biso   1.000  H
  C140     1.0000 0.83800  0.98220  0.60835  Biso   1.000  C
  C141     1.0000 0.84040  0.08260  0.60930  Biso   1.000  C
  H93      1.0000 0.85700  0.11710  0.59420  Biso   1.000  H
  C142     1.0000 0.81920  0.13130  0.63180  Biso   1.000  C
  H94      1.0000 0.82060  0.20000  0.63170  Biso   1.000  H
  C143     1.0000 0.79280  0.99120  0.65313  Biso   1.000  C
  H95      1.0000 0.77550  0.95930  0.66840  Biso   1.000  H
  C144     1.0000 0.81260  0.93570  0.63162  Biso   1.000  C
  H96      1.0000 0.80950  0.86720  0.63210  Biso   1.000  H
  N37      1.0000 0.17600  0.47900  0.67546  Biso   1.000  N
  N38      1.0000 0.26130  0.47470  0.67296  Biso   1.000  N
  N39      1.0000 0.21560  0.43690  0.63037  Biso   1.000  N
  N40      1.0000 0.04160  0.40950  0.60377  Biso   1.000  N
  N41      1.0000 0.23120  0.59550  0.77559  Biso   1.000  N
  N42      1.0000 0.38770  0.39740  0.59816  Biso   1.000  N
  N43      1.0000 0.90930  0.83600  0.54149  Biso   1.000  N
  N44      1.0000 0.87420  0.98010  0.56052  Biso   1.000  N
  N45      1.0000 0.86970  0.83370  0.58820  Biso   1.000  N
  N46      1.0000 0.94280  0.50250  0.57688  Biso   1.000  N
  N47      1.0000 0.94270  0.08180  0.46240  Biso   1.000  N
  N48      1.0000 0.79600  0.08670  0.65440  Biso   1.000  N
  Zn13     1.0000 0.52348  0.87156  0.58468  Biso   1.000  Zn
  Zn14     1.0000 0.26120  0.16908  0.81467  Biso   1.000  Zn
  Zn15     1.0000 0.04852  0.85482  0.57831  Biso   1.000  Zn
  I25      1.0000 0.50548  0.79842  0.53367  Biso   1.000  I
  I26      1.0000 0.56927  0.78318  0.62472  Biso   1.000  I
  I27      1.0000 0.30611  0.32905  0.80774  Biso   1.000  I
  I28      1.0000 0.17324  0.16771  0.82990  Biso   1.000  I
  I29      1.0000 0.05425  0.67243  0.57306  Biso   1.000  I
  I30      1.0000 0.98374  0.94773  0.60555  Biso   1.000  I
  C145     1.0000 0.32340  0.95290  0.64656  Biso   1.000  C
  C146     1.0000 0.28020  0.98940  0.68733  Biso   1.000  C
  C147     1.0000 0.24310  0.94980  0.64496  Biso   1.000  C
  C148     1.0000 0.37070  0.94000  0.63150  Biso   1.000  C
  C149     1.0000 0.37350  0.91940  0.60214  Biso   1.000  C
  H97      1.0000 0.34490  0.91580  0.59070  Biso   1.000  H
  C150     1.0000 0.41670  0.90360  0.58877  Biso   1.000  C
  H98      1.0000 0.41740  0.88800  0.56830  Biso   1.000  H
  C151     1.0000 0.45540  0.93230  0.63270  Biso   1.000  C
  H99      1.0000 0.48450  0.93750  0.64360  Biso   1.000  H
  C152     1.0000 0.41340  0.94860  0.64724  Biso   1.000  C
  H100     1.0000 0.41330  0.96540  0.66770  Biso   1.000  H
  C153     1.0000 0.27640  0.02250  0.71836  Biso   1.000  C
  C154     1.0000 0.31700  0.05950  0.73284  Biso   1.000  C
  H101     1.0000 0.34760  0.06000  0.72360  Biso   1.000  H
  C155     1.0000 0.31040  0.09620  0.76177  Biso   1.000  C
  H102     1.0000 0.33740  0.12270  0.77170  Biso   1.000  H
  C156     1.0000 0.23080  0.05760  0.76172  Biso   1.000  C
  H103     1.0000 0.20090  0.05530  0.77190  Biso   1.000  H
  C157     1.0000 0.23310  0.02170  0.73322  Biso   1.000  C
  H104     1.0000 0.20510  0.99660  0.72390  Biso   1.000  H
  C158     1.0000 0.19760  0.93300  0.62855  Biso   1.000  C
  C159     1.0000 0.15310  0.94200  0.64252  Biso   1.000  C
  H105     1.0000 0.15160  0.96010  0.66280  Biso   1.000  H
  C160     1.0000 0.11180  0.92470  0.62704  Biso   1.000  C
  H106     1.0000 0.08180  0.93210  0.63680  Biso   1.000  H
  C161     1.0000 0.15460  0.88970  0.58454  Biso   1.000  C
  H107     1.0000 0.15490  0.87080  0.56430  Biso   1.000  H
  C162     1.0000 0.19800  0.90790  0.59831  Biso   1.000  C
  H108     1.0000 0.22730  0.90350  0.58770  Biso   1.000  H
  C163     1.0000 0.60570  0.29320  0.56620  Biso   1.000  C
  C164     1.0000 0.60120  0.43070  0.53980  Biso   1.000  C
  C165     1.0000 0.63850  0.42830  0.58444  Biso   1.000  C
  C166     1.0000 0.59150  0.19020  0.56985  Biso   1.000  C
  C167     1.0000 0.59450  0.14440  0.59695  Biso   1.000  C
  H109     1.0000 0.60770  0.17700  0.61360  Biso   1.000  H
  C168     1.0000 0.57830  0.05230  0.59947  Biso   1.000  C
  H110     1.0000 0.58190  0.02060  0.61800  Biso   1.000  H
  C169     1.0000 0.55480  0.04710  0.55102  Biso   1.000  C
  H111     1.0000 0.54110  0.01280  0.53490  Biso   1.000  H
  C170     1.0000 0.57070  0.13880  0.54588  Biso   1.000  C
  H112     1.0000 0.56800  0.16740  0.52680  Biso   1.000  H
  C171     1.0000 0.58500  0.48460  0.51396  Biso   1.000  C
  C172     1.0000 0.56050  0.43810  0.49106  Biso   1.000  C
  H113     1.0000 0.55300  0.37120  0.49270  Biso   1.000  H
  C173     1.0000 0.54740  0.48850  0.46615  Biso   1.000  C
  H114     1.0000 0.53050  0.45530  0.45090  Biso   1.000  H
  C174     1.0000 0.57970  0.62920  0.48445  Biso   1.000  C
  H115     1.0000 0.58600  0.69640  0.48230  Biso   1.000  H
  C175     1.0000 0.59400  0.58190  0.51068  Biso   1.000  C
  H116     1.0000 0.60980  0.61700  0.52600  Biso   1.000  H
  C176     1.0000 0.66200  0.48220  0.60835  Biso   1.000  C
  C177     1.0000 0.65960  0.58260  0.60930  Biso   1.000  C
  H117     1.0000 0.64300  0.61710  0.59420  Biso   1.000  H
  C178     1.0000 0.68080  0.63130  0.63180  Biso   1.000  C
  H118     1.0000 0.67940  0.70000  0.63170  Biso   1.000  H
  C179     1.0000 0.70720  0.49120  0.65313  Biso   1.000  C
  H119     1.0000 0.72450  0.45930  0.66840  Biso   1.000  H
  C180     1.0000 0.68740  0.43570  0.63162  Biso   1.000  C
  H120     1.0000 0.69050  0.36720  0.63210  Biso   1.000  H
  N49      1.0000 0.32400  0.97900  0.67546  Biso   1.000  N
  N50      1.0000 0.23870  0.97470  0.67296  Biso   1.000  N
  N51      1.0000 0.28440  0.93690  0.63037  Biso   1.000  N
  N52      1.0000 0.45840  0.90950  0.60377  Biso   1.000  N
  N53      1.0000 0.26880  0.09550  0.77559  Biso   1.000  N
  N54      1.0000 0.11230  0.89740  0.59816  Biso   1.000  N
  N55      1.0000 0.59070  0.33600  0.54149  Biso   1.000  N
  N56      1.0000 0.62580  0.48010  0.56052  Biso   1.000  N
  N57      1.0000 0.63030  0.33370  0.58820  Biso   1.000  N
  N58      1.0000 0.55720  0.00250  0.57688  Biso   1.000  N
  N59      1.0000 0.55730  0.58180  0.46240  Biso   1.000  N
  N60      1.0000 0.70400  0.58670  0.65440  Biso   1.000  N
  Zn16     1.0000 0.97652  0.12844  0.08468  Biso   1.000  Zn
  Zn17     1.0000 0.23880  0.83092  0.31467  Biso   1.000  Zn
  Zn18     1.0000 0.45148  0.14518  0.07831  Biso   1.000  Zn
  I31      1.0000 0.99452  0.20158  0.03367  Biso   1.000  I
  I32      1.0000 0.93073  0.21682  0.12472  Biso   1.000  I
  I33      1.0000 0.19389  0.67095  0.30774  Biso   1.000  I
  I34      1.0000 0.32676  0.83229  0.32990  Biso   1.000  I
  I35      1.0000 0.44575  0.32757  0.07306  Biso   1.000  I
  I36      1.0000 0.51626  0.05227  0.10555  Biso   1.000  I
  C181     1.0000 0.17660  0.04710  0.14656  Biso   1.000  C
  C182     1.0000 0.21980  0.01060  0.18733  Biso   1.000  C
  C183     1.0000 0.25690  0.05020  0.14496  Biso   1.000  C
  C184     1.0000 0.12930  0.06000  0.13150  Biso   1.000  C
  C185     1.0000 0.12650  0.08060  0.10214  Biso   1.000  C
  H121     1.0000 0.15510  0.08420  0.09070  Biso   1.000  H
  C186     1.0000 0.08330  0.09640  0.08877  Biso   1.000  C
  H122     1.0000 0.08260  0.11200  0.06830  Biso   1.000  H
  C187     1.0000 0.04460  0.06770  0.13270  Biso   1.000  C
  H123     1.0000 0.01550  0.06250  0.14360  Biso   1.000  H
  C188     1.0000 0.08660  0.05140  0.14724  Biso   1.000  C
  H124     1.0000 0.08670  0.03460  0.16770  Biso   1.000  H
  C189     1.0000 0.22360  0.97750  0.21836  Biso   1.000  C
  C190     1.0000 0.18300  0.94050  0.23284  Biso   1.000  C
  H125     1.0000 0.15240  0.94000  0.22360  Biso   1.000  H
  C191     1.0000 0.18960  0.90380  0.26177  Biso   1.000  C
  H126     1.0000 0.16260  0.87730  0.27170  Biso   1.000  H
  C192     1.0000 0.26920  0.94240  0.26172  Biso   1.000  C
  H127     1.0000 0.29910  0.94470  0.27190  Biso   1.000  H
  C193     1.0000 0.26690  0.97830  0.23322  Biso   1.000  C
  H128     1.0000 0.29490  0.00340  0.22390  Biso   1.000  H
  C194     1.0000 0.30240  0.06700  0.12855  Biso   1.000  C
  C195     1.0000 0.34690  0.05800  0.14252  Biso   1.000  C
  H129     1.0000 0.34840  0.03990  0.16280  Biso   1.000  H
  C196     1.0000 0.38820  0.07530  0.12704  Biso   1.000  C
  H130     1.0000 0.41820  0.06790  0.13680  Biso   1.000  H
  C197     1.0000 0.34540  0.11030  0.08454  Biso   1.000  C
  H131     1.0000 0.34510  0.12920  0.06430  Biso   1.000  H
  C198     1.0000 0.30200  0.09210  0.09831  Biso   1.000  C
  H132     1.0000 0.27270  0.09650  0.08770  Biso   1.000  H
  C199     1.0000 0.89430  0.70680  0.06620  Biso   1.000  C
  C200     1.0000 0.89880  0.56930  0.03980  Biso   1.000  C
  C201     1.0000 0.86150  0.57170  0.08444  Biso   1.000  C
  C202     1.0000 0.90850  0.80980  0.06985  Biso   1.000  C
  C203     1.0000 0.90550  0.85560  0.09695  Biso   1.000  C
  H133     1.0000 0.89230  0.82300  0.11360  Biso   1.000  H
  C204     1.0000 0.92170  0.94770  0.09947  Biso   1.000  C
  H134     1.0000 0.91810  0.97940  0.11800  Biso   1.000  H
  C205     1.0000 0.94520  0.95290  0.05102  Biso   1.000  C
  H135     1.0000 0.95890  0.98720  0.03490  Biso   1.000  H
  C206     1.0000 0.92930  0.86120  0.04588  Biso   1.000  C
  H136     1.0000 0.93200  0.83260  0.02680  Biso   1.000  H
  C207     1.0000 0.91500  0.51540  0.01396  Biso   1.000  C
  C208     1.0000 0.93950  0.56190  0.99106  Biso   1.000  C
  H137     1.0000 0.94700  0.62880  0.99270  Biso   1.000  H
  C209     1.0000 0.95260  0.51150  0.96615  Biso   1.000  C
  H138     1.0000 0.96950  0.54470  0.95090  Biso   1.000  H
  C210     1.0000 0.92030  0.37080  0.98445  Biso   1.000  C
  H139     1.0000 0.91400  0.30360  0.98230  Biso   1.000  H
  C211     1.0000 0.90600  0.41810  0.01068  Biso   1.000  C
  H140     1.0000 0.89020  0.38300  0.02600  Biso   1.000  H
  C212     1.0000 0.83800  0.51780  0.10835  Biso   1.000  C
  C213     1.0000 0.84040  0.41740  0.10930  Biso   1.000  C
  H141     1.0000 0.85700  0.38290  0.09420  Biso   1.000  H
  C214     1.0000 0.81920  0.36870  0.13180  Biso   1.000  C
  H142     1.0000 0.82060  0.30000  0.13170  Biso   1.000  H
  C215     1.0000 0.79280  0.50880  0.15313  Biso   1.000  C
  H143     1.0000 0.77550  0.54070  0.16840  Biso   1.000  H
  C216     1.0000 0.81260  0.56430  0.13162  Biso   1.000  C
  H144     1.0000 0.80950  0.63280  0.13210  Biso   1.000  H
  N61      1.0000 0.17600  0.02100  0.17546  Biso   1.000  N
  N62      1.0000 0.26130  0.02530  0.17296  Biso   1.000  N
  N63      1.0000 0.21560  0.06310  0.13037  Biso   1.000  N
  N64      1.0000 0.04160  0.09050  0.10377  Biso   1.000  N
  N65      1.0000 0.23120  0.90450  0.27559  Biso   1.000  N
  N66      1.0000 0.38770  0.10260  0.09816  Biso   1.000  N
  N67      1.0000 0.90930  0.66400  0.04149  Biso   1.000  N
  N68      1.0000 0.87420  0.51990  0.06052  Biso   1.000  N
  N69      1.0000 0.86970  0.66630  0.08820  Biso   1.000  N
  N70      1.0000 0.94280  0.99750  0.07688  Biso   1.000  N
  N71      1.0000 0.94270  0.41820  0.96240  Biso   1.000  N
  N72      1.0000 0.79600  0.41330  0.15440  Biso   1.000  N
  Zn19     1.0000 0.47652  0.37156  0.91532  Biso   1.000  Zn
  Zn20     1.0000 0.73880  0.66908  0.68533  Biso   1.000  Zn
  Zn21     1.0000 0.95148  0.35482  0.92169  Biso   1.000  Zn
  I37      1.0000 0.49452  0.29842  0.96633  Biso   1.000  I
  I38      1.0000 0.43073  0.28318  0.87528  Biso   1.000  I
  I39      1.0000 0.69389  0.82905  0.69226  Biso   1.000  I
  I40      1.0000 0.82676  0.66771  0.67010  Biso   1.000  I
  I41      1.0000 0.94575  0.17243  0.92694  Biso   1.000  I
  I42      1.0000 0.01626  0.44773  0.89445  Biso   1.000  I
  C217     1.0000 0.67660  0.45290  0.85344  Biso   1.000  C
  C218     1.0000 0.71980  0.48940  0.81267  Biso   1.000  C
  C219     1.0000 0.75690  0.44980  0.85504  Biso   1.000  C
  C220     1.0000 0.62930  0.44000  0.86850  Biso   1.000  C
  C221     1.0000 0.62650  0.41940  0.89786  Biso   1.000  C
  H145     1.0000 0.65510  0.41580  0.90930  Biso   1.000  H
  C222     1.0000 0.58330  0.40360  0.91123  Biso   1.000  C
  H146     1.0000 0.58260  0.38800  0.93170  Biso   1.000  H
  C223     1.0000 0.54460  0.43230  0.86730  Biso   1.000  C
  H147     1.0000 0.51550  0.43750  0.85640  Biso   1.000  H
  C224     1.0000 0.58660  0.44860  0.85276  Biso   1.000  C
  H148     1.0000 0.58670  0.46540  0.83230  Biso   1.000  H
  C225     1.0000 0.72360  0.52250  0.78164  Biso   1.000  C
  C226     1.0000 0.68300  0.55950  0.76716  Biso   1.000  C
  H149     1.0000 0.65240  0.56000  0.77640  Biso   1.000  H
  C227     1.0000 0.68960  0.59620  0.73823  Biso   1.000  C
  H150     1.0000 0.66260  0.62270  0.72830  Biso   1.000  H
  C228     1.0000 0.76920  0.55760  0.73828  Biso   1.000  C
  H151     1.0000 0.79910  0.55530  0.72810  Biso   1.000  H
  C229     1.0000 0.76690  0.52170  0.76678  Biso   1.000  C
  H152     1.0000 0.79490  0.49660  0.77610  Biso   1.000  H
  C230     1.0000 0.80240  0.43300  0.87145  Biso   1.000  C
  C231     1.0000 0.84690  0.44200  0.85748  Biso   1.000  C
  H153     1.0000 0.84840  0.46010  0.83720  Biso   1.000  H
  C232     1.0000 0.88820  0.42470  0.87296  Biso   1.000  C
  H154     1.0000 0.91820  0.43210  0.86320  Biso   1.000  H
  C233     1.0000 0.84540  0.38970  0.91546  Biso   1.000  C
  H155     1.0000 0.84510  0.37080  0.93570  Biso   1.000  H
  C234     1.0000 0.80200  0.40790  0.90169  Biso   1.000  C
  H156     1.0000 0.77270  0.40350  0.91230  Biso   1.000  H
  C235     1.0000 0.39430  0.79320  0.93380  Biso   1.000  C
  C236     1.0000 0.39880  0.93070  0.96020  Biso   1.000  C
  C237     1.0000 0.36150  0.92830  0.91556  Biso   1.000  C
  C238     1.0000 0.40850  0.69020  0.93015  Biso   1.000  C
  C239     1.0000 0.40550  0.64440  0.90305  Biso   1.000  C
  H157     1.0000 0.39230  0.67700  0.88640  Biso   1.000  H
  C240     1.0000 0.42170  0.55230  0.90053  Biso   1.000  C
  H158     1.0000 0.41810  0.52060  0.88200  Biso   1.000  H
  C241     1.0000 0.44520  0.54710  0.94898  Biso   1.000  C
  H159     1.0000 0.45890  0.51280  0.96510  Biso   1.000  H
  C242     1.0000 0.42930  0.63880  0.95412  Biso   1.000  C
  H160     1.0000 0.43200  0.66740  0.97320  Biso   1.000  H
  C243     1.0000 0.41500  0.98460  0.98604  Biso   1.000  C
  C244     1.0000 0.43950  0.93810  0.00894  Biso   1.000  C
  H161     1.0000 0.44700  0.87120  0.00730  Biso   1.000  H
  C245     1.0000 0.45260  0.98850  0.03385  Biso   1.000  C
  H162     1.0000 0.46950  0.95530  0.04910  Biso   1.000  H
  C246     1.0000 0.42030  0.12920  0.01555  Biso   1.000  C
  H163     1.0000 0.41400  0.19640  0.01770  Biso   1.000  H
  C247     1.0000 0.40600  0.08190  0.98932  Biso   1.000  C
  H164     1.0000 0.39020  0.11700  0.97400  Biso   1.000  H
  C248     1.0000 0.33800  0.98220  0.89165  Biso   1.000  C
  C249     1.0000 0.34040  0.08260  0.89070  Biso   1.000  C
  H165     1.0000 0.35700  0.11710  0.90580  Biso   1.000  H
  C250     1.0000 0.31920  0.13130  0.86820  Biso   1.000  C
  H166     1.0000 0.32060  0.20000  0.86830  Biso   1.000  H
  C251     1.0000 0.29280  0.99120  0.84687  Biso   1.000  C
  H167     1.0000 0.27550  0.95930  0.83160  Biso   1.000  H
  C252     1.0000 0.31260  0.93570  0.86838  Biso   1.000  C
  H168     1.0000 0.30950  0.86720  0.86790  Biso   1.000  H
  N73      1.0000 0.67600  0.47900  0.82454  Biso   1.000  N
  N74      1.0000 0.76130  0.47470  0.82704  Biso   1.000  N
  N75      1.0000 0.71560  0.43690  0.86963  Biso   1.000  N
  N76      1.0000 0.54160  0.40950  0.89623  Biso   1.000  N
  N77      1.0000 0.73120  0.59550  0.72441  Biso   1.000  N
  N78      1.0000 0.88770  0.39740  0.90184  Biso   1.000  N
  N79      1.0000 0.40930  0.83600  0.95851  Biso   1.000  N
  N80      1.0000 0.37420  0.98010  0.93948  Biso   1.000  N
  N81      1.0000 0.36970  0.83370  0.91180  Biso   1.000  N
  N82      1.0000 0.44280  0.50250  0.92312  Biso   1.000  N
  N83      1.0000 0.44270  0.08180  0.03760  Biso   1.000  N
  N84      1.0000 0.29600  0.08670  0.84560  Biso   1.000  N
  Zn22     1.0000 0.02348  0.62844  0.41532  Biso   1.000  Zn
  Zn23     1.0000 0.76120  0.33092  0.18533  Biso   1.000  Zn
  Zn24     1.0000 0.54852  0.64518  0.42169  Biso   1.000  Zn
  I43      1.0000 0.00548  0.70158  0.46633  Biso   1.000  I
  I44      1.0000 0.06927  0.71682  0.37528  Biso   1.000  I
  I45      1.0000 0.80611  0.17095  0.19226  Biso   1.000  I
  I46      1.0000 0.67324  0.33229  0.17010  Biso   1.000  I
  I47      1.0000 0.55425  0.82757  0.42694  Biso   1.000  I
  I48      1.0000 0.48374  0.55227  0.39445  Biso   1.000  I
  C253     1.0000 0.82340  0.54710  0.35344  Biso   1.000  C
  C254     1.0000 0.78020  0.51060  0.31267  Biso   1.000  C
  C255     1.0000 0.74310  0.55020  0.35504  Biso   1.000  C
  C256     1.0000 0.87070  0.56000  0.36850  Biso   1.000  C
  C257     1.0000 0.87350  0.58060  0.39786  Biso   1.000  C
  H169     1.0000 0.84490  0.58420  0.40930  Biso   1.000  H
  C258     1.0000 0.91670  0.59640  0.41123  Biso   1.000  C
  H170     1.0000 0.91740  0.61200  0.43170  Biso   1.000  H
  C259     1.0000 0.95540  0.56770  0.36730  Biso   1.000  C
  H171     1.0000 0.98450  0.56250  0.35640  Biso   1.000  H
  C260     1.0000 0.91340  0.55140  0.35276  Biso   1.000  C
  H172     1.0000 0.91330  0.53460  0.33230  Biso   1.000  H
  C261     1.0000 0.77640  0.47750  0.28164  Biso   1.000  C
  C262     1.0000 0.81700  0.44050  0.26716  Biso   1.000  C
  H173     1.0000 0.84760  0.44000  0.27640  Biso   1.000  H
  C263     1.0000 0.81040  0.40380  0.23823  Biso   1.000  C
  H174     1.0000 0.83740  0.37730  0.22830  Biso   1.000  H
  C264     1.0000 0.73080  0.44240  0.23828  Biso   1.000  C
  H175     1.0000 0.70090  0.44470  0.22810  Biso   1.000  H
  C265     1.0000 0.73310  0.47830  0.26678  Biso   1.000  C
  H176     1.0000 0.70510  0.50340  0.27610  Biso   1.000  H
  C266     1.0000 0.69760  0.56700  0.37145  Biso   1.000  C
  C267     1.0000 0.65310  0.55800  0.35748  Biso   1.000  C
  H177     1.0000 0.65160  0.53990  0.33720  Biso   1.000  H
  C268     1.0000 0.61180  0.57530  0.37296  Biso   1.000  C
  H178     1.0000 0.58180  0.56790  0.36320  Biso   1.000  H
  C269     1.0000 0.65460  0.61030  0.41546  Biso   1.000  C
  H179     1.0000 0.65490  0.62920  0.43570  Biso   1.000  H
  C270     1.0000 0.69800  0.59210  0.40169  Biso   1.000  C
  H180     1.0000 0.72730  0.59650  0.41230  Biso   1.000  H
  C271     1.0000 0.10570  0.20680  0.43380  Biso   1.000  C
  C272     1.0000 0.10120  0.06930  0.46020  Biso   1.000  C
  C273     1.0000 0.13850  0.07170  0.41556  Biso   1.000  C
  C274     1.0000 0.09150  0.30980  0.43015  Biso   1.000  C
  C275     1.0000 0.09450  0.35560  0.40305  Biso   1.000  C
  H181     1.0000 0.10770  0.32300  0.38640  Biso   1.000  H
  C276     1.0000 0.07830  0.44770  0.40053  Biso   1.000  C
  H182     1.0000 0.08190  0.47940  0.38200  Biso   1.000  H
  C277     1.0000 0.05480  0.45290  0.44898  Biso   1.000  C
  H183     1.0000 0.04110  0.48720  0.46510  Biso   1.000  H
  C278     1.0000 0.07070  0.36120  0.45412  Biso   1.000  C
  H184     1.0000 0.06800  0.33260  0.47320  Biso   1.000  H
  C279     1.0000 0.08500  0.01540  0.48604  Biso   1.000  C
  C280     1.0000 0.06050  0.06190  0.50894  Biso   1.000  C
  H185     1.0000 0.05300  0.12880  0.50730  Biso   1.000  H
  C281     1.0000 0.04740  0.01150  0.53385  Biso   1.000  C
  H186     1.0000 0.03050  0.04470  0.54910  Biso   1.000  H
  C282     1.0000 0.07970  0.87080  0.51555  Biso   1.000  C
  H187     1.0000 0.08600  0.80360  0.51770  Biso   1.000  H
  C283     1.0000 0.09400  0.91810  0.48932  Biso   1.000  C
  H188     1.0000 0.10980  0.88300  0.47400  Biso   1.000  H
  C284     1.0000 0.16200  0.01780  0.39165  Biso   1.000  C
  C285     1.0000 0.15960  0.91740  0.39070  Biso   1.000  C
  H189     1.0000 0.14300  0.88290  0.40580  Biso   1.000  H
  C286     1.0000 0.18080  0.86870  0.36820  Biso   1.000  C
  H190     1.0000 0.17940  0.80000  0.36830  Biso   1.000  H
  C287     1.0000 0.20720  0.00880  0.34687  Biso   1.000  C
  H191     1.0000 0.22450  0.04070  0.33160  Biso   1.000  H
  C288     1.0000 0.18740  0.06430  0.36838  Biso   1.000  C
  H192     1.0000 0.19050  0.13280  0.36790  Biso   1.000  H
  N85      1.0000 0.82400  0.52100  0.32454  Biso   1.000  N
  N86      1.0000 0.73870  0.52530  0.32704  Biso   1.000  N
  N87      1.0000 0.78440  0.56310  0.36963  Biso   1.000  N
  N88      1.0000 0.95840  0.59050  0.39623  Biso   1.000  N
  N89      1.0000 0.76880  0.40450  0.22441  Biso   1.000  N
  N90      1.0000 0.61230  0.60260  0.40184  Biso   1.000  N
  N91      1.0000 0.09070  0.16400  0.45851  Biso   1.000  N
  N92      1.0000 0.12580  0.01990  0.43948  Biso   1.000  N
  N93      1.0000 0.13030  0.16630  0.41180  Biso   1.000  N
  N94      1.0000 0.05720  0.49750  0.42312  Biso   1.000  N
  N95      1.0000 0.05730  0.91820  0.53760  Biso   1.000  N
  N96      1.0000 0.20400  0.91330  0.34560  Biso   1.000  N
