data_image0
_cell_length_a       31.07
_cell_length_b       31.07
_cell_length_c       31.862
_cell_angle_alpha    90
_cell_angle_beta     90
_cell_angle_gamma    120

_symmetry_space_group_name_H-M    "P 1"
_symmetry_int_tables_number       1

loop_
  _symmetry_equiv_pos_as_xyz
  'x, y, z'

loop_
  _atom_site_label
  _atom_site_occupancy
  _atom_site_fract_x
  _atom_site_fract_y
  _atom_site_fract_z
  _atom_site_thermal_displace_type
  _atom_site_B_iso_or_equiv
  _atom_site_type_symbol
  C1       1.0000 0.06029  0.58082  0.22845  Biso   1.000  C
  H1       1.0000 0.03050  0.57260  0.21510  Biso   1.000  H
  C2       1.0000 0.09979  0.62883  0.22428  Biso   1.000  C
  H2       1.0000 0.09650  0.65230  0.20880  Biso   1.000  H
  C3       1.0000 0.14423  0.64106  0.24364  Biso   1.000  C
  C4       1.0000 0.14692  0.60551  0.26780  Biso   1.000  C
  H3       1.0000 0.17600  0.61310  0.28200  Biso   1.000  H
  C5       1.0000 0.10565  0.55838  0.27055  Biso   1.000  C
  H4       1.0000 0.10770  0.53460  0.28680  Biso   1.000  H
  C6       1.0000 0.48857  0.98115  0.34653  Biso   1.000  C
  H5       1.0000 0.50910  0.97340  0.33100  Biso   1.000  H
  C7       1.0000 0.49170  0.98144  0.38985  Biso   1.000  C
  H6       1.0000 0.51420  0.97450  0.40300  Biso   1.000  H
  C8       1.0000 0.46044  0.99234  0.41351  Biso   1.000  C
  C9       1.0000 0.42691  0.00172  0.39246  Biso   1.000  C
  H7       1.0000 0.40500  0.00820  0.40730  Biso   1.000  H
  C10      1.0000 0.42669  0.00125  0.34874  Biso   1.000  C
  H8       1.0000 0.40440  0.00800  0.33480  Biso   1.000  H
  C11      1.0000 0.46373  0.99572  0.45947  Biso   1.000  C
  H9       1.0000 0.43870  0.99620  0.47510  Biso   1.000  H
  C12      1.0000 0.37055  0.89991  0.21390  Biso   1.000  C
  H10      1.0000 0.39620  0.90400  0.19630  Biso   1.000  H
  C13      1.0000 0.32623  0.85555  0.21246  Biso   1.000  C
  H11      1.0000 0.32220  0.83030  0.19440  Biso   1.000  H
  C14      1.0000 0.28759  0.84940  0.23865  Biso   1.000  C
  C15      1.0000 0.29493  0.88856  0.26375  Biso   1.000  C
  H12      1.0000 0.26940  0.88590  0.28080  Biso   1.000  H
  C16      1.0000 0.34043  0.93184  0.26341  Biso   1.000  C
  H13      1.0000 0.34480  0.95810  0.28040  Biso   1.000  H
  C17      1.0000 0.24051  0.80134  0.24009  Biso   1.000  C
  H14      1.0000 0.21700  0.79550  0.26070  Biso   1.000  H
  C18      1.0000 0.18868  0.69095  0.23934  Biso   1.000  C
  H15      1.0000 0.21780  0.69810  0.25320  Biso   1.000  H
  N1       1.0000 0.06293  0.54578  0.25078  Biso   1.000  N
  N2       1.0000 0.45697  0.99164  0.32577  Biso   1.000  N
  N3       1.0000 0.50134  0.99796  0.47780  Biso   1.000  N
  N4       1.0000 0.18758  0.72388  0.21714  Biso   1.000  N
  N5       1.0000 0.23243  0.76825  0.21311  Biso   1.000  N
  N6       1.0000 0.37849  0.93765  0.23961  Biso   1.000  N
  C19      1.0000 0.41918  0.47947  0.22845  Biso   1.000  C
  H16      1.0000 0.42740  0.45790  0.21510  Biso   1.000  H
  C20      1.0000 0.37117  0.47096  0.22428  Biso   1.000  C
  H17      1.0000 0.34770  0.44420  0.20880  Biso   1.000  H
  C21      1.0000 0.35894  0.50317  0.24364  Biso   1.000  C
  C22      1.0000 0.39449  0.54141  0.26780  Biso   1.000  C
  H18      1.0000 0.38690  0.56290  0.28200  Biso   1.000  H
  C23      1.0000 0.44162  0.54727  0.27055  Biso   1.000  C
  H19      1.0000 0.46540  0.57310  0.28680  Biso   1.000  H
  C24      1.0000 0.01885  0.50742  0.34653  Biso   1.000  C
  H20      1.0000 0.02660  0.53570  0.33100  Biso   1.000  H
  C25      1.0000 0.01856  0.51026  0.38985  Biso   1.000  C
  H21      1.0000 0.02550  0.53970  0.40300  Biso   1.000  H
  C26      1.0000 0.00766  0.46810  0.41351  Biso   1.000  C
  C27      1.0000 0.99828  0.42519  0.39246  Biso   1.000  C
  H22      1.0000 0.99180  0.39680  0.40730  Biso   1.000  H
  C28      1.0000 0.99875  0.42544  0.34874  Biso   1.000  C
  H23      1.0000 0.99200  0.39640  0.33480  Biso   1.000  H
  C29      1.0000 0.00428  0.46801  0.45947  Biso   1.000  C
  H24      1.0000 0.00380  0.44250  0.47510  Biso   1.000  H
  C30      1.0000 0.10009  0.47064  0.21390  Biso   1.000  C
  H25      1.0000 0.09600  0.49220  0.19630  Biso   1.000  H
  C31      1.0000 0.14445  0.47068  0.21246  Biso   1.000  C
  H26      1.0000 0.16970  0.49190  0.19440  Biso   1.000  H
  C32      1.0000 0.15060  0.43819  0.23865  Biso   1.000  C
  C33      1.0000 0.11144  0.40637  0.26375  Biso   1.000  C
  H27      1.0000 0.11410  0.38350  0.28080  Biso   1.000  H
  C34      1.0000 0.06816  0.40859  0.26341  Biso   1.000  C
  H28      1.0000 0.04190  0.38670  0.28040  Biso   1.000  H
  C35      1.0000 0.19866  0.43917  0.24009  Biso   1.000  C
  H29      1.0000 0.20450  0.42150  0.26070  Biso   1.000  H
  C36      1.0000 0.30905  0.49773  0.23934  Biso   1.000  C
  H30      1.0000 0.30190  0.51970  0.25320  Biso   1.000  H
  N7       1.0000 0.45422  0.51715  0.25078  Biso   1.000  N
  N8       1.0000 0.00836  0.46533  0.32577  Biso   1.000  N
  N9       1.0000 0.00204  0.50338  0.47780  Biso   1.000  N
  N10      1.0000 0.27612  0.46370  0.21714  Biso   1.000  N
  N11      1.0000 0.23175  0.46418  0.21311  Biso   1.000  N
  N12      1.0000 0.06235  0.44084  0.23961  Biso   1.000  N
  C37      1.0000 0.52053  0.93971  0.22845  Biso   1.000  C
  H31      1.0000 0.54210  0.96950  0.21510  Biso   1.000  H
  C38      1.0000 0.52904  0.90021  0.22428  Biso   1.000  C
  H32      1.0000 0.55580  0.90350  0.20880  Biso   1.000  H
  C39      1.0000 0.49683  0.85577  0.24364  Biso   1.000  C
  C40      1.0000 0.45859  0.85308  0.26780  Biso   1.000  C
  H33      1.0000 0.43710  0.82400  0.28200  Biso   1.000  H
  C41      1.0000 0.45273  0.89435  0.27055  Biso   1.000  C
  H34      1.0000 0.42690  0.89230  0.28680  Biso   1.000  H
  C42      1.0000 0.49258  0.51143  0.34653  Biso   1.000  C
  H35      1.0000 0.46430  0.49090  0.33100  Biso   1.000  H
  C43      1.0000 0.48974  0.50830  0.38985  Biso   1.000  C
  H36      1.0000 0.46030  0.48580  0.40300  Biso   1.000  H
  C44      1.0000 0.53190  0.53956  0.41351  Biso   1.000  C
  C45      1.0000 0.57481  0.57309  0.39246  Biso   1.000  C
  H37      1.0000 0.60320  0.59500  0.40730  Biso   1.000  H
  C46      1.0000 0.57456  0.57331  0.34874  Biso   1.000  C
  H38      1.0000 0.60360  0.59560  0.33480  Biso   1.000  H
  C47      1.0000 0.53199  0.53627  0.45947  Biso   1.000  C
  H39      1.0000 0.55750  0.56130  0.47510  Biso   1.000  H
  C48      1.0000 0.52936  0.62945  0.21390  Biso   1.000  C
  H40      1.0000 0.50780  0.60380  0.19630  Biso   1.000  H
  C49      1.0000 0.52932  0.67377  0.21246  Biso   1.000  C
  H41      1.0000 0.50810  0.67780  0.19440  Biso   1.000  H
  C50      1.0000 0.56181  0.71241  0.23865  Biso   1.000  C
  C51      1.0000 0.59363  0.70507  0.26375  Biso   1.000  C
  H42      1.0000 0.61650  0.73060  0.28080  Biso   1.000  H
  C52      1.0000 0.59141  0.65957  0.26341  Biso   1.000  C
  H43      1.0000 0.61330  0.65520  0.28040  Biso   1.000  H
  C53      1.0000 0.56083  0.75949  0.24009  Biso   1.000  C
  H44      1.0000 0.57850  0.78300  0.26070  Biso   1.000  H
  C54      1.0000 0.50227  0.81132  0.23934  Biso   1.000  C
  H45      1.0000 0.48030  0.78220  0.25320  Biso   1.000  H
  N13      1.0000 0.48285  0.93707  0.25078  Biso   1.000  N
  N14      1.0000 0.53467  0.54303  0.32577  Biso   1.000  N
  N15      1.0000 0.49662  0.49866  0.47780  Biso   1.000  N
  N16      1.0000 0.53630  0.81242  0.21714  Biso   1.000  N
  N17      1.0000 0.53582  0.76757  0.21311  Biso   1.000  N
  N18      1.0000 0.55916  0.62151  0.23961  Biso   1.000  N
  C55      1.0000 0.58082  0.06029  0.27155  Biso   1.000  C
  H46      1.0000 0.57260  0.03050  0.28490  Biso   1.000  H
  C56      1.0000 0.62883  0.09979  0.27572  Biso   1.000  C
  H47      1.0000 0.65230  0.09650  0.29120  Biso   1.000  H
  C57      1.0000 0.64106  0.14423  0.25636  Biso   1.000  C
  C58      1.0000 0.60551  0.14692  0.23220  Biso   1.000  C
  H48      1.0000 0.61310  0.17600  0.21800  Biso   1.000  H
  C59      1.0000 0.55838  0.10565  0.22945  Biso   1.000  C
  H49      1.0000 0.53460  0.10770  0.21320  Biso   1.000  H
  C60      1.0000 0.98115  0.48857  0.15347  Biso   1.000  C
  H50      1.0000 0.97340  0.50910  0.16900  Biso   1.000  H
  C61      1.0000 0.98144  0.49170  0.11015  Biso   1.000  C
  H51      1.0000 0.97450  0.51420  0.09700  Biso   1.000  H
  C62      1.0000 0.99234  0.46044  0.08649  Biso   1.000  C
  C63      1.0000 0.00172  0.42691  0.10754  Biso   1.000  C
  H52      1.0000 0.00820  0.40500  0.09270  Biso   1.000  H
  C64      1.0000 0.00125  0.42669  0.15126  Biso   1.000  C
  H53      1.0000 0.00800  0.40440  0.16520  Biso   1.000  H
  C65      1.0000 0.99572  0.46373  0.04053  Biso   1.000  C
  H54      1.0000 0.99620  0.43870  0.02490  Biso   1.000  H
  C66      1.0000 0.89991  0.37055  0.28610  Biso   1.000  C
  H55      1.0000 0.90400  0.39620  0.30370  Biso   1.000  H
  C67      1.0000 0.85555  0.32623  0.28754  Biso   1.000  C
  H56      1.0000 0.83030  0.32220  0.30560  Biso   1.000  H
  C68      1.0000 0.84940  0.28759  0.26135  Biso   1.000  C
  C69      1.0000 0.88856  0.29493  0.23625  Biso   1.000  C
  H57      1.0000 0.88590  0.26940  0.21920  Biso   1.000  H
  C70      1.0000 0.93184  0.34043  0.23659  Biso   1.000  C
  H58      1.0000 0.95810  0.34480  0.21960  Biso   1.000  H
  C71      1.0000 0.80134  0.24051  0.25991  Biso   1.000  C
  H59      1.0000 0.79550  0.21700  0.23930  Biso   1.000  H
  C72      1.0000 0.69095  0.18868  0.26066  Biso   1.000  C
  H60      1.0000 0.69810  0.21780  0.24680  Biso   1.000  H
  N19      1.0000 0.54578  0.06293  0.24922  Biso   1.000  N
  N20      1.0000 0.99164  0.45697  0.17423  Biso   1.000  N
  N21      1.0000 0.99796  0.50134  0.02220  Biso   1.000  N
  N22      1.0000 0.72388  0.18758  0.28286  Biso   1.000  N
  N23      1.0000 0.76825  0.23243  0.28689  Biso   1.000  N
  N24      1.0000 0.93765  0.37849  0.26039  Biso   1.000  N
  C73      1.0000 0.47947  0.41918  0.27155  Biso   1.000  C
  H61      1.0000 0.45790  0.42740  0.28490  Biso   1.000  H
  C74      1.0000 0.47096  0.37117  0.27572  Biso   1.000  C
  H62      1.0000 0.44420  0.34770  0.29120  Biso   1.000  H
  C75      1.0000 0.50317  0.35894  0.25636  Biso   1.000  C
  C76      1.0000 0.54141  0.39449  0.23220  Biso   1.000  C
  H63      1.0000 0.56290  0.38690  0.21800  Biso   1.000  H
  C77      1.0000 0.54727  0.44162  0.22945  Biso   1.000  C
  H64      1.0000 0.57310  0.46540  0.21320  Biso   1.000  H
  C78      1.0000 0.50742  0.01885  0.15347  Biso   1.000  C
  H65      1.0000 0.53570  0.02660  0.16900  Biso   1.000  H
  C79      1.0000 0.51026  0.01856  0.11015  Biso   1.000  C
  H66      1.0000 0.53970  0.02550  0.09700  Biso   1.000  H
  C80      1.0000 0.46810  0.00766  0.08649  Biso   1.000  C
  C81      1.0000 0.42519  0.99828  0.10754  Biso   1.000  C
  H67      1.0000 0.39680  0.99180  0.09270  Biso   1.000  H
  C82      1.0000 0.42544  0.99875  0.15126  Biso   1.000  C
  H68      1.0000 0.39640  0.99200  0.16520  Biso   1.000  H
  C83      1.0000 0.46801  0.00428  0.04053  Biso   1.000  C
  H69      1.0000 0.44250  0.00380  0.02490  Biso   1.000  H
  C84      1.0000 0.47064  0.10009  0.28610  Biso   1.000  C
  H70      1.0000 0.49220  0.09600  0.30370  Biso   1.000  H
  C85      1.0000 0.47068  0.14445  0.28754  Biso   1.000  C
  H71      1.0000 0.49190  0.16970  0.30560  Biso   1.000  H
  C86      1.0000 0.43819  0.15060  0.26135  Biso   1.000  C
  C87      1.0000 0.40637  0.11144  0.23625  Biso   1.000  C
  H72      1.0000 0.38350  0.11410  0.21920  Biso   1.000  H
  C88      1.0000 0.40859  0.06816  0.23659  Biso   1.000  C
  H73      1.0000 0.38670  0.04190  0.21960  Biso   1.000  H
  C89      1.0000 0.43917  0.19866  0.25991  Biso   1.000  C
  H74      1.0000 0.42150  0.20450  0.23930  Biso   1.000  H
  C90      1.0000 0.49773  0.30905  0.26066  Biso   1.000  C
  H75      1.0000 0.51970  0.30190  0.24680  Biso   1.000  H
  N25      1.0000 0.51715  0.45422  0.24922  Biso   1.000  N
  N26      1.0000 0.46533  0.00836  0.17423  Biso   1.000  N
  N27      1.0000 0.50338  0.00204  0.02220  Biso   1.000  N
  N28      1.0000 0.46370  0.27612  0.28286  Biso   1.000  N
  N29      1.0000 0.46418  0.23175  0.28689  Biso   1.000  N
  N30      1.0000 0.44084  0.06235  0.26039  Biso   1.000  N
  C91      1.0000 0.93971  0.52053  0.27155  Biso   1.000  C
  H76      1.0000 0.96950  0.54210  0.28490  Biso   1.000  H
  C92      1.0000 0.90021  0.52904  0.27572  Biso   1.000  C
  H77      1.0000 0.90350  0.55580  0.29120  Biso   1.000  H
  C93      1.0000 0.85577  0.49683  0.25636  Biso   1.000  C
  C94      1.0000 0.85308  0.45859  0.23220  Biso   1.000  C
  H78      1.0000 0.82400  0.43710  0.21800  Biso   1.000  H
  C95      1.0000 0.89435  0.45273  0.22945  Biso   1.000  C
  H79      1.0000 0.89230  0.42690  0.21320  Biso   1.000  H
  C96      1.0000 0.51143  0.49258  0.15347  Biso   1.000  C
  H80      1.0000 0.49090  0.46430  0.16900  Biso   1.000  H
  C97      1.0000 0.50830  0.48974  0.11015  Biso   1.000  C
  H81      1.0000 0.48580  0.46030  0.09700  Biso   1.000  H
  C98      1.0000 0.53956  0.53190  0.08649  Biso   1.000  C
  C99      1.0000 0.57309  0.57481  0.10754  Biso   1.000  C
  H82      1.0000 0.59500  0.60320  0.09270  Biso   1.000  H
  C100     1.0000 0.57331  0.57456  0.15126  Biso   1.000  C
  H83      1.0000 0.59560  0.60360  0.16520  Biso   1.000  H
  C101     1.0000 0.53627  0.53199  0.04053  Biso   1.000  C
  H84      1.0000 0.56130  0.55750  0.02490  Biso   1.000  H
  C102     1.0000 0.62945  0.52936  0.28610  Biso   1.000  C
  H85      1.0000 0.60380  0.50780  0.30370  Biso   1.000  H
  C103     1.0000 0.67377  0.52932  0.28754  Biso   1.000  C
  H86      1.0000 0.67780  0.50810  0.30560  Biso   1.000  H
  C104     1.0000 0.71241  0.56181  0.26135  Biso   1.000  C
  C105     1.0000 0.70507  0.59363  0.23625  Biso   1.000  C
  H87      1.0000 0.73060  0.61650  0.21920  Biso   1.000  H
  C106     1.0000 0.65957  0.59141  0.23659  Biso   1.000  C
  H88      1.0000 0.65520  0.61330  0.21960  Biso   1.000  H
  C107     1.0000 0.75949  0.56083  0.25991  Biso   1.000  C
  H89      1.0000 0.78300  0.57850  0.23930  Biso   1.000  H
  C108     1.0000 0.81132  0.50227  0.26066  Biso   1.000  C
  H90      1.0000 0.78220  0.48030  0.24680  Biso   1.000  H
  N31      1.0000 0.93707  0.48285  0.24922  Biso   1.000  N
  N32      1.0000 0.54303  0.53467  0.17423  Biso   1.000  N
  N33      1.0000 0.49866  0.49662  0.02220  Biso   1.000  N
  N34      1.0000 0.81242  0.53630  0.28286  Biso   1.000  N
  N35      1.0000 0.76757  0.53582  0.28689  Biso   1.000  N
  N36      1.0000 0.62151  0.55916  0.26039  Biso   1.000  N
  C109     1.0000 0.93971  0.41918  0.77155  Biso   1.000  C
  H91      1.0000 0.96950  0.42740  0.78490  Biso   1.000  H
  C110     1.0000 0.90021  0.37117  0.77572  Biso   1.000  C
  H92      1.0000 0.90350  0.34770  0.79120  Biso   1.000  H
  C111     1.0000 0.85577  0.35894  0.75636  Biso   1.000  C
  C112     1.0000 0.85308  0.39449  0.73220  Biso   1.000  C
  H93      1.0000 0.82400  0.38690  0.71800  Biso   1.000  H
  C113     1.0000 0.89435  0.44162  0.72945  Biso   1.000  C
  H94      1.0000 0.89230  0.46540  0.71320  Biso   1.000  H
  C114     1.0000 0.51143  0.01885  0.65347  Biso   1.000  C
  H95      1.0000 0.49090  0.02660  0.66900  Biso   1.000  H
  C115     1.0000 0.50830  0.01856  0.61015  Biso   1.000  C
  H96      1.0000 0.48580  0.02550  0.59700  Biso   1.000  H
  C116     1.0000 0.53956  0.00766  0.58649  Biso   1.000  C
  C117     1.0000 0.57309  0.99828  0.60754  Biso   1.000  C
  H97      1.0000 0.59500  0.99180  0.59270  Biso   1.000  H
  C118     1.0000 0.57331  0.99875  0.65126  Biso   1.000  C
  H98      1.0000 0.59560  0.99200  0.66520  Biso   1.000  H
  C119     1.0000 0.53627  0.00428  0.54053  Biso   1.000  C
  H99      1.0000 0.56130  0.00380  0.52490  Biso   1.000  H
  C120     1.0000 0.62945  0.10009  0.78610  Biso   1.000  C
  H100     1.0000 0.60380  0.09600  0.80370  Biso   1.000  H
  C121     1.0000 0.67377  0.14445  0.78754  Biso   1.000  C
  H101     1.0000 0.67780  0.16970  0.80560  Biso   1.000  H
  C122     1.0000 0.71241  0.15060  0.76135  Biso   1.000  C
  C123     1.0000 0.70507  0.11144  0.73625  Biso   1.000  C
  H102     1.0000 0.73060  0.11410  0.71920  Biso   1.000  H
  C124     1.0000 0.65957  0.06816  0.73659  Biso   1.000  C
  H103     1.0000 0.65520  0.04190  0.71960  Biso   1.000  H
  C125     1.0000 0.75949  0.19866  0.75991  Biso   1.000  C
  H104     1.0000 0.78300  0.20450  0.73930  Biso   1.000  H
  C126     1.0000 0.81132  0.30905  0.76066  Biso   1.000  C
  H105     1.0000 0.78220  0.30190  0.74680  Biso   1.000  H
  N37      1.0000 0.93707  0.45422  0.74922  Biso   1.000  N
  N38      1.0000 0.54303  0.00836  0.67423  Biso   1.000  N
  N39      1.0000 0.49866  0.00204  0.52220  Biso   1.000  N
  N40      1.0000 0.81242  0.27612  0.78286  Biso   1.000  N
  N41      1.0000 0.76757  0.23175  0.78689  Biso   1.000  N
  N42      1.0000 0.62151  0.06235  0.76039  Biso   1.000  N
  C127     1.0000 0.58082  0.52053  0.77155  Biso   1.000  C
  H106     1.0000 0.57260  0.54210  0.78490  Biso   1.000  H
  C128     1.0000 0.62883  0.52904  0.77572  Biso   1.000  C
  H107     1.0000 0.65230  0.55580  0.79120  Biso   1.000  H
  C129     1.0000 0.64106  0.49683  0.75636  Biso   1.000  C
  C130     1.0000 0.60551  0.45859  0.73220  Biso   1.000  C
  H108     1.0000 0.61310  0.43710  0.71800  Biso   1.000  H
  C131     1.0000 0.55838  0.45273  0.72945  Biso   1.000  C
  H109     1.0000 0.53460  0.42690  0.71320  Biso   1.000  H
  C132     1.0000 0.98115  0.49258  0.65347  Biso   1.000  C
  H110     1.0000 0.97340  0.46430  0.66900  Biso   1.000  H
  C133     1.0000 0.98144  0.48974  0.61015  Biso   1.000  C
  H111     1.0000 0.97450  0.46030  0.59700  Biso   1.000  H
  C134     1.0000 0.99234  0.53190  0.58649  Biso   1.000  C
  C135     1.0000 0.00172  0.57481  0.60754  Biso   1.000  C
  H112     1.0000 0.00820  0.60320  0.59270  Biso   1.000  H
  C136     1.0000 0.00125  0.57456  0.65126  Biso   1.000  C
  H113     1.0000 0.00800  0.60360  0.66520  Biso   1.000  H
  C137     1.0000 0.99572  0.53199  0.54053  Biso   1.000  C
  H114     1.0000 0.99620  0.55750  0.52490  Biso   1.000  H
  C138     1.0000 0.89991  0.52936  0.78610  Biso   1.000  C
  H115     1.0000 0.90400  0.50780  0.80370  Biso   1.000  H
  C139     1.0000 0.85555  0.52932  0.78754  Biso   1.000  C
  H116     1.0000 0.83030  0.50810  0.80560  Biso   1.000  H
  C140     1.0000 0.84940  0.56181  0.76135  Biso   1.000  C
  C141     1.0000 0.88856  0.59363  0.73625  Biso   1.000  C
  H117     1.0000 0.88590  0.61650  0.71920  Biso   1.000  H
  C142     1.0000 0.93184  0.59141  0.73659  Biso   1.000  C
  H118     1.0000 0.95810  0.61330  0.71960  Biso   1.000  H
  C143     1.0000 0.80134  0.56083  0.75991  Biso   1.000  C
  H119     1.0000 0.79550  0.57850  0.73930  Biso   1.000  H
  C144     1.0000 0.69095  0.50227  0.76066  Biso   1.000  C
  H120     1.0000 0.69810  0.48030  0.74680  Biso   1.000  H
  N43      1.0000 0.54578  0.48285  0.74922  Biso   1.000  N
  N44      1.0000 0.99164  0.53467  0.67423  Biso   1.000  N
  N45      1.0000 0.99796  0.49662  0.52220  Biso   1.000  N
  N46      1.0000 0.72388  0.53630  0.78286  Biso   1.000  N
  N47      1.0000 0.76825  0.53582  0.78689  Biso   1.000  N
  N48      1.0000 0.93765  0.55916  0.76039  Biso   1.000  N
  C145     1.0000 0.47947  0.06029  0.77155  Biso   1.000  C
  H121     1.0000 0.45790  0.03050  0.78490  Biso   1.000  H
  C146     1.0000 0.47096  0.09979  0.77572  Biso   1.000  C
  H122     1.0000 0.44420  0.09650  0.79120  Biso   1.000  H
  C147     1.0000 0.50317  0.14423  0.75636  Biso   1.000  C
  C148     1.0000 0.54141  0.14692  0.73220  Biso   1.000  C
  H123     1.0000 0.56290  0.17600  0.71800  Biso   1.000  H
  C149     1.0000 0.54727  0.10565  0.72945  Biso   1.000  C
  H124     1.0000 0.57310  0.10770  0.71320  Biso   1.000  H
  C150     1.0000 0.50742  0.48857  0.65347  Biso   1.000  C
  H125     1.0000 0.53570  0.50910  0.66900  Biso   1.000  H
  C151     1.0000 0.51026  0.49170  0.61015  Biso   1.000  C
  H126     1.0000 0.53970  0.51420  0.59700  Biso   1.000  H
  C152     1.0000 0.46810  0.46044  0.58649  Biso   1.000  C
  C153     1.0000 0.42519  0.42691  0.60754  Biso   1.000  C
  H127     1.0000 0.39680  0.40500  0.59270  Biso   1.000  H
  C154     1.0000 0.42544  0.42669  0.65126  Biso   1.000  C
  H128     1.0000 0.39640  0.40440  0.66520  Biso   1.000  H
  C155     1.0000 0.46801  0.46373  0.54053  Biso   1.000  C
  H129     1.0000 0.44250  0.43870  0.52490  Biso   1.000  H
  C156     1.0000 0.47064  0.37055  0.78610  Biso   1.000  C
  H130     1.0000 0.49220  0.39620  0.80370  Biso   1.000  H
  C157     1.0000 0.47068  0.32623  0.78754  Biso   1.000  C
  H131     1.0000 0.49190  0.32220  0.80560  Biso   1.000  H
  C158     1.0000 0.43819  0.28759  0.76135  Biso   1.000  C
  C159     1.0000 0.40637  0.29493  0.73625  Biso   1.000  C
  H132     1.0000 0.38350  0.26940  0.71920  Biso   1.000  H
  C160     1.0000 0.40859  0.34043  0.73659  Biso   1.000  C
  H133     1.0000 0.38670  0.34480  0.71960  Biso   1.000  H
  C161     1.0000 0.43917  0.24051  0.75991  Biso   1.000  C
  H134     1.0000 0.42150  0.21700  0.73930  Biso   1.000  H
  C162     1.0000 0.49773  0.18868  0.76066  Biso   1.000  C
  H135     1.0000 0.51970  0.21780  0.74680  Biso   1.000  H
  N49      1.0000 0.51715  0.06293  0.74922  Biso   1.000  N
  N50      1.0000 0.46533  0.45697  0.67423  Biso   1.000  N
  N51      1.0000 0.50338  0.50134  0.52220  Biso   1.000  N
  N52      1.0000 0.46370  0.18758  0.78286  Biso   1.000  N
  N53      1.0000 0.46418  0.23243  0.78689  Biso   1.000  N
  N54      1.0000 0.44084  0.37849  0.76039  Biso   1.000  N
  C163     1.0000 0.41918  0.93971  0.72845  Biso   1.000  C
  H136     1.0000 0.42740  0.96950  0.71510  Biso   1.000  H
  C164     1.0000 0.37117  0.90021  0.72428  Biso   1.000  C
  H137     1.0000 0.34770  0.90350  0.70880  Biso   1.000  H
  C165     1.0000 0.35894  0.85577  0.74364  Biso   1.000  C
  C166     1.0000 0.39449  0.85308  0.76780  Biso   1.000  C
  H138     1.0000 0.38690  0.82400  0.78200  Biso   1.000  H
  C167     1.0000 0.44162  0.89435  0.77055  Biso   1.000  C
  H139     1.0000 0.46540  0.89230  0.78680  Biso   1.000  H
  C168     1.0000 0.01885  0.51143  0.84653  Biso   1.000  C
  H140     1.0000 0.02660  0.49090  0.83100  Biso   1.000  H
  C169     1.0000 0.01856  0.50830  0.88985  Biso   1.000  C
  H141     1.0000 0.02550  0.48580  0.90300  Biso   1.000  H
  C170     1.0000 0.00766  0.53956  0.91351  Biso   1.000  C
  C171     1.0000 0.99828  0.57309  0.89246  Biso   1.000  C
  H142     1.0000 0.99180  0.59500  0.90730  Biso   1.000  H
  C172     1.0000 0.99875  0.57331  0.84874  Biso   1.000  C
  H143     1.0000 0.99200  0.59560  0.83480  Biso   1.000  H
  C173     1.0000 0.00428  0.53627  0.95947  Biso   1.000  C
  H144     1.0000 0.00380  0.56130  0.97510  Biso   1.000  H
  C174     1.0000 0.10009  0.62945  0.71390  Biso   1.000  C
  H145     1.0000 0.09600  0.60380  0.69630  Biso   1.000  H
  C175     1.0000 0.14445  0.67377  0.71246  Biso   1.000  C
  H146     1.0000 0.16970  0.67780  0.69440  Biso   1.000  H
  C176     1.0000 0.15060  0.71241  0.73865  Biso   1.000  C
  C177     1.0000 0.11144  0.70507  0.76375  Biso   1.000  C
  H147     1.0000 0.11410  0.73060  0.78080  Biso   1.000  H
  C178     1.0000 0.06816  0.65957  0.76341  Biso   1.000  C
  H148     1.0000 0.04190  0.65520  0.78040  Biso   1.000  H
  C179     1.0000 0.19866  0.75949  0.74009  Biso   1.000  C
  H149     1.0000 0.20450  0.78300  0.76070  Biso   1.000  H
  C180     1.0000 0.30905  0.81132  0.73934  Biso   1.000  C
  H150     1.0000 0.30190  0.78220  0.75320  Biso   1.000  H
  N55      1.0000 0.45422  0.93707  0.75078  Biso   1.000  N
  N56      1.0000 0.00836  0.54303  0.82577  Biso   1.000  N
  N57      1.0000 0.00204  0.49866  0.97780  Biso   1.000  N
  N58      1.0000 0.27612  0.81242  0.71714  Biso   1.000  N
  N59      1.0000 0.23175  0.76757  0.71311  Biso   1.000  N
  N60      1.0000 0.06235  0.62151  0.73961  Biso   1.000  N
  C181     1.0000 0.52053  0.58082  0.72845  Biso   1.000  C
  H151     1.0000 0.54210  0.57260  0.71510  Biso   1.000  H
  C182     1.0000 0.52904  0.62883  0.72428  Biso   1.000  C
  H152     1.0000 0.55580  0.65230  0.70880  Biso   1.000  H
  C183     1.0000 0.49683  0.64106  0.74364  Biso   1.000  C
  C184     1.0000 0.45859  0.60551  0.76780  Biso   1.000  C
  H153     1.0000 0.43710  0.61310  0.78200  Biso   1.000  H
  C185     1.0000 0.45273  0.55838  0.77055  Biso   1.000  C
  H154     1.0000 0.42690  0.53460  0.78680  Biso   1.000  H
  C186     1.0000 0.49258  0.98115  0.84653  Biso   1.000  C
  H155     1.0000 0.46430  0.97340  0.83100  Biso   1.000  H
  C187     1.0000 0.48974  0.98144  0.88985  Biso   1.000  C
  H156     1.0000 0.46030  0.97450  0.90300  Biso   1.000  H
  C188     1.0000 0.53190  0.99234  0.91351  Biso   1.000  C
  C189     1.0000 0.57481  0.00172  0.89246  Biso   1.000  C
  H157     1.0000 0.60320  0.00820  0.90730  Biso   1.000  H
  C190     1.0000 0.57456  0.00125  0.84874  Biso   1.000  C
  H158     1.0000 0.60360  0.00800  0.83480  Biso   1.000  H
  C191     1.0000 0.53199  0.99572  0.95947  Biso   1.000  C
  H159     1.0000 0.55750  0.99620  0.97510  Biso   1.000  H
  C192     1.0000 0.52936  0.89991  0.71390  Biso   1.000  C
  H160     1.0000 0.50780  0.90400  0.69630  Biso   1.000  H
  C193     1.0000 0.52932  0.85555  0.71246  Biso   1.000  C
  H161     1.0000 0.50810  0.83030  0.69440  Biso   1.000  H
  C194     1.0000 0.56181  0.84940  0.73865  Biso   1.000  C
  C195     1.0000 0.59363  0.88856  0.76375  Biso   1.000  C
  H162     1.0000 0.61650  0.88590  0.78080  Biso   1.000  H
  C196     1.0000 0.59141  0.93184  0.76341  Biso   1.000  C
  H163     1.0000 0.61330  0.95810  0.78040  Biso   1.000  H
  C197     1.0000 0.56083  0.80134  0.74009  Biso   1.000  C
  H164     1.0000 0.57850  0.79550  0.76070  Biso   1.000  H
  C198     1.0000 0.50227  0.69095  0.73934  Biso   1.000  C
  H165     1.0000 0.48030  0.69810  0.75320  Biso   1.000  H
  N61      1.0000 0.48285  0.54578  0.75078  Biso   1.000  N
  N62      1.0000 0.53467  0.99164  0.82577  Biso   1.000  N
  N63      1.0000 0.49662  0.99796  0.97780  Biso   1.000  N
  N64      1.0000 0.53630  0.72388  0.71714  Biso   1.000  N
  N65      1.0000 0.53582  0.76825  0.71311  Biso   1.000  N
  N66      1.0000 0.55916  0.93765  0.73961  Biso   1.000  N
  C199     1.0000 0.06029  0.47947  0.72845  Biso   1.000  C
  H166     1.0000 0.03050  0.45790  0.71510  Biso   1.000  H
  C200     1.0000 0.09979  0.47096  0.72428  Biso   1.000  C
  H167     1.0000 0.09650  0.44420  0.70880  Biso   1.000  H
  C201     1.0000 0.14423  0.50317  0.74364  Biso   1.000  C
  C202     1.0000 0.14692  0.54141  0.76780  Biso   1.000  C
  H168     1.0000 0.17600  0.56290  0.78200  Biso   1.000  H
  C203     1.0000 0.10565  0.54727  0.77055  Biso   1.000  C
  H169     1.0000 0.10770  0.57310  0.78680  Biso   1.000  H
  C204     1.0000 0.48857  0.50742  0.84653  Biso   1.000  C
  H170     1.0000 0.50910  0.53570  0.83100  Biso   1.000  H
  C205     1.0000 0.49170  0.51026  0.88985  Biso   1.000  C
  H171     1.0000 0.51420  0.53970  0.90300  Biso   1.000  H
  C206     1.0000 0.46044  0.46810  0.91351  Biso   1.000  C
  C207     1.0000 0.42691  0.42519  0.89246  Biso   1.000  C
  H172     1.0000 0.40500  0.39680  0.90730  Biso   1.000  H
  C208     1.0000 0.42669  0.42544  0.84874  Biso   1.000  C
  H173     1.0000 0.40440  0.39640  0.83480  Biso   1.000  H
  C209     1.0000 0.46373  0.46801  0.95947  Biso   1.000  C
  H174     1.0000 0.43870  0.44250  0.97510  Biso   1.000  H
  C210     1.0000 0.37055  0.47064  0.71390  Biso   1.000  C
  H175     1.0000 0.39620  0.49220  0.69630  Biso   1.000  H
  C211     1.0000 0.32623  0.47068  0.71246  Biso   1.000  C
  H176     1.0000 0.32220  0.49190  0.69440  Biso   1.000  H
  C212     1.0000 0.28759  0.43819  0.73865  Biso   1.000  C
  C213     1.0000 0.29493  0.40637  0.76375  Biso   1.000  C
  H177     1.0000 0.26940  0.38350  0.78080  Biso   1.000  H
  C214     1.0000 0.34043  0.40859  0.76341  Biso   1.000  C
  H178     1.0000 0.34480  0.38670  0.78040  Biso   1.000  H
  C215     1.0000 0.24051  0.43917  0.74009  Biso   1.000  C
  H179     1.0000 0.21700  0.42150  0.76070  Biso   1.000  H
  C216     1.0000 0.18868  0.49773  0.73934  Biso   1.000  C
  H180     1.0000 0.21780  0.51970  0.75320  Biso   1.000  H
  N67      1.0000 0.06293  0.51715  0.75078  Biso   1.000  N
  N68      1.0000 0.45697  0.46533  0.82577  Biso   1.000  N
  N69      1.0000 0.50134  0.50338  0.97780  Biso   1.000  N
  N70      1.0000 0.18758  0.46370  0.71714  Biso   1.000  N
  N71      1.0000 0.23243  0.46418  0.71311  Biso   1.000  N
  N72      1.0000 0.37849  0.44084  0.73961  Biso   1.000  N
  Cd1      1.0000 0.46116  0.00000  0.25000  Biso   1.000  Cd
  Cd2      1.0000 0.00000  0.46116  0.25000  Biso   1.000  Cd
  Cd3      1.0000 0.53884  0.53884  0.25000  Biso   1.000  Cd
  Cd4      1.0000 0.53884  0.00000  0.75000  Biso   1.000  Cd
  Cd5      1.0000 0.00000  0.53884  0.75000  Biso   1.000  Cd
  Cd6      1.0000 0.46116  0.46116  0.75000  Biso   1.000  Cd
  C217     1.0000 0.72696  0.91415  0.56178  Biso   1.000  C
  H181     1.0000 0.69717  0.90593  0.54843  Biso   1.000  H
  C218     1.0000 0.76646  0.96216  0.55761  Biso   1.000  C
  H182     1.0000 0.76317  0.98563  0.54213  Biso   1.000  H
  C219     1.0000 0.81090  0.97439  0.57697  Biso   1.000  C
  C220     1.0000 0.81359  0.93884  0.60113  Biso   1.000  C
  H183     1.0000 0.84267  0.94643  0.61533  Biso   1.000  H
  C221     1.0000 0.77232  0.89171  0.60388  Biso   1.000  C
  H184     1.0000 0.77437  0.86793  0.62013  Biso   1.000  H
  C222     1.0000 0.15524  0.31448  0.67986  Biso   1.000  C
  H185     1.0000 0.17577  0.30673  0.66433  Biso   1.000  H
  C223     1.0000 0.15837  0.31477  0.72318  Biso   1.000  C
  H186     1.0000 0.18087  0.30783  0.73633  Biso   1.000  H
  C224     1.0000 0.12711  0.32567  0.74684  Biso   1.000  C
  C225     1.0000 0.09358  0.33505  0.72579  Biso   1.000  C
  H187     1.0000 0.07167  0.34153  0.74063  Biso   1.000  H
  C226     1.0000 0.09336  0.33458  0.68207  Biso   1.000  C
  H188     1.0000 0.07107  0.34133  0.66813  Biso   1.000  H
  C227     1.0000 0.13040  0.32905  0.79280  Biso   1.000  C
  H189     1.0000 0.10537  0.32953  0.80843  Biso   1.000  H
  C228     1.0000 0.03722  0.23324  0.54723  Biso   1.000  C
  H190     1.0000 0.06287  0.23733  0.52963  Biso   1.000  H
  C229     1.0000 0.99290  0.18888  0.54579  Biso   1.000  C
  H191     1.0000 0.98887  0.16363  0.52773  Biso   1.000  H
  C230     1.0000 0.95426  0.18273  0.57198  Biso   1.000  C
  C231     1.0000 0.96160  0.22189  0.59708  Biso   1.000  C
  H192     1.0000 0.93607  0.21923  0.61413  Biso   1.000  H
  C232     1.0000 0.00710  0.26517  0.59674  Biso   1.000  C
  H193     1.0000 0.01147  0.29143  0.61373  Biso   1.000  H
  C233     1.0000 0.90718  0.13467  0.57342  Biso   1.000  C
  H194     1.0000 0.88367  0.12883  0.59403  Biso   1.000  H
  C234     1.0000 0.85535  0.02428  0.57267  Biso   1.000  C
  H195     1.0000 0.88447  0.03143  0.58653  Biso   1.000  H
  N73      1.0000 0.72960  0.87911  0.58411  Biso   1.000  N
  N74      1.0000 0.12364  0.32497  0.65910  Biso   1.000  N
  N75      1.0000 0.16801  0.33129  0.81113  Biso   1.000  N
  N76      1.0000 0.85425  0.05721  0.55047  Biso   1.000  N
  N77      1.0000 0.89910  0.10158  0.54644  Biso   1.000  N
  N78      1.0000 0.04516  0.27098  0.57294  Biso   1.000  N
  C235     1.0000 0.08585  0.81280  0.56178  Biso   1.000  C
  H196     1.0000 0.09407  0.79123  0.54843  Biso   1.000  H
  C236     1.0000 0.03784  0.80429  0.55761  Biso   1.000  C
  H197     1.0000 0.01437  0.77753  0.54213  Biso   1.000  H
  C237     1.0000 0.02561  0.83650  0.57697  Biso   1.000  C
  C238     1.0000 0.06116  0.87474  0.60113  Biso   1.000  C
  H198     1.0000 0.05357  0.89623  0.61533  Biso   1.000  H
  C239     1.0000 0.10829  0.88060  0.60388  Biso   1.000  C
  H199     1.0000 0.13207  0.90643  0.62013  Biso   1.000  H
  C240     1.0000 0.68552  0.84075  0.67986  Biso   1.000  C
  H200     1.0000 0.69327  0.86903  0.66433  Biso   1.000  H
  C241     1.0000 0.68523  0.84359  0.72318  Biso   1.000  C
  H201     1.0000 0.69217  0.87303  0.73633  Biso   1.000  H
  C242     1.0000 0.67433  0.80143  0.74684  Biso   1.000  C
  C243     1.0000 0.66495  0.75852  0.72579  Biso   1.000  C
  H202     1.0000 0.65847  0.73013  0.74063  Biso   1.000  H
  C244     1.0000 0.66542  0.75877  0.68207  Biso   1.000  C
  H203     1.0000 0.65867  0.72973  0.66813  Biso   1.000  H
  C245     1.0000 0.67095  0.80134  0.79280  Biso   1.000  C
  H204     1.0000 0.67047  0.77583  0.80843  Biso   1.000  H
  C246     1.0000 0.76676  0.80397  0.54723  Biso   1.000  C
  H205     1.0000 0.76267  0.82553  0.52963  Biso   1.000  H
  C247     1.0000 0.81112  0.80401  0.54579  Biso   1.000  C
  H206     1.0000 0.83637  0.82523  0.52773  Biso   1.000  H
  C248     1.0000 0.81727  0.77152  0.57198  Biso   1.000  C
  C249     1.0000 0.77811  0.73970  0.59708  Biso   1.000  C
  H207     1.0000 0.78077  0.71683  0.61413  Biso   1.000  H
  C250     1.0000 0.73483  0.74192  0.59674  Biso   1.000  C
  H208     1.0000 0.70857  0.72003  0.61373  Biso   1.000  H
  C251     1.0000 0.86533  0.77250  0.57342  Biso   1.000  C
  H209     1.0000 0.87117  0.75483  0.59403  Biso   1.000  H
  C252     1.0000 0.97572  0.83106  0.57267  Biso   1.000  C
  H210     1.0000 0.96857  0.85303  0.58653  Biso   1.000  H
  N79      1.0000 0.12089  0.85048  0.58411  Biso   1.000  N
  N80      1.0000 0.67503  0.79866  0.65910  Biso   1.000  N
  N81      1.0000 0.66871  0.83671  0.81113  Biso   1.000  N
  N82      1.0000 0.94279  0.79703  0.55047  Biso   1.000  N
  N83      1.0000 0.89842  0.79751  0.54644  Biso   1.000  N
  N84      1.0000 0.72902  0.77417  0.57294  Biso   1.000  N
  C253     1.0000 0.18720  0.27304  0.56178  Biso   1.000  C
  H211     1.0000 0.20877  0.30283  0.54843  Biso   1.000  H
  C254     1.0000 0.19571  0.23354  0.55761  Biso   1.000  C
  H212     1.0000 0.22247  0.23683  0.54213  Biso   1.000  H
  C255     1.0000 0.16350  0.18910  0.57697  Biso   1.000  C
  C256     1.0000 0.12526  0.18641  0.60113  Biso   1.000  C
  H213     1.0000 0.10377  0.15733  0.61533  Biso   1.000  H
  C257     1.0000 0.11940  0.22768  0.60388  Biso   1.000  C
  H214     1.0000 0.09357  0.22563  0.62013  Biso   1.000  H
  C258     1.0000 0.15925  0.84476  0.67986  Biso   1.000  C
  H215     1.0000 0.13097  0.82423  0.66433  Biso   1.000  H
  C259     1.0000 0.15641  0.84163  0.72318  Biso   1.000  C
  H216     1.0000 0.12697  0.81913  0.73633  Biso   1.000  H
  C260     1.0000 0.19857  0.87289  0.74684  Biso   1.000  C
  C261     1.0000 0.24148  0.90642  0.72579  Biso   1.000  C
  H217     1.0000 0.26987  0.92833  0.74063  Biso   1.000  H
  C262     1.0000 0.24123  0.90664  0.68207  Biso   1.000  C
  H218     1.0000 0.27027  0.92893  0.66813  Biso   1.000  H
  C263     1.0000 0.19866  0.86960  0.79280  Biso   1.000  C
  H219     1.0000 0.22417  0.89463  0.80843  Biso   1.000  H
  C264     1.0000 0.19603  0.96278  0.54723  Biso   1.000  C
  H220     1.0000 0.17447  0.93713  0.52963  Biso   1.000  H
  C265     1.0000 0.19599  0.00710  0.54579  Biso   1.000  C
  H221     1.0000 0.17477  0.01113  0.52773  Biso   1.000  H
  C266     1.0000 0.22848  0.04574  0.57198  Biso   1.000  C
  C267     1.0000 0.26030  0.03840  0.59708  Biso   1.000  C
  H222     1.0000 0.28317  0.06393  0.61413  Biso   1.000  H
  C268     1.0000 0.25808  0.99290  0.59674  Biso   1.000  C
  H223     1.0000 0.27997  0.98853  0.61373  Biso   1.000  H
  C269     1.0000 0.22750  0.09282  0.57342  Biso   1.000  C
  H224     1.0000 0.24517  0.11633  0.59403  Biso   1.000  H
  C270     1.0000 0.16894  0.14465  0.57267  Biso   1.000  C
  H225     1.0000 0.14697  0.11553  0.58653  Biso   1.000  H
  N85      1.0000 0.14952  0.27040  0.58411  Biso   1.000  N
  N86      1.0000 0.20134  0.87636  0.65910  Biso   1.000  N
  N87      1.0000 0.16329  0.83199  0.81113  Biso   1.000  N
  N88      1.0000 0.20297  0.14575  0.55047  Biso   1.000  N
  N89      1.0000 0.20249  0.10090  0.54644  Biso   1.000  N
  N90      1.0000 0.22583  0.95484  0.57294  Biso   1.000  N
  C271     1.0000 0.24749  0.39362  0.60488  Biso   1.000  C
  H226     1.0000 0.23927  0.36383  0.61823  Biso   1.000  H
  C272     1.0000 0.29550  0.43312  0.60905  Biso   1.000  C
  H227     1.0000 0.31897  0.42983  0.62453  Biso   1.000  H
  C273     1.0000 0.30773  0.47756  0.58969  Biso   1.000  C
  C274     1.0000 0.27218  0.48025  0.56553  Biso   1.000  C
  H228     1.0000 0.27977  0.50933  0.55133  Biso   1.000  H
  C275     1.0000 0.22505  0.43898  0.56278  Biso   1.000  C
  H229     1.0000 0.20127  0.44103  0.54653  Biso   1.000  H
  C276     1.0000 0.64782  0.82190  0.48680  Biso   1.000  C
  H230     1.0000 0.64007  0.84243  0.50233  Biso   1.000  H
  C277     1.0000 0.64811  0.82503  0.44348  Biso   1.000  C
  H231     1.0000 0.64117  0.84753  0.43033  Biso   1.000  H
  C278     1.0000 0.65901  0.79377  0.41982  Biso   1.000  C
  C279     1.0000 0.66839  0.76024  0.44087  Biso   1.000  C
  H232     1.0000 0.67487  0.73833  0.42603  Biso   1.000  H
  C280     1.0000 0.66792  0.76002  0.48459  Biso   1.000  C
  H233     1.0000 0.67467  0.73773  0.49853  Biso   1.000  H
  C281     1.0000 0.66239  0.79706  0.37386  Biso   1.000  C
  H234     1.0000 0.66287  0.77203  0.35823  Biso   1.000  H
  C282     1.0000 0.56658  0.70388  0.61943  Biso   1.000  C
  H235     1.0000 0.57067  0.72953  0.63703  Biso   1.000  H
  C283     1.0000 0.52222  0.65956  0.62087  Biso   1.000  C
  H236     1.0000 0.49697  0.65553  0.63893  Biso   1.000  H
  C284     1.0000 0.51607  0.62092  0.59468  Biso   1.000  C
  C285     1.0000 0.55523  0.62826  0.56958  Biso   1.000  C
  H237     1.0000 0.55257  0.60273  0.55253  Biso   1.000  H
  C286     1.0000 0.59851  0.67376  0.56992  Biso   1.000  C
  H238     1.0000 0.62477  0.67813  0.55293  Biso   1.000  H
  C287     1.0000 0.46801  0.57384  0.59324  Biso   1.000  C
  H239     1.0000 0.46217  0.55033  0.57263  Biso   1.000  H
  C288     1.0000 0.35762  0.52201  0.59399  Biso   1.000  C
  H240     1.0000 0.36477  0.55113  0.58013  Biso   1.000  H
  N91      1.0000 0.21245  0.39626  0.58255  Biso   1.000  N
  N92      1.0000 0.65831  0.79030  0.50756  Biso   1.000  N
  N93      1.0000 0.66463  0.83467  0.35553  Biso   1.000  N
  N94      1.0000 0.39055  0.52091  0.61619  Biso   1.000  N
  N95      1.0000 0.43492  0.56576  0.62022  Biso   1.000  N
  N96      1.0000 0.60432  0.71182  0.59372  Biso   1.000  N
  C289     1.0000 0.14614  0.75251  0.60488  Biso   1.000  C
  H241     1.0000 0.12457  0.76073  0.61823  Biso   1.000  H
  C290     1.0000 0.13763  0.70450  0.60905  Biso   1.000  C
  H242     1.0000 0.11087  0.68103  0.62453  Biso   1.000  H
  C291     1.0000 0.16984  0.69227  0.58969  Biso   1.000  C
  C292     1.0000 0.20808  0.72782  0.56553  Biso   1.000  C
  H243     1.0000 0.22957  0.72023  0.55133  Biso   1.000  H
  C293     1.0000 0.21394  0.77495  0.56278  Biso   1.000  C
  H244     1.0000 0.23977  0.79873  0.54653  Biso   1.000  H
  C294     1.0000 0.17409  0.35218  0.48680  Biso   1.000  C
  H245     1.0000 0.20237  0.35993  0.50233  Biso   1.000  H
  C295     1.0000 0.17693  0.35189  0.44348  Biso   1.000  C
  H246     1.0000 0.20637  0.35883  0.43033  Biso   1.000  H
  C296     1.0000 0.13477  0.34099  0.41982  Biso   1.000  C
  C297     1.0000 0.09186  0.33161  0.44087  Biso   1.000  C
  H247     1.0000 0.06347  0.32513  0.42603  Biso   1.000  H
  C298     1.0000 0.09211  0.33208  0.48459  Biso   1.000  C
  H248     1.0000 0.06307  0.32533  0.49853  Biso   1.000  H
  C299     1.0000 0.13468  0.33761  0.37386  Biso   1.000  C
  H249     1.0000 0.10917  0.33713  0.35823  Biso   1.000  H
  C300     1.0000 0.13731  0.43342  0.61943  Biso   1.000  C
  H250     1.0000 0.15887  0.42933  0.63703  Biso   1.000  H
  C301     1.0000 0.13735  0.47778  0.62087  Biso   1.000  C
  H251     1.0000 0.15857  0.50303  0.63893  Biso   1.000  H
  C302     1.0000 0.10486  0.48393  0.59468  Biso   1.000  C
  C303     1.0000 0.07304  0.44477  0.56958  Biso   1.000  C
  H252     1.0000 0.05017  0.44743  0.55253  Biso   1.000  H
  C304     1.0000 0.07526  0.40149  0.56992  Biso   1.000  C
  H253     1.0000 0.05337  0.37523  0.55293  Biso   1.000  H
  C305     1.0000 0.10584  0.53199  0.59324  Biso   1.000  C
  H254     1.0000 0.08817  0.53783  0.57263  Biso   1.000  H
  C306     1.0000 0.16440  0.64238  0.59399  Biso   1.000  C
  H255     1.0000 0.18637  0.63523  0.58013  Biso   1.000  H
  N97      1.0000 0.18382  0.78755  0.58255  Biso   1.000  N
  N98      1.0000 0.13200  0.34169  0.50756  Biso   1.000  N
  N99      1.0000 0.17005  0.33537  0.35553  Biso   1.000  N
  N100     1.0000 0.13037  0.60945  0.61619  Biso   1.000  N
  N101     1.0000 0.13085  0.56508  0.62022  Biso   1.000  N
  N102     1.0000 0.10751  0.39568  0.59372  Biso   1.000  N
  C307     1.0000 0.60638  0.85386  0.60488  Biso   1.000  C
  H256     1.0000 0.63617  0.87543  0.61823  Biso   1.000  H
  C308     1.0000 0.56688  0.86237  0.60905  Biso   1.000  C
  H257     1.0000 0.57017  0.88913  0.62453  Biso   1.000  H
  C309     1.0000 0.52244  0.83016  0.58969  Biso   1.000  C
  C310     1.0000 0.51975  0.79192  0.56553  Biso   1.000  C
  H258     1.0000 0.49067  0.77043  0.55133  Biso   1.000  H
  C311     1.0000 0.56102  0.78606  0.56278  Biso   1.000  C
  H259     1.0000 0.55897  0.76023  0.54653  Biso   1.000  H
  C312     1.0000 0.17810  0.82591  0.48680  Biso   1.000  C
  H260     1.0000 0.15757  0.79763  0.50233  Biso   1.000  H
  C313     1.0000 0.17497  0.82307  0.44348  Biso   1.000  C
  H261     1.0000 0.15247  0.79363  0.43033  Biso   1.000  H
  C314     1.0000 0.20623  0.86523  0.41982  Biso   1.000  C
  C315     1.0000 0.23976  0.90814  0.44087  Biso   1.000  C
  H262     1.0000 0.26167  0.93653  0.42603  Biso   1.000  H
  C316     1.0000 0.23998  0.90789  0.48459  Biso   1.000  C
  H263     1.0000 0.26227  0.93693  0.49853  Biso   1.000  H
  C317     1.0000 0.20294  0.86532  0.37386  Biso   1.000  C
  H264     1.0000 0.22797  0.89083  0.35823  Biso   1.000  H
  C318     1.0000 0.29612  0.86269  0.61943  Biso   1.000  C
  H265     1.0000 0.27047  0.84113  0.63703  Biso   1.000  H
  C319     1.0000 0.34044  0.86265  0.62087  Biso   1.000  C
  H266     1.0000 0.34447  0.84143  0.63893  Biso   1.000  H
  C320     1.0000 0.37908  0.89514  0.59468  Biso   1.000  C
  C321     1.0000 0.37174  0.92696  0.56958  Biso   1.000  C
  H267     1.0000 0.39727  0.94983  0.55253  Biso   1.000  H
  C322     1.0000 0.32624  0.92474  0.56992  Biso   1.000  C
  H268     1.0000 0.32187  0.94663  0.55293  Biso   1.000  H
  C323     1.0000 0.42616  0.89416  0.59324  Biso   1.000  C
  H269     1.0000 0.44967  0.91183  0.57263  Biso   1.000  H
  C324     1.0000 0.47799  0.83560  0.59399  Biso   1.000  C
  H270     1.0000 0.44887  0.81363  0.58013  Biso   1.000  H
  N103     1.0000 0.60374  0.81618  0.58255  Biso   1.000  N
  N104     1.0000 0.20970  0.86800  0.50756  Biso   1.000  N
  N105     1.0000 0.16533  0.82995  0.35553  Biso   1.000  N
  N106     1.0000 0.47909  0.86963  0.61619  Biso   1.000  N
  N107     1.0000 0.43424  0.86915  0.62022  Biso   1.000  N
  N108     1.0000 0.28818  0.89249  0.59372  Biso   1.000  N
  C325     1.0000 0.60638  0.75251  0.10488  Biso   1.000  C
  H271     1.0000 0.63617  0.76073  0.11823  Biso   1.000  H
  C326     1.0000 0.56688  0.70450  0.10905  Biso   1.000  C
  H272     1.0000 0.57017  0.68103  0.12453  Biso   1.000  H
  C327     1.0000 0.52244  0.69227  0.08969  Biso   1.000  C
  C328     1.0000 0.51975  0.72782  0.06553  Biso   1.000  C
  H273     1.0000 0.49067  0.72023  0.05133  Biso   1.000  H
  C329     1.0000 0.56102  0.77495  0.06278  Biso   1.000  C
  H274     1.0000 0.55897  0.79873  0.04653  Biso   1.000  H
  C330     1.0000 0.17810  0.35218  0.98680  Biso   1.000  C
  H275     1.0000 0.15757  0.35993  0.00233  Biso   1.000  H
  C331     1.0000 0.17497  0.35189  0.94348  Biso   1.000  C
  H276     1.0000 0.15247  0.35883  0.93033  Biso   1.000  H
  C332     1.0000 0.20623  0.34099  0.91982  Biso   1.000  C
  C333     1.0000 0.23976  0.33161  0.94087  Biso   1.000  C
  H277     1.0000 0.26167  0.32513  0.92603  Biso   1.000  H
  C334     1.0000 0.23998  0.33208  0.98459  Biso   1.000  C
  H278     1.0000 0.26227  0.32533  0.99853  Biso   1.000  H
  C335     1.0000 0.20294  0.33761  0.87386  Biso   1.000  C
  H279     1.0000 0.22797  0.33713  0.85823  Biso   1.000  H
  C336     1.0000 0.29612  0.43342  0.11943  Biso   1.000  C
  H280     1.0000 0.27047  0.42933  0.13703  Biso   1.000  H
  C337     1.0000 0.34044  0.47778  0.12087  Biso   1.000  C
  H281     1.0000 0.34447  0.50303  0.13893  Biso   1.000  H
  C338     1.0000 0.37908  0.48393  0.09468  Biso   1.000  C
  C339     1.0000 0.37174  0.44477  0.06958  Biso   1.000  C
  H282     1.0000 0.39727  0.44743  0.05253  Biso   1.000  H
  C340     1.0000 0.32624  0.40149  0.06992  Biso   1.000  C
  H283     1.0000 0.32187  0.37523  0.05293  Biso   1.000  H
  C341     1.0000 0.42616  0.53199  0.09324  Biso   1.000  C
  H284     1.0000 0.44967  0.53783  0.07263  Biso   1.000  H
  C342     1.0000 0.47799  0.64238  0.09399  Biso   1.000  C
  H285     1.0000 0.44887  0.63523  0.08013  Biso   1.000  H
  N109     1.0000 0.60374  0.78755  0.08255  Biso   1.000  N
  N110     1.0000 0.20970  0.34169  0.00756  Biso   1.000  N
  N111     1.0000 0.16533  0.33537  0.85553  Biso   1.000  N
  N112     1.0000 0.47909  0.60945  0.11619  Biso   1.000  N
  N113     1.0000 0.43424  0.56508  0.12022  Biso   1.000  N
  N114     1.0000 0.28818  0.39568  0.09372  Biso   1.000  N
  C343     1.0000 0.24749  0.85386  0.10488  Biso   1.000  C
  H286     1.0000 0.23927  0.87543  0.11823  Biso   1.000  H
  C344     1.0000 0.29550  0.86237  0.10905  Biso   1.000  C
  H287     1.0000 0.31897  0.88913  0.12453  Biso   1.000  H
  C345     1.0000 0.30773  0.83016  0.08969  Biso   1.000  C
  C346     1.0000 0.27218  0.79192  0.06553  Biso   1.000  C
  H288     1.0000 0.27977  0.77043  0.05133  Biso   1.000  H
  C347     1.0000 0.22505  0.78606  0.06278  Biso   1.000  C
  H289     1.0000 0.20127  0.76023  0.04653  Biso   1.000  H
  C348     1.0000 0.64782  0.82591  0.98680  Biso   1.000  C
  H290     1.0000 0.64007  0.79763  0.00233  Biso   1.000  H
  C349     1.0000 0.64811  0.82307  0.94348  Biso   1.000  C
  H291     1.0000 0.64117  0.79363  0.93033  Biso   1.000  H
  C350     1.0000 0.65901  0.86523  0.91982  Biso   1.000  C
  C351     1.0000 0.66839  0.90814  0.94087  Biso   1.000  C
  H292     1.0000 0.67487  0.93653  0.92603  Biso   1.000  H
  C352     1.0000 0.66792  0.90789  0.98459  Biso   1.000  C
  H293     1.0000 0.67467  0.93693  0.99853  Biso   1.000  H
  C353     1.0000 0.66239  0.86532  0.87386  Biso   1.000  C
  H294     1.0000 0.66287  0.89083  0.85823  Biso   1.000  H
  C354     1.0000 0.56658  0.86269  0.11943  Biso   1.000  C
  H295     1.0000 0.57067  0.84113  0.13703  Biso   1.000  H
  C355     1.0000 0.52222  0.86265  0.12087  Biso   1.000  C
  H296     1.0000 0.49697  0.84143  0.13893  Biso   1.000  H
  C356     1.0000 0.51607  0.89514  0.09468  Biso   1.000  C
  C357     1.0000 0.55523  0.92696  0.06958  Biso   1.000  C
  H297     1.0000 0.55257  0.94983  0.05253  Biso   1.000  H
  C358     1.0000 0.59851  0.92474  0.06992  Biso   1.000  C
  H298     1.0000 0.62477  0.94663  0.05293  Biso   1.000  H
  C359     1.0000 0.46801  0.89416  0.09324  Biso   1.000  C
  H299     1.0000 0.46217  0.91183  0.07263  Biso   1.000  H
  C360     1.0000 0.35762  0.83560  0.09399  Biso   1.000  C
  H300     1.0000 0.36477  0.81363  0.08013  Biso   1.000  H
  N115     1.0000 0.21245  0.81618  0.08255  Biso   1.000  N
  N116     1.0000 0.65831  0.86800  0.00756  Biso   1.000  N
  N117     1.0000 0.66463  0.82995  0.85553  Biso   1.000  N
  N118     1.0000 0.39055  0.86963  0.11619  Biso   1.000  N
  N119     1.0000 0.43492  0.86915  0.12022  Biso   1.000  N
  N120     1.0000 0.60432  0.89249  0.09372  Biso   1.000  N
  C361     1.0000 0.14614  0.39362  0.10488  Biso   1.000  C
  H301     1.0000 0.12457  0.36383  0.11823  Biso   1.000  H
  C362     1.0000 0.13763  0.43312  0.10905  Biso   1.000  C
  H302     1.0000 0.11087  0.42983  0.12453  Biso   1.000  H
  C363     1.0000 0.16984  0.47756  0.08969  Biso   1.000  C
  C364     1.0000 0.20808  0.48025  0.06553  Biso   1.000  C
  H303     1.0000 0.22957  0.50933  0.05133  Biso   1.000  H
  C365     1.0000 0.21394  0.43898  0.06278  Biso   1.000  C
  H304     1.0000 0.23977  0.44103  0.04653  Biso   1.000  H
  C366     1.0000 0.17409  0.82190  0.98680  Biso   1.000  C
  H305     1.0000 0.20237  0.84243  0.00233  Biso   1.000  H
  C367     1.0000 0.17693  0.82503  0.94348  Biso   1.000  C
  H306     1.0000 0.20637  0.84753  0.93033  Biso   1.000  H
  C368     1.0000 0.13477  0.79377  0.91982  Biso   1.000  C
  C369     1.0000 0.09186  0.76024  0.94087  Biso   1.000  C
  H307     1.0000 0.06347  0.73833  0.92603  Biso   1.000  H
  C370     1.0000 0.09211  0.76002  0.98459  Biso   1.000  C
  H308     1.0000 0.06307  0.73773  0.99853  Biso   1.000  H
  C371     1.0000 0.13468  0.79706  0.87386  Biso   1.000  C
  H309     1.0000 0.10917  0.77203  0.85823  Biso   1.000  H
  C372     1.0000 0.13731  0.70388  0.11943  Biso   1.000  C
  H310     1.0000 0.15887  0.72953  0.13703  Biso   1.000  H
  C373     1.0000 0.13735  0.65956  0.12087  Biso   1.000  C
  H311     1.0000 0.15857  0.65553  0.13893  Biso   1.000  H
  C374     1.0000 0.10486  0.62092  0.09468  Biso   1.000  C
  C375     1.0000 0.07304  0.62826  0.06958  Biso   1.000  C
  H312     1.0000 0.05017  0.60273  0.05253  Biso   1.000  H
  C376     1.0000 0.07526  0.67376  0.06992  Biso   1.000  C
  H313     1.0000 0.05337  0.67813  0.05293  Biso   1.000  H
  C377     1.0000 0.10584  0.57384  0.09324  Biso   1.000  C
  H314     1.0000 0.08817  0.55033  0.07263  Biso   1.000  H
  C378     1.0000 0.16440  0.52201  0.09399  Biso   1.000  C
  H315     1.0000 0.18637  0.55113  0.08013  Biso   1.000  H
  N121     1.0000 0.18382  0.39626  0.08255  Biso   1.000  N
  N122     1.0000 0.13200  0.79030  0.00756  Biso   1.000  N
  N123     1.0000 0.17005  0.83467  0.85553  Biso   1.000  N
  N124     1.0000 0.13037  0.52091  0.11619  Biso   1.000  N
  N125     1.0000 0.13085  0.56576  0.12022  Biso   1.000  N
  N126     1.0000 0.10751  0.71182  0.09372  Biso   1.000  N
  C379     1.0000 0.08585  0.27304  0.06178  Biso   1.000  C
  H316     1.0000 0.09407  0.30283  0.04843  Biso   1.000  H
  C380     1.0000 0.03784  0.23354  0.05761  Biso   1.000  C
  H317     1.0000 0.01437  0.23683  0.04213  Biso   1.000  H
  C381     1.0000 0.02561  0.18910  0.07697  Biso   1.000  C
  C382     1.0000 0.06116  0.18641  0.10113  Biso   1.000  C
  H318     1.0000 0.05357  0.15733  0.11533  Biso   1.000  H
  C383     1.0000 0.10829  0.22768  0.10388  Biso   1.000  C
  H319     1.0000 0.13207  0.22563  0.12013  Biso   1.000  H
  C384     1.0000 0.68552  0.84476  0.17986  Biso   1.000  C
  H320     1.0000 0.69327  0.82423  0.16433  Biso   1.000  H
  C385     1.0000 0.68523  0.84163  0.22318  Biso   1.000  C
  H321     1.0000 0.69217  0.81913  0.23633  Biso   1.000  H
  C386     1.0000 0.67433  0.87289  0.24684  Biso   1.000  C
  C387     1.0000 0.66495  0.90642  0.22579  Biso   1.000  C
  H322     1.0000 0.65847  0.92833  0.24063  Biso   1.000  H
  C388     1.0000 0.66542  0.90664  0.18207  Biso   1.000  C
  H323     1.0000 0.65867  0.92893  0.16813  Biso   1.000  H
  C389     1.0000 0.67095  0.86960  0.29280  Biso   1.000  C
  H324     1.0000 0.67047  0.89463  0.30843  Biso   1.000  H
  C390     1.0000 0.76676  0.96278  0.04723  Biso   1.000  C
  H325     1.0000 0.76267  0.93713  0.02963  Biso   1.000  H
  C391     1.0000 0.81112  0.00710  0.04579  Biso   1.000  C
  H326     1.0000 0.83637  0.01113  0.02773  Biso   1.000  H
  C392     1.0000 0.81727  0.04574  0.07198  Biso   1.000  C
  C393     1.0000 0.77811  0.03840  0.09708  Biso   1.000  C
  H327     1.0000 0.78077  0.06393  0.11413  Biso   1.000  H
  C394     1.0000 0.73483  0.99290  0.09674  Biso   1.000  C
  H328     1.0000 0.70857  0.98853  0.11373  Biso   1.000  H
  C395     1.0000 0.86533  0.09282  0.07342  Biso   1.000  C
  H329     1.0000 0.87117  0.11633  0.09403  Biso   1.000  H
  C396     1.0000 0.97572  0.14465  0.07267  Biso   1.000  C
  H330     1.0000 0.96857  0.11553  0.08653  Biso   1.000  H
  N127     1.0000 0.12089  0.27040  0.08411  Biso   1.000  N
  N128     1.0000 0.67503  0.87636  0.15910  Biso   1.000  N
  N129     1.0000 0.66871  0.83199  0.31113  Biso   1.000  N
  N130     1.0000 0.94279  0.14575  0.05047  Biso   1.000  N
  N131     1.0000 0.89842  0.10090  0.04644  Biso   1.000  N
  N132     1.0000 0.72902  0.95484  0.07294  Biso   1.000  N
  C397     1.0000 0.18720  0.91415  0.06178  Biso   1.000  C
  H331     1.0000 0.20877  0.90593  0.04843  Biso   1.000  H
  C398     1.0000 0.19571  0.96216  0.05761  Biso   1.000  C
  H332     1.0000 0.22247  0.98563  0.04213  Biso   1.000  H
  C399     1.0000 0.16350  0.97439  0.07697  Biso   1.000  C
  C400     1.0000 0.12526  0.93884  0.10113  Biso   1.000  C
  H333     1.0000 0.10377  0.94643  0.11533  Biso   1.000  H
  C401     1.0000 0.11940  0.89171  0.10388  Biso   1.000  C
  H334     1.0000 0.09357  0.86793  0.12013  Biso   1.000  H
  C402     1.0000 0.15925  0.31448  0.17986  Biso   1.000  C
  H335     1.0000 0.13097  0.30673  0.16433  Biso   1.000  H
  C403     1.0000 0.15641  0.31477  0.22318  Biso   1.000  C
  H336     1.0000 0.12697  0.30783  0.23633  Biso   1.000  H
  C404     1.0000 0.19857  0.32567  0.24684  Biso   1.000  C
  C405     1.0000 0.24148  0.33505  0.22579  Biso   1.000  C
  H337     1.0000 0.26987  0.34153  0.24063  Biso   1.000  H
  C406     1.0000 0.24123  0.33458  0.18207  Biso   1.000  C
  H338     1.0000 0.27027  0.34133  0.16813  Biso   1.000  H
  C407     1.0000 0.19866  0.32905  0.29280  Biso   1.000  C
  H339     1.0000 0.22417  0.32953  0.30843  Biso   1.000  H
  C408     1.0000 0.19603  0.23324  0.04723  Biso   1.000  C
  H340     1.0000 0.17447  0.23733  0.02963  Biso   1.000  H
  C409     1.0000 0.19599  0.18888  0.04579  Biso   1.000  C
  H341     1.0000 0.17477  0.16363  0.02773  Biso   1.000  H
  C410     1.0000 0.22848  0.18273  0.07198  Biso   1.000  C
  C411     1.0000 0.26030  0.22189  0.09708  Biso   1.000  C
  H342     1.0000 0.28317  0.21923  0.11413  Biso   1.000  H
  C412     1.0000 0.25808  0.26517  0.09674  Biso   1.000  C
  H343     1.0000 0.27997  0.29143  0.11373  Biso   1.000  H
  C413     1.0000 0.22750  0.13467  0.07342  Biso   1.000  C
  H344     1.0000 0.24517  0.12883  0.09403  Biso   1.000  H
  C414     1.0000 0.16894  0.02428  0.07267  Biso   1.000  C
  H345     1.0000 0.14697  0.03143  0.08653  Biso   1.000  H
  N133     1.0000 0.14952  0.87911  0.08411  Biso   1.000  N
  N134     1.0000 0.20134  0.32497  0.15910  Biso   1.000  N
  N135     1.0000 0.16329  0.33129  0.31113  Biso   1.000  N
  N136     1.0000 0.20297  0.05721  0.05047  Biso   1.000  N
  N137     1.0000 0.20249  0.10158  0.04644  Biso   1.000  N
  N138     1.0000 0.22583  0.27098  0.07294  Biso   1.000  N
  C415     1.0000 0.72696  0.81280  0.06178  Biso   1.000  C
  H346     1.0000 0.69717  0.79123  0.04843  Biso   1.000  H
  C416     1.0000 0.76646  0.80429  0.05761  Biso   1.000  C
  H347     1.0000 0.76317  0.77753  0.04213  Biso   1.000  H
  C417     1.0000 0.81090  0.83650  0.07697  Biso   1.000  C
  C418     1.0000 0.81359  0.87474  0.10113  Biso   1.000  C
  H348     1.0000 0.84267  0.89623  0.11533  Biso   1.000  H
  C419     1.0000 0.77232  0.88060  0.10388  Biso   1.000  C
  H349     1.0000 0.77437  0.90643  0.12013  Biso   1.000  H
  C420     1.0000 0.15524  0.84075  0.17986  Biso   1.000  C
  H350     1.0000 0.17577  0.86903  0.16433  Biso   1.000  H
  C421     1.0000 0.15837  0.84359  0.22318  Biso   1.000  C
  H351     1.0000 0.18087  0.87303  0.23633  Biso   1.000  H
  C422     1.0000 0.12711  0.80143  0.24684  Biso   1.000  C
  C423     1.0000 0.09358  0.75852  0.22579  Biso   1.000  C
  H352     1.0000 0.07167  0.73013  0.24063  Biso   1.000  H
  C424     1.0000 0.09336  0.75877  0.18207  Biso   1.000  C
  H353     1.0000 0.07107  0.72973  0.16813  Biso   1.000  H
  C425     1.0000 0.13040  0.80134  0.29280  Biso   1.000  C
  H354     1.0000 0.10537  0.77583  0.30843  Biso   1.000  H
  C426     1.0000 0.03722  0.80397  0.04723  Biso   1.000  C
  H355     1.0000 0.06287  0.82553  0.02963  Biso   1.000  H
  C427     1.0000 0.99290  0.80401  0.04579  Biso   1.000  C
  H356     1.0000 0.98887  0.82523  0.02773  Biso   1.000  H
  C428     1.0000 0.95426  0.77152  0.07198  Biso   1.000  C
  C429     1.0000 0.96160  0.73970  0.09708  Biso   1.000  C
  H357     1.0000 0.93607  0.71683  0.11413  Biso   1.000  H
  C430     1.0000 0.00710  0.74192  0.09674  Biso   1.000  C
  H358     1.0000 0.01147  0.72003  0.11373  Biso   1.000  H
  C431     1.0000 0.90718  0.77250  0.07342  Biso   1.000  C
  H359     1.0000 0.88367  0.75483  0.09403  Biso   1.000  H
  C432     1.0000 0.85535  0.83106  0.07267  Biso   1.000  C
  H360     1.0000 0.88447  0.85303  0.08653  Biso   1.000  H
  N139     1.0000 0.72960  0.85048  0.08411  Biso   1.000  N
  N140     1.0000 0.12364  0.79866  0.15910  Biso   1.000  N
  N141     1.0000 0.16801  0.83671  0.31113  Biso   1.000  N
  N142     1.0000 0.85425  0.79703  0.05047  Biso   1.000  N
  N143     1.0000 0.89910  0.79751  0.04644  Biso   1.000  N
  N144     1.0000 0.04516  0.77417  0.07294  Biso   1.000  N
  Cd7      1.0000 0.12783  0.33333  0.58333  Biso   1.000  Cd
  Cd8      1.0000 0.66667  0.79450  0.58333  Biso   1.000  Cd
  Cd9      1.0000 0.20550  0.87217  0.58333  Biso   1.000  Cd
  Cd10     1.0000 0.20550  0.33333  0.08333  Biso   1.000  Cd
  Cd11     1.0000 0.66667  0.87217  0.08333  Biso   1.000  Cd
  Cd12     1.0000 0.12783  0.79450  0.08333  Biso   1.000  Cd
  C433     1.0000 0.39362  0.24749  0.89512  Biso   1.000  C
  H361     1.0000 0.36383  0.23927  0.88177  Biso   1.000  H
  C434     1.0000 0.43312  0.29550  0.89095  Biso   1.000  C
  H362     1.0000 0.42983  0.31897  0.87547  Biso   1.000  H
  C435     1.0000 0.47756  0.30773  0.91031  Biso   1.000  C
  C436     1.0000 0.48025  0.27218  0.93447  Biso   1.000  C
  H363     1.0000 0.50933  0.27977  0.94867  Biso   1.000  H
  C437     1.0000 0.43898  0.22505  0.93722  Biso   1.000  C
  H364     1.0000 0.44103  0.20127  0.95347  Biso   1.000  H
  C438     1.0000 0.82190  0.64782  0.01320  Biso   1.000  C
  H365     1.0000 0.84243  0.64007  0.99767  Biso   1.000  H
  C439     1.0000 0.82503  0.64811  0.05652  Biso   1.000  C
  H366     1.0000 0.84753  0.64117  0.06967  Biso   1.000  H
  C440     1.0000 0.79377  0.65901  0.08018  Biso   1.000  C
  C441     1.0000 0.76024  0.66839  0.05913  Biso   1.000  C
  H367     1.0000 0.73833  0.67487  0.07397  Biso   1.000  H
  C442     1.0000 0.76002  0.66792  0.01541  Biso   1.000  C
  H368     1.0000 0.73773  0.67467  0.00147  Biso   1.000  H
  C443     1.0000 0.79706  0.66239  0.12614  Biso   1.000  C
  H369     1.0000 0.77203  0.66287  0.14177  Biso   1.000  H
  C444     1.0000 0.70388  0.56658  0.88057  Biso   1.000  C
  H370     1.0000 0.72953  0.57067  0.86297  Biso   1.000  H
  C445     1.0000 0.65956  0.52222  0.87913  Biso   1.000  C
  H371     1.0000 0.65553  0.49697  0.86107  Biso   1.000  H
  C446     1.0000 0.62092  0.51607  0.90532  Biso   1.000  C
  C447     1.0000 0.62826  0.55523  0.93042  Biso   1.000  C
  H372     1.0000 0.60273  0.55257  0.94747  Biso   1.000  H
  C448     1.0000 0.67376  0.59851  0.93008  Biso   1.000  C
  H373     1.0000 0.67813  0.62477  0.94707  Biso   1.000  H
  C449     1.0000 0.57384  0.46801  0.90676  Biso   1.000  C
  H374     1.0000 0.55033  0.46217  0.92737  Biso   1.000  H
  C450     1.0000 0.52201  0.35762  0.90601  Biso   1.000  C
  H375     1.0000 0.55113  0.36477  0.91987  Biso   1.000  H
  N145     1.0000 0.39626  0.21245  0.91745  Biso   1.000  N
  N146     1.0000 0.79030  0.65831  0.99244  Biso   1.000  N
  N147     1.0000 0.83467  0.66463  0.14447  Biso   1.000  N
  N148     1.0000 0.52091  0.39055  0.88381  Biso   1.000  N
  N149     1.0000 0.56576  0.43492  0.87978  Biso   1.000  N
  N150     1.0000 0.71182  0.60432  0.90628  Biso   1.000  N
  C451     1.0000 0.75251  0.14614  0.89512  Biso   1.000  C
  H376     1.0000 0.76073  0.12457  0.88177  Biso   1.000  H
  C452     1.0000 0.70450  0.13763  0.89095  Biso   1.000  C
  H377     1.0000 0.68103  0.11087  0.87547  Biso   1.000  H
  C453     1.0000 0.69227  0.16984  0.91031  Biso   1.000  C
  C454     1.0000 0.72782  0.20808  0.93447  Biso   1.000  C
  H378     1.0000 0.72023  0.22957  0.94867  Biso   1.000  H
  C455     1.0000 0.77495  0.21394  0.93722  Biso   1.000  C
  H379     1.0000 0.79873  0.23977  0.95347  Biso   1.000  H
  C456     1.0000 0.35218  0.17409  0.01320  Biso   1.000  C
  H380     1.0000 0.35993  0.20237  0.99767  Biso   1.000  H
  C457     1.0000 0.35189  0.17693  0.05652  Biso   1.000  C
  H381     1.0000 0.35883  0.20637  0.06967  Biso   1.000  H
  C458     1.0000 0.34099  0.13477  0.08018  Biso   1.000  C
  C459     1.0000 0.33161  0.09186  0.05913  Biso   1.000  C
  H382     1.0000 0.32513  0.06347  0.07397  Biso   1.000  H
  C460     1.0000 0.33208  0.09211  0.01541  Biso   1.000  C
  H383     1.0000 0.32533  0.06307  0.00147  Biso   1.000  H
  C461     1.0000 0.33761  0.13468  0.12614  Biso   1.000  C
  H384     1.0000 0.33713  0.10917  0.14177  Biso   1.000  H
  C462     1.0000 0.43342  0.13731  0.88057  Biso   1.000  C
  H385     1.0000 0.42933  0.15887  0.86297  Biso   1.000  H
  C463     1.0000 0.47778  0.13735  0.87913  Biso   1.000  C
  H386     1.0000 0.50303  0.15857  0.86107  Biso   1.000  H
  C464     1.0000 0.48393  0.10486  0.90532  Biso   1.000  C
  C465     1.0000 0.44477  0.07304  0.93042  Biso   1.000  C
  H387     1.0000 0.44743  0.05017  0.94747  Biso   1.000  H
  C466     1.0000 0.40149  0.07526  0.93008  Biso   1.000  C
  H388     1.0000 0.37523  0.05337  0.94707  Biso   1.000  H
  C467     1.0000 0.53199  0.10584  0.90676  Biso   1.000  C
  H389     1.0000 0.53783  0.08817  0.92737  Biso   1.000  H
  C468     1.0000 0.64238  0.16440  0.90601  Biso   1.000  C
  H390     1.0000 0.63523  0.18637  0.91987  Biso   1.000  H
  N151     1.0000 0.78755  0.18382  0.91745  Biso   1.000  N
  N152     1.0000 0.34169  0.13200  0.99244  Biso   1.000  N
  N153     1.0000 0.33537  0.17005  0.14447  Biso   1.000  N
  N154     1.0000 0.60945  0.13037  0.88381  Biso   1.000  N
  N155     1.0000 0.56508  0.13085  0.87978  Biso   1.000  N
  N156     1.0000 0.39568  0.10751  0.90628  Biso   1.000  N
  C469     1.0000 0.85386  0.60638  0.89512  Biso   1.000  C
  H391     1.0000 0.87543  0.63617  0.88177  Biso   1.000  H
  C470     1.0000 0.86237  0.56688  0.89095  Biso   1.000  C
  H392     1.0000 0.88913  0.57017  0.87547  Biso   1.000  H
  C471     1.0000 0.83016  0.52244  0.91031  Biso   1.000  C
  C472     1.0000 0.79192  0.51975  0.93447  Biso   1.000  C
  H393     1.0000 0.77043  0.49067  0.94867  Biso   1.000  H
  C473     1.0000 0.78606  0.56102  0.93722  Biso   1.000  C
  H394     1.0000 0.76023  0.55897  0.95347  Biso   1.000  H
  C474     1.0000 0.82591  0.17810  0.01320  Biso   1.000  C
  H395     1.0000 0.79763  0.15757  0.99767  Biso   1.000  H
  C475     1.0000 0.82307  0.17497  0.05652  Biso   1.000  C
  H396     1.0000 0.79363  0.15247  0.06967  Biso   1.000  H
  C476     1.0000 0.86523  0.20623  0.08018  Biso   1.000  C
  C477     1.0000 0.90814  0.23976  0.05913  Biso   1.000  C
  H397     1.0000 0.93653  0.26167  0.07397  Biso   1.000  H
  C478     1.0000 0.90789  0.23998  0.01541  Biso   1.000  C
  H398     1.0000 0.93693  0.26227  0.00147  Biso   1.000  H
  C479     1.0000 0.86532  0.20294  0.12614  Biso   1.000  C
  H399     1.0000 0.89083  0.22797  0.14177  Biso   1.000  H
  C480     1.0000 0.86269  0.29612  0.88057  Biso   1.000  C
  H400     1.0000 0.84113  0.27047  0.86297  Biso   1.000  H
  C481     1.0000 0.86265  0.34044  0.87913  Biso   1.000  C
  H401     1.0000 0.84143  0.34447  0.86107  Biso   1.000  H
  C482     1.0000 0.89514  0.37908  0.90532  Biso   1.000  C
  C483     1.0000 0.92696  0.37174  0.93042  Biso   1.000  C
  H402     1.0000 0.94983  0.39727  0.94747  Biso   1.000  H
  C484     1.0000 0.92474  0.32624  0.93008  Biso   1.000  C
  H403     1.0000 0.94663  0.32187  0.94707  Biso   1.000  H
  C485     1.0000 0.89416  0.42616  0.90676  Biso   1.000  C
  H404     1.0000 0.91183  0.44967  0.92737  Biso   1.000  H
  C486     1.0000 0.83560  0.47799  0.90601  Biso   1.000  C
  H405     1.0000 0.81363  0.44887  0.91987  Biso   1.000  H
  N157     1.0000 0.81618  0.60374  0.91745  Biso   1.000  N
  N158     1.0000 0.86800  0.20970  0.99244  Biso   1.000  N
  N159     1.0000 0.82995  0.16533  0.14447  Biso   1.000  N
  N160     1.0000 0.86963  0.47909  0.88381  Biso   1.000  N
  N161     1.0000 0.86915  0.43424  0.87978  Biso   1.000  N
  N162     1.0000 0.89249  0.28818  0.90628  Biso   1.000  N
  C487     1.0000 0.91415  0.72696  0.93822  Biso   1.000  C
  H406     1.0000 0.90593  0.69717  0.95157  Biso   1.000  H
  C488     1.0000 0.96216  0.76646  0.94239  Biso   1.000  C
  H407     1.0000 0.98563  0.76317  0.95787  Biso   1.000  H
  C489     1.0000 0.97439  0.81090  0.92303  Biso   1.000  C
  C490     1.0000 0.93884  0.81359  0.89887  Biso   1.000  C
  H408     1.0000 0.94643  0.84267  0.88467  Biso   1.000  H
  C491     1.0000 0.89171  0.77232  0.89612  Biso   1.000  C
  H409     1.0000 0.86793  0.77437  0.87987  Biso   1.000  H
  C492     1.0000 0.31448  0.15524  0.82014  Biso   1.000  C
  H410     1.0000 0.30673  0.17577  0.83567  Biso   1.000  H
  C493     1.0000 0.31477  0.15837  0.77682  Biso   1.000  C
  H411     1.0000 0.30783  0.18087  0.76367  Biso   1.000  H
  C494     1.0000 0.32567  0.12711  0.75316  Biso   1.000  C
  C495     1.0000 0.33505  0.09358  0.77421  Biso   1.000  C
  H412     1.0000 0.34153  0.07167  0.75937  Biso   1.000  H
  C496     1.0000 0.33458  0.09336  0.81793  Biso   1.000  C
  H413     1.0000 0.34133  0.07107  0.83187  Biso   1.000  H
  C497     1.0000 0.32905  0.13040  0.70720  Biso   1.000  C
  H414     1.0000 0.32953  0.10537  0.69157  Biso   1.000  H
  C498     1.0000 0.23324  0.03722  0.95277  Biso   1.000  C
  H415     1.0000 0.23733  0.06287  0.97037  Biso   1.000  H
  C499     1.0000 0.18888  0.99290  0.95421  Biso   1.000  C
  H416     1.0000 0.16363  0.98887  0.97227  Biso   1.000  H
  C500     1.0000 0.18273  0.95426  0.92802  Biso   1.000  C
  C501     1.0000 0.22189  0.96160  0.90292  Biso   1.000  C
  H417     1.0000 0.21923  0.93607  0.88587  Biso   1.000  H
  C502     1.0000 0.26517  0.00710  0.90326  Biso   1.000  C
  H418     1.0000 0.29143  0.01147  0.88627  Biso   1.000  H
  C503     1.0000 0.13467  0.90718  0.92658  Biso   1.000  C
  H419     1.0000 0.12883  0.88367  0.90597  Biso   1.000  H
  C504     1.0000 0.02428  0.85535  0.92733  Biso   1.000  C
  H420     1.0000 0.03143  0.88447  0.91347  Biso   1.000  H
  N163     1.0000 0.87911  0.72960  0.91589  Biso   1.000  N
  N164     1.0000 0.32497  0.12364  0.84090  Biso   1.000  N
  N165     1.0000 0.33129  0.16801  0.68887  Biso   1.000  N
  N166     1.0000 0.05721  0.85425  0.94953  Biso   1.000  N
  N167     1.0000 0.10158  0.89910  0.95356  Biso   1.000  N
  N168     1.0000 0.27098  0.04516  0.92706  Biso   1.000  N
  C505     1.0000 0.81280  0.08585  0.93822  Biso   1.000  C
  H421     1.0000 0.79123  0.09407  0.95157  Biso   1.000  H
  C506     1.0000 0.80429  0.03784  0.94239  Biso   1.000  C
  H422     1.0000 0.77753  0.01437  0.95787  Biso   1.000  H
  C507     1.0000 0.83650  0.02561  0.92303  Biso   1.000  C
  C508     1.0000 0.87474  0.06116  0.89887  Biso   1.000  C
  H423     1.0000 0.89623  0.05357  0.88467  Biso   1.000  H
  C509     1.0000 0.88060  0.10829  0.89612  Biso   1.000  C
  H424     1.0000 0.90643  0.13207  0.87987  Biso   1.000  H
  C510     1.0000 0.84075  0.68552  0.82014  Biso   1.000  C
  H425     1.0000 0.86903  0.69327  0.83567  Biso   1.000  H
  C511     1.0000 0.84359  0.68523  0.77682  Biso   1.000  C
  H426     1.0000 0.87303  0.69217  0.76367  Biso   1.000  H
  C512     1.0000 0.80143  0.67433  0.75316  Biso   1.000  C
  C513     1.0000 0.75852  0.66495  0.77421  Biso   1.000  C
  H427     1.0000 0.73013  0.65847  0.75937  Biso   1.000  H
  C514     1.0000 0.75877  0.66542  0.81793  Biso   1.000  C
  H428     1.0000 0.72973  0.65867  0.83187  Biso   1.000  H
  C515     1.0000 0.80134  0.67095  0.70720  Biso   1.000  C
  H429     1.0000 0.77583  0.67047  0.69157  Biso   1.000  H
  C516     1.0000 0.80397  0.76676  0.95277  Biso   1.000  C
  H430     1.0000 0.82553  0.76267  0.97037  Biso   1.000  H
  C517     1.0000 0.80401  0.81112  0.95421  Biso   1.000  C
  H431     1.0000 0.82523  0.83637  0.97227  Biso   1.000  H
  C518     1.0000 0.77152  0.81727  0.92802  Biso   1.000  C
  C519     1.0000 0.73970  0.77811  0.90292  Biso   1.000  C
  H432     1.0000 0.71683  0.78077  0.88587  Biso   1.000  H
  C520     1.0000 0.74192  0.73483  0.90326  Biso   1.000  C
  H433     1.0000 0.72003  0.70857  0.88627  Biso   1.000  H
  C521     1.0000 0.77250  0.86533  0.92658  Biso   1.000  C
  H434     1.0000 0.75483  0.87117  0.90597  Biso   1.000  H
  C522     1.0000 0.83106  0.97572  0.92733  Biso   1.000  C
  H435     1.0000 0.85303  0.96857  0.91347  Biso   1.000  H
  N169     1.0000 0.85048  0.12089  0.91589  Biso   1.000  N
  N170     1.0000 0.79866  0.67503  0.84090  Biso   1.000  N
  N171     1.0000 0.83671  0.66871  0.68887  Biso   1.000  N
  N172     1.0000 0.79703  0.94279  0.94953  Biso   1.000  N
  N173     1.0000 0.79751  0.89842  0.95356  Biso   1.000  N
  N174     1.0000 0.77417  0.72902  0.92706  Biso   1.000  N
  C523     1.0000 0.27304  0.18720  0.93822  Biso   1.000  C
  H436     1.0000 0.30283  0.20877  0.95157  Biso   1.000  H
  C524     1.0000 0.23354  0.19571  0.94239  Biso   1.000  C
  H437     1.0000 0.23683  0.22247  0.95787  Biso   1.000  H
  C525     1.0000 0.18910  0.16350  0.92303  Biso   1.000  C
  C526     1.0000 0.18641  0.12526  0.89887  Biso   1.000  C
  H438     1.0000 0.15733  0.10377  0.88467  Biso   1.000  H
  C527     1.0000 0.22768  0.11940  0.89612  Biso   1.000  C
  H439     1.0000 0.22563  0.09357  0.87987  Biso   1.000  H
  C528     1.0000 0.84476  0.15925  0.82014  Biso   1.000  C
  H440     1.0000 0.82423  0.13097  0.83567  Biso   1.000  H
  C529     1.0000 0.84163  0.15641  0.77682  Biso   1.000  C
  H441     1.0000 0.81913  0.12697  0.76367  Biso   1.000  H
  C530     1.0000 0.87289  0.19857  0.75316  Biso   1.000  C
  C531     1.0000 0.90642  0.24148  0.77421  Biso   1.000  C
  H442     1.0000 0.92833  0.26987  0.75937  Biso   1.000  H
  C532     1.0000 0.90664  0.24123  0.81793  Biso   1.000  C
  H443     1.0000 0.92893  0.27027  0.83187  Biso   1.000  H
  C533     1.0000 0.86960  0.19866  0.70720  Biso   1.000  C
  H444     1.0000 0.89463  0.22417  0.69157  Biso   1.000  H
  C534     1.0000 0.96278  0.19603  0.95277  Biso   1.000  C
  H445     1.0000 0.93713  0.17447  0.97037  Biso   1.000  H
  C535     1.0000 0.00710  0.19599  0.95421  Biso   1.000  C
  H446     1.0000 0.01113  0.17477  0.97227  Biso   1.000  H
  C536     1.0000 0.04574  0.22848  0.92802  Biso   1.000  C
  C537     1.0000 0.03840  0.26030  0.90292  Biso   1.000  C
  H447     1.0000 0.06393  0.28317  0.88587  Biso   1.000  H
  C538     1.0000 0.99290  0.25808  0.90326  Biso   1.000  C
  H448     1.0000 0.98853  0.27997  0.88627  Biso   1.000  H
  C539     1.0000 0.09282  0.22750  0.92658  Biso   1.000  C
  H449     1.0000 0.11633  0.24517  0.90597  Biso   1.000  H
  C540     1.0000 0.14465  0.16894  0.92733  Biso   1.000  C
  H450     1.0000 0.11553  0.14697  0.91347  Biso   1.000  H
  N175     1.0000 0.27040  0.14952  0.91589  Biso   1.000  N
  N176     1.0000 0.87636  0.20134  0.84090  Biso   1.000  N
  N177     1.0000 0.83199  0.16329  0.68887  Biso   1.000  N
  N178     1.0000 0.14575  0.20297  0.94953  Biso   1.000  N
  N179     1.0000 0.10090  0.20249  0.95356  Biso   1.000  N
  N180     1.0000 0.95484  0.22583  0.92706  Biso   1.000  N
  C541     1.0000 0.27304  0.08585  0.43822  Biso   1.000  C
  H451     1.0000 0.30283  0.09407  0.45157  Biso   1.000  H
  C542     1.0000 0.23354  0.03784  0.44239  Biso   1.000  C
  H452     1.0000 0.23683  0.01437  0.45787  Biso   1.000  H
  C543     1.0000 0.18910  0.02561  0.42303  Biso   1.000  C
  C544     1.0000 0.18641  0.06116  0.39887  Biso   1.000  C
  H453     1.0000 0.15733  0.05357  0.38467  Biso   1.000  H
  C545     1.0000 0.22768  0.10829  0.39612  Biso   1.000  C
  H454     1.0000 0.22563  0.13207  0.37987  Biso   1.000  H
  C546     1.0000 0.84476  0.68552  0.32014  Biso   1.000  C
  H455     1.0000 0.82423  0.69327  0.33567  Biso   1.000  H
  C547     1.0000 0.84163  0.68523  0.27682  Biso   1.000  C
  H456     1.0000 0.81913  0.69217  0.26367  Biso   1.000  H
  C548     1.0000 0.87289  0.67433  0.25316  Biso   1.000  C
  C549     1.0000 0.90642  0.66495  0.27421  Biso   1.000  C
  H457     1.0000 0.92833  0.65847  0.25937  Biso   1.000  H
  C550     1.0000 0.90664  0.66542  0.31793  Biso   1.000  C
  H458     1.0000 0.92893  0.65867  0.33187  Biso   1.000  H
  C551     1.0000 0.86960  0.67095  0.20720  Biso   1.000  C
  H459     1.0000 0.89463  0.67047  0.19157  Biso   1.000  H
  C552     1.0000 0.96278  0.76676  0.45277  Biso   1.000  C
  H460     1.0000 0.93713  0.76267  0.47037  Biso   1.000  H
  C553     1.0000 0.00710  0.81112  0.45421  Biso   1.000  C
  H461     1.0000 0.01113  0.83637  0.47227  Biso   1.000  H
  C554     1.0000 0.04574  0.81727  0.42802  Biso   1.000  C
  C555     1.0000 0.03840  0.77811  0.40292  Biso   1.000  C
  H462     1.0000 0.06393  0.78077  0.38587  Biso   1.000  H
  C556     1.0000 0.99290  0.73483  0.40326  Biso   1.000  C
  H463     1.0000 0.98853  0.70857  0.38627  Biso   1.000  H
  C557     1.0000 0.09282  0.86533  0.42658  Biso   1.000  C
  H464     1.0000 0.11633  0.87117  0.40597  Biso   1.000  H
  C558     1.0000 0.14465  0.97572  0.42733  Biso   1.000  C
  H465     1.0000 0.11553  0.96857  0.41347  Biso   1.000  H
  N181     1.0000 0.27040  0.12089  0.41589  Biso   1.000  N
  N182     1.0000 0.87636  0.67503  0.34090  Biso   1.000  N
  N183     1.0000 0.83199  0.66871  0.18887  Biso   1.000  N
  N184     1.0000 0.14575  0.94279  0.44953  Biso   1.000  N
  N185     1.0000 0.10090  0.89842  0.45356  Biso   1.000  N
  N186     1.0000 0.95484  0.72902  0.42706  Biso   1.000  N
  C559     1.0000 0.91415  0.18720  0.43822  Biso   1.000  C
  H466     1.0000 0.90593  0.20877  0.45157  Biso   1.000  H
  C560     1.0000 0.96216  0.19571  0.44239  Biso   1.000  C
  H467     1.0000 0.98563  0.22247  0.45787  Biso   1.000  H
  C561     1.0000 0.97439  0.16350  0.42303  Biso   1.000  C
  C562     1.0000 0.93884  0.12526  0.39887  Biso   1.000  C
  H468     1.0000 0.94643  0.10377  0.38467  Biso   1.000  H
  C563     1.0000 0.89171  0.11940  0.39612  Biso   1.000  C
  H469     1.0000 0.86793  0.09357  0.37987  Biso   1.000  H
  C564     1.0000 0.31448  0.15925  0.32014  Biso   1.000  C
  H470     1.0000 0.30673  0.13097  0.33567  Biso   1.000  H
  C565     1.0000 0.31477  0.15641  0.27682  Biso   1.000  C
  H471     1.0000 0.30783  0.12697  0.26367  Biso   1.000  H
  C566     1.0000 0.32567  0.19857  0.25316  Biso   1.000  C
  C567     1.0000 0.33505  0.24148  0.27421  Biso   1.000  C
  H472     1.0000 0.34153  0.26987  0.25937  Biso   1.000  H
  C568     1.0000 0.33458  0.24123  0.31793  Biso   1.000  C
  H473     1.0000 0.34133  0.27027  0.33187  Biso   1.000  H
  C569     1.0000 0.32905  0.19866  0.20720  Biso   1.000  C
  H474     1.0000 0.32953  0.22417  0.19157  Biso   1.000  H
  C570     1.0000 0.23324  0.19603  0.45277  Biso   1.000  C
  H475     1.0000 0.23733  0.17447  0.47037  Biso   1.000  H
  C571     1.0000 0.18888  0.19599  0.45421  Biso   1.000  C
  H476     1.0000 0.16363  0.17477  0.47227  Biso   1.000  H
  C572     1.0000 0.18273  0.22848  0.42802  Biso   1.000  C
  C573     1.0000 0.22189  0.26030  0.40292  Biso   1.000  C
  H477     1.0000 0.21923  0.28317  0.38587  Biso   1.000  H
  C574     1.0000 0.26517  0.25808  0.40326  Biso   1.000  C
  H478     1.0000 0.29143  0.27997  0.38627  Biso   1.000  H
  C575     1.0000 0.13467  0.22750  0.42658  Biso   1.000  C
  H479     1.0000 0.12883  0.24517  0.40597  Biso   1.000  H
  C576     1.0000 0.02428  0.16894  0.42733  Biso   1.000  C
  H480     1.0000 0.03143  0.14697  0.41347  Biso   1.000  H
  N187     1.0000 0.87911  0.14952  0.41589  Biso   1.000  N
  N188     1.0000 0.32497  0.20134  0.34090  Biso   1.000  N
  N189     1.0000 0.33129  0.16329  0.18887  Biso   1.000  N
  N190     1.0000 0.05721  0.20297  0.44953  Biso   1.000  N
  N191     1.0000 0.10158  0.20249  0.45356  Biso   1.000  N
  N192     1.0000 0.27098  0.22583  0.42706  Biso   1.000  N
  C577     1.0000 0.81280  0.72696  0.43822  Biso   1.000  C
  H481     1.0000 0.79123  0.69717  0.45157  Biso   1.000  H
  C578     1.0000 0.80429  0.76646  0.44239  Biso   1.000  C
  H482     1.0000 0.77753  0.76317  0.45787  Biso   1.000  H
  C579     1.0000 0.83650  0.81090  0.42303  Biso   1.000  C
  C580     1.0000 0.87474  0.81359  0.39887  Biso   1.000  C
  H483     1.0000 0.89623  0.84267  0.38467  Biso   1.000  H
  C581     1.0000 0.88060  0.77232  0.39612  Biso   1.000  C
  H484     1.0000 0.90643  0.77437  0.37987  Biso   1.000  H
  C582     1.0000 0.84075  0.15524  0.32014  Biso   1.000  C
  H485     1.0000 0.86903  0.17577  0.33567  Biso   1.000  H
  C583     1.0000 0.84359  0.15837  0.27682  Biso   1.000  C
  H486     1.0000 0.87303  0.18087  0.26367  Biso   1.000  H
  C584     1.0000 0.80143  0.12711  0.25316  Biso   1.000  C
  C585     1.0000 0.75852  0.09358  0.27421  Biso   1.000  C
  H487     1.0000 0.73013  0.07167  0.25937  Biso   1.000  H
  C586     1.0000 0.75877  0.09336  0.31793  Biso   1.000  C
  H488     1.0000 0.72973  0.07107  0.33187  Biso   1.000  H
  C587     1.0000 0.80134  0.13040  0.20720  Biso   1.000  C
  H489     1.0000 0.77583  0.10537  0.19157  Biso   1.000  H
  C588     1.0000 0.80397  0.03722  0.45277  Biso   1.000  C
  H490     1.0000 0.82553  0.06287  0.47037  Biso   1.000  H
  C589     1.0000 0.80401  0.99290  0.45421  Biso   1.000  C
  H491     1.0000 0.82523  0.98887  0.47227  Biso   1.000  H
  C590     1.0000 0.77152  0.95426  0.42802  Biso   1.000  C
  C591     1.0000 0.73970  0.96160  0.40292  Biso   1.000  C
  H492     1.0000 0.71683  0.93607  0.38587  Biso   1.000  H
  C592     1.0000 0.74192  0.00710  0.40326  Biso   1.000  C
  H493     1.0000 0.72003  0.01147  0.38627  Biso   1.000  H
  C593     1.0000 0.77250  0.90718  0.42658  Biso   1.000  C
  H494     1.0000 0.75483  0.88367  0.40597  Biso   1.000  H
  C594     1.0000 0.83106  0.85535  0.42733  Biso   1.000  C
  H495     1.0000 0.85303  0.88447  0.41347  Biso   1.000  H
  N193     1.0000 0.85048  0.72960  0.41589  Biso   1.000  N
  N194     1.0000 0.79866  0.12364  0.34090  Biso   1.000  N
  N195     1.0000 0.83671  0.16801  0.18887  Biso   1.000  N
  N196     1.0000 0.79703  0.85425  0.44953  Biso   1.000  N
  N197     1.0000 0.79751  0.89910  0.45356  Biso   1.000  N
  N198     1.0000 0.77417  0.04516  0.42706  Biso   1.000  N
  C595     1.0000 0.75251  0.60638  0.39512  Biso   1.000  C
  H496     1.0000 0.76073  0.63617  0.38177  Biso   1.000  H
  C596     1.0000 0.70450  0.56688  0.39095  Biso   1.000  C
  H497     1.0000 0.68103  0.57017  0.37547  Biso   1.000  H
  C597     1.0000 0.69227  0.52244  0.41031  Biso   1.000  C
  C598     1.0000 0.72782  0.51975  0.43447  Biso   1.000  C
  H498     1.0000 0.72023  0.49067  0.44867  Biso   1.000  H
  C599     1.0000 0.77495  0.56102  0.43722  Biso   1.000  C
  H499     1.0000 0.79873  0.55897  0.45347  Biso   1.000  H
  C600     1.0000 0.35218  0.17810  0.51320  Biso   1.000  C
  H500     1.0000 0.35993  0.15757  0.49767  Biso   1.000  H
  C601     1.0000 0.35189  0.17497  0.55652  Biso   1.000  C
  H501     1.0000 0.35883  0.15247  0.56967  Biso   1.000  H
  C602     1.0000 0.34099  0.20623  0.58018  Biso   1.000  C
  C603     1.0000 0.33161  0.23976  0.55913  Biso   1.000  C
  H502     1.0000 0.32513  0.26167  0.57397  Biso   1.000  H
  C604     1.0000 0.33208  0.23998  0.51541  Biso   1.000  C
  H503     1.0000 0.32533  0.26227  0.50147  Biso   1.000  H
  C605     1.0000 0.33761  0.20294  0.62614  Biso   1.000  C
  H504     1.0000 0.33713  0.22797  0.64177  Biso   1.000  H
  C606     1.0000 0.43342  0.29612  0.38057  Biso   1.000  C
  H505     1.0000 0.42933  0.27047  0.36297  Biso   1.000  H
  C607     1.0000 0.47778  0.34044  0.37913  Biso   1.000  C
  H506     1.0000 0.50303  0.34447  0.36107  Biso   1.000  H
  C608     1.0000 0.48393  0.37908  0.40532  Biso   1.000  C
  C609     1.0000 0.44477  0.37174  0.43042  Biso   1.000  C
  H507     1.0000 0.44743  0.39727  0.44747  Biso   1.000  H
  C610     1.0000 0.40149  0.32624  0.43008  Biso   1.000  C
  H508     1.0000 0.37523  0.32187  0.44707  Biso   1.000  H
  C611     1.0000 0.53199  0.42616  0.40676  Biso   1.000  C
  H509     1.0000 0.53783  0.44967  0.42737  Biso   1.000  H
  C612     1.0000 0.64238  0.47799  0.40601  Biso   1.000  C
  H510     1.0000 0.63523  0.44887  0.41987  Biso   1.000  H
  N199     1.0000 0.78755  0.60374  0.41745  Biso   1.000  N
  N200     1.0000 0.34169  0.20970  0.49244  Biso   1.000  N
  N201     1.0000 0.33537  0.16533  0.64447  Biso   1.000  N
  N202     1.0000 0.60945  0.47909  0.38381  Biso   1.000  N
  N203     1.0000 0.56508  0.43424  0.37978  Biso   1.000  N
  N204     1.0000 0.39568  0.28818  0.40628  Biso   1.000  N
  C613     1.0000 0.85386  0.24749  0.39512  Biso   1.000  C
  H511     1.0000 0.87543  0.23927  0.38177  Biso   1.000  H
  C614     1.0000 0.86237  0.29550  0.39095  Biso   1.000  C
  H512     1.0000 0.88913  0.31897  0.37547  Biso   1.000  H
  C615     1.0000 0.83016  0.30773  0.41031  Biso   1.000  C
  C616     1.0000 0.79192  0.27218  0.43447  Biso   1.000  C
  H513     1.0000 0.77043  0.27977  0.44867  Biso   1.000  H
  C617     1.0000 0.78606  0.22505  0.43722  Biso   1.000  C
  H514     1.0000 0.76023  0.20127  0.45347  Biso   1.000  H
  C618     1.0000 0.82591  0.64782  0.51320  Biso   1.000  C
  H515     1.0000 0.79763  0.64007  0.49767  Biso   1.000  H
  C619     1.0000 0.82307  0.64811  0.55652  Biso   1.000  C
  H516     1.0000 0.79363  0.64117  0.56967  Biso   1.000  H
  C620     1.0000 0.86523  0.65901  0.58018  Biso   1.000  C
  C621     1.0000 0.90814  0.66839  0.55913  Biso   1.000  C
  H517     1.0000 0.93653  0.67487  0.57397  Biso   1.000  H
  C622     1.0000 0.90789  0.66792  0.51541  Biso   1.000  C
  H518     1.0000 0.93693  0.67467  0.50147  Biso   1.000  H
  C623     1.0000 0.86532  0.66239  0.62614  Biso   1.000  C
  H519     1.0000 0.89083  0.66287  0.64177  Biso   1.000  H
  C624     1.0000 0.86269  0.56658  0.38057  Biso   1.000  C
  H520     1.0000 0.84113  0.57067  0.36297  Biso   1.000  H
  C625     1.0000 0.86265  0.52222  0.37913  Biso   1.000  C
  H521     1.0000 0.84143  0.49697  0.36107  Biso   1.000  H
  C626     1.0000 0.89514  0.51607  0.40532  Biso   1.000  C
  C627     1.0000 0.92696  0.55523  0.43042  Biso   1.000  C
  H522     1.0000 0.94983  0.55257  0.44747  Biso   1.000  H
  C628     1.0000 0.92474  0.59851  0.43008  Biso   1.000  C
  H523     1.0000 0.94663  0.62477  0.44707  Biso   1.000  H
  C629     1.0000 0.89416  0.46801  0.40676  Biso   1.000  C
  H524     1.0000 0.91183  0.46217  0.42737  Biso   1.000  H
  C630     1.0000 0.83560  0.35762  0.40601  Biso   1.000  C
  H525     1.0000 0.81363  0.36477  0.41987  Biso   1.000  H
  N205     1.0000 0.81618  0.21245  0.41745  Biso   1.000  N
  N206     1.0000 0.86800  0.65831  0.49244  Biso   1.000  N
  N207     1.0000 0.82995  0.66463  0.64447  Biso   1.000  N
  N208     1.0000 0.86963  0.39055  0.38381  Biso   1.000  N
  N209     1.0000 0.86915  0.43492  0.37978  Biso   1.000  N
  N210     1.0000 0.89249  0.60432  0.40628  Biso   1.000  N
  C631     1.0000 0.39362  0.14614  0.39512  Biso   1.000  C
  H526     1.0000 0.36383  0.12457  0.38177  Biso   1.000  H
  C632     1.0000 0.43312  0.13763  0.39095  Biso   1.000  C
  H527     1.0000 0.42983  0.11087  0.37547  Biso   1.000  H
  C633     1.0000 0.47756  0.16984  0.41031  Biso   1.000  C
  C634     1.0000 0.48025  0.20808  0.43447  Biso   1.000  C
  H528     1.0000 0.50933  0.22957  0.44867  Biso   1.000  H
  C635     1.0000 0.43898  0.21394  0.43722  Biso   1.000  C
  H529     1.0000 0.44103  0.23977  0.45347  Biso   1.000  H
  C636     1.0000 0.82190  0.17409  0.51320  Biso   1.000  C
  H530     1.0000 0.84243  0.20237  0.49767  Biso   1.000  H
  C637     1.0000 0.82503  0.17693  0.55652  Biso   1.000  C
  H531     1.0000 0.84753  0.20637  0.56967  Biso   1.000  H
  C638     1.0000 0.79377  0.13477  0.58018  Biso   1.000  C
  C639     1.0000 0.76024  0.09186  0.55913  Biso   1.000  C
  H532     1.0000 0.73833  0.06347  0.57397  Biso   1.000  H
  C640     1.0000 0.76002  0.09211  0.51541  Biso   1.000  C
  H533     1.0000 0.73773  0.06307  0.50147  Biso   1.000  H
  C641     1.0000 0.79706  0.13468  0.62614  Biso   1.000  C
  H534     1.0000 0.77203  0.10917  0.64177  Biso   1.000  H
  C642     1.0000 0.70388  0.13731  0.38057  Biso   1.000  C
  H535     1.0000 0.72953  0.15887  0.36297  Biso   1.000  H
  C643     1.0000 0.65956  0.13735  0.37913  Biso   1.000  C
  H536     1.0000 0.65553  0.15857  0.36107  Biso   1.000  H
  C644     1.0000 0.62092  0.10486  0.40532  Biso   1.000  C
  C645     1.0000 0.62826  0.07304  0.43042  Biso   1.000  C
  H537     1.0000 0.60273  0.05017  0.44747  Biso   1.000  H
  C646     1.0000 0.67376  0.07526  0.43008  Biso   1.000  C
  H538     1.0000 0.67813  0.05337  0.44707  Biso   1.000  H
  C647     1.0000 0.57384  0.10584  0.40676  Biso   1.000  C
  H539     1.0000 0.55033  0.08817  0.42737  Biso   1.000  H
  C648     1.0000 0.52201  0.16440  0.40601  Biso   1.000  C
  H540     1.0000 0.55113  0.18637  0.41987  Biso   1.000  H
  N211     1.0000 0.39626  0.18382  0.41745  Biso   1.000  N
  N212     1.0000 0.79030  0.13200  0.49244  Biso   1.000  N
  N213     1.0000 0.83467  0.17005  0.64447  Biso   1.000  N
  N214     1.0000 0.52091  0.13037  0.38381  Biso   1.000  N
  N215     1.0000 0.56576  0.13085  0.37978  Biso   1.000  N
  N216     1.0000 0.71182  0.10751  0.40628  Biso   1.000  N
  Cd13     1.0000 0.79450  0.66667  0.91667  Biso   1.000  Cd
  Cd14     1.0000 0.33333  0.12783  0.91667  Biso   1.000  Cd
  Cd15     1.0000 0.87217  0.20550  0.91667  Biso   1.000  Cd
  Cd16     1.0000 0.87217  0.66667  0.41667  Biso   1.000  Cd
  Cd17     1.0000 0.33333  0.20550  0.41667  Biso   1.000  Cd
  Cd18     1.0000 0.79450  0.12783  0.41667  Biso   1.000  Cd
