data_image0
_cell_length_a       37.227
_cell_length_b       37.227
_cell_length_c       30.149
_cell_angle_alpha    90
_cell_angle_beta     90
_cell_angle_gamma    120

_symmetry_space_group_name_H-M    "P 1"
_symmetry_int_tables_number       1

loop_
  _symmetry_equiv_pos_as_xyz
  'x, y, z'

loop_
  _atom_site_label
  _atom_site_occupancy
  _atom_site_fract_x
  _atom_site_fract_y
  _atom_site_fract_z
  _atom_site_thermal_displace_type
  _atom_site_B_iso_or_equiv
  _atom_site_type_symbol
  Zn1      1.0000 0.63325  0.85832  0.73877  Biso   1.000  Zn
  Zn2      1.0000 0.70235  0.84200  0.69821  Biso   1.000  Zn
  Zn3      1.0000 0.37702  0.71901  0.21812  Biso   1.000  Zn
  O1       1.0000 0.73840  0.09510  0.27310  Biso   1.000  O
  O2       1.0000 0.79060  0.09350  0.31960  Biso   1.000  O
  O3       1.0000 0.67830  0.85440  0.64530  Biso   1.000  O
  O4       1.0000 0.62860  0.87150  0.67570  Biso   1.000  O
  O5       1.0000 0.57680  0.82002  0.75440  Biso   1.000  O
  O6       1.0000 0.75850  0.87250  0.71050  Biso   1.000  O
  F1       1.0000 0.68850  0.00860  0.26240  Biso   1.000  F
  F2       1.0000 0.74100  0.07560  0.39860  Biso   1.000  F
  F3       1.0000 0.70720  0.91570  0.58210  Biso   1.000  F
  F4       1.0000 0.56740  0.83070  0.61340  Biso   1.000  F
  F5       1.0000 0.46000  0.72520  0.38140  Biso   1.000  F
  F6       1.0000 0.45580  0.83190  0.29630  Biso   1.000  F
  F7       1.0000 0.50990  0.80140  0.69860  Biso   1.000  F
  F8       1.0000 0.82140  0.85540  0.71750  Biso   1.000  F
  C1       1.0000 0.62960  0.93440  0.39920  Biso   1.000  C
  C2       1.0000 0.63870  0.92780  0.44220  Biso   1.000  C
  H1       1.0000 0.66300  0.94750  0.45580  Biso   1.000  H
  C3       1.0000 0.61130  0.89180  0.46470  Biso   1.000  C
  C4       1.0000 0.57490  0.86230  0.44440  Biso   1.000  C
  H2       1.0000 0.55660  0.83820  0.45950  Biso   1.000  H
  C5       1.0000 0.56580  0.86890  0.40140  Biso   1.000  C
  C6       1.0000 0.59310  0.90490  0.37890  Biso   1.000  C
  H3       1.0000 0.58700  0.90930  0.35020  Biso   1.000  H
  C7       1.0000 0.65950  0.97170  0.37400  Biso   1.000  C
  C8       1.0000 0.68690  0.00660  0.39800  Biso   1.000  C
  H4       1.0000 0.68640  0.00600  0.42890  Biso   1.000  H
  C9       1.0000 0.71520  0.04260  0.37600  Biso   1.000  C
  C10      1.0000 0.71600  0.04360  0.32990  Biso   1.000  C
  C11      1.0000 0.68860  0.00860  0.30590  Biso   1.000  C
  C12      1.0000 0.66030  0.97270  0.32790  Biso   1.000  C
  H5       1.0000 0.64190  0.94930  0.31190  Biso   1.000  H
  C13      1.0000 0.61680  0.88540  0.51280  Biso   1.000  C
  C14      1.0000 0.58600  0.86020  0.54270  Biso   1.000  C
  H6       1.0000 0.55820  0.84730  0.53420  Biso   1.000  H
  C15      1.0000 0.59650  0.85430  0.58520  Biso   1.000  C
  C16      1.0000 0.63790  0.87350  0.59780  Biso   1.000  C
  C17      1.0000 0.66880  0.89870  0.56800  Biso   1.000  C
  C18      1.0000 0.65830  0.90460  0.52550  Biso   1.000  C
  H7       1.0000 0.67890  0.92140  0.50550  Biso   1.000  H
  C19      1.0000 0.52430  0.83540  0.37990  Biso   1.000  C
  C20      1.0000 0.50530  0.84670  0.34750  Biso   1.000  C
  H8       1.0000 0.51610  0.87450  0.34020  Biso   1.000  H
  C21      1.0000 0.47010  0.81640  0.32580  Biso   1.000  C
  C22      1.0000 0.45400  0.77480  0.33670  Biso   1.000  C
  C23      1.0000 0.47300  0.76350  0.36920  Biso   1.000  C
  C24      1.0000 0.50810  0.79380  0.39080  Biso   1.000  C
  H9       1.0000 0.52080  0.78630  0.41250  Biso   1.000  H
  C25      1.0000 0.75090  0.08070  0.30760  Biso   1.000  C
  C26      1.0000 0.64530  0.86040  0.64230  Biso   1.000  C
  C27      1.0000 0.41840  0.74140  0.31110  Biso   1.000  C
  C28      1.0000 0.44472  0.74690  0.72350  Biso   1.000  C
  H10      1.0000 0.43030  0.75600  0.70600  Biso   1.000  H
  C29      1.0000 0.48824  0.76850  0.72340  Biso   1.000  C
  C30      1.0000 0.88860  0.91481  0.73290  Biso   1.000  C
  H11      1.0000 0.90310  0.90250  0.72150  Biso   1.000  H
  C31      1.0000 0.84509  0.89304  0.73290  Biso   1.000  C
  O7       1.0000 0.40490  0.74780  0.27310  Biso   1.000  O
  O8       1.0000 0.38510  0.71200  0.33110  Biso   1.000  O
  F9       1.0000 0.42240  0.76300  0.41070  Biso   1.000  F
  F10      1.0000 0.49560  0.79230  0.27130  Biso   1.000  F
  C32      1.0000 0.48770  0.81180  0.40350  Biso   1.000  C
  H12      1.0000 0.48670  0.81650  0.43360  Biso   1.000  H
  C33      1.0000 0.45280  0.78100  0.38200  Biso   1.000  C
  C34      1.0000 0.49100  0.79730  0.31350  Biso   1.000  C
  C35      1.0000 0.52570  0.82870  0.33470  Biso   1.000  C
  H13      1.0000 0.54980  0.84530  0.31870  Biso   1.000  H
  Zn4      1.0000 0.62770  0.79240  0.70670  Biso   1.000  Zn
  Zn5      1.0000 0.69790  0.88950  0.72140  Biso   1.000  Zn
  O9       1.0000 0.42420  0.70960  0.30440  Biso   1.000  O
  O10      1.0000 0.39430  0.75800  0.31140  Biso   1.000  O
  O11      1.0000 0.77350  0.07170  0.27930  Biso   1.000  O
  O12      1.0000 0.74710  0.11460  0.31500  Biso   1.000  O
  O13      1.0000 0.68020  0.89240  0.65980  Biso   1.000  O
  O14      1.0000 0.61980  0.82040  0.65440  Biso   1.000  O
  O15      1.0000 0.75220  0.90930  0.74400  Biso   1.000  O
  O16      1.0000 0.57390  0.78710  0.70910  Biso   1.000  O
  Zn6      1.0000 0.14168  0.77493  0.73877  Biso   1.000  Zn
  Zn7      1.0000 0.15800  0.86035  0.69821  Biso   1.000  Zn
  Zn8      1.0000 0.28099  0.65801  0.21812  Biso   1.000  Zn
  O17      1.0000 0.90490  0.64330  0.27310  Biso   1.000  O
  O18      1.0000 0.90650  0.69710  0.31960  Biso   1.000  O
  O19      1.0000 0.14560  0.82390  0.64530  Biso   1.000  O
  O20      1.0000 0.12850  0.75710  0.67570  Biso   1.000  O
  O21      1.0000 0.17998  0.75678  0.75440  Biso   1.000  O
  O22      1.0000 0.12750  0.88600  0.71050  Biso   1.000  O
  F11      1.0000 0.99140  0.67990  0.26240  Biso   1.000  F
  F12      1.0000 0.92440  0.66540  0.39860  Biso   1.000  F
  F13      1.0000 0.08430  0.79150  0.58210  Biso   1.000  F
  F14      1.0000 0.16930  0.73670  0.61340  Biso   1.000  F
  F15      1.0000 0.27480  0.73480  0.38140  Biso   1.000  F
  F16      1.0000 0.16810  0.62390  0.29630  Biso   1.000  F
  F17      1.0000 0.19860  0.70850  0.69860  Biso   1.000  F
  F18      1.0000 0.14460  0.96600  0.71750  Biso   1.000  F
  C36      1.0000 0.06560  0.69520  0.39920  Biso   1.000  C
  C37      1.0000 0.07220  0.71090  0.44220  Biso   1.000  C
  H14      1.0000 0.05250  0.71550  0.45580  Biso   1.000  H
  C38      1.0000 0.10820  0.71950  0.46470  Biso   1.000  C
  C39      1.0000 0.13770  0.71260  0.44440  Biso   1.000  C
  H15      1.0000 0.16180  0.71840  0.45950  Biso   1.000  H
  C40      1.0000 0.13110  0.69690  0.40140  Biso   1.000  C
  C41      1.0000 0.09510  0.68820  0.37890  Biso   1.000  C
  H16      1.0000 0.09070  0.67770  0.35020  Biso   1.000  H
  C42      1.0000 0.02830  0.68780  0.37400  Biso   1.000  C
  C43      1.0000 0.99340  0.68030  0.39800  Biso   1.000  C
  H17      1.0000 0.99400  0.68040  0.42890  Biso   1.000  H
  C44      1.0000 0.95740  0.67260  0.37600  Biso   1.000  C
  C45      1.0000 0.95640  0.67240  0.32990  Biso   1.000  C
  C46      1.0000 0.99140  0.68000  0.30590  Biso   1.000  C
  C47      1.0000 0.02730  0.68760  0.32790  Biso   1.000  C
  H18      1.0000 0.05070  0.69260  0.31190  Biso   1.000  H
  C48      1.0000 0.11460  0.73140  0.51280  Biso   1.000  C
  C49      1.0000 0.13980  0.72580  0.54270  Biso   1.000  C
  H19      1.0000 0.15270  0.71090  0.53420  Biso   1.000  H
  C50      1.0000 0.14570  0.74220  0.58520  Biso   1.000  C
  C51      1.0000 0.12650  0.76440  0.59780  Biso   1.000  C
  C52      1.0000 0.10130  0.77010  0.56800  Biso   1.000  C
  C53      1.0000 0.09540  0.75370  0.52550  Biso   1.000  C
  H20      1.0000 0.07860  0.75750  0.50550  Biso   1.000  H
  C54      1.0000 0.16460  0.68890  0.37990  Biso   1.000  C
  C55      1.0000 0.15330  0.65860  0.34750  Biso   1.000  C
  H21      1.0000 0.12550  0.64160  0.34020  Biso   1.000  H
  C56      1.0000 0.18360  0.65370  0.32580  Biso   1.000  C
  C57      1.0000 0.22520  0.67920  0.33670  Biso   1.000  C
  C58      1.0000 0.23650  0.70950  0.36920  Biso   1.000  C
  C59      1.0000 0.20620  0.71430  0.39080  Biso   1.000  C
  H22      1.0000 0.21370  0.73450  0.41250  Biso   1.000  H
  C60      1.0000 0.91930  0.67020  0.30760  Biso   1.000  C
  C61      1.0000 0.13960  0.78490  0.64230  Biso   1.000  C
  C62      1.0000 0.25860  0.67700  0.31110  Biso   1.000  C
  C63      1.0000 0.25310  0.69782  0.72350  Biso   1.000  C
  H23      1.0000 0.24400  0.67430  0.70600  Biso   1.000  H
  C64      1.0000 0.23150  0.71974  0.72340  Biso   1.000  C
  C65      1.0000 0.08519  0.97379  0.73290  Biso   1.000  C
  H24      1.0000 0.09750  0.00060  0.72150  Biso   1.000  H
  C66      1.0000 0.10696  0.95205  0.73290  Biso   1.000  C
  O23      1.0000 0.25220  0.65710  0.27310  Biso   1.000  O
  O24      1.0000 0.28800  0.67310  0.33110  Biso   1.000  O
  F19      1.0000 0.23700  0.65940  0.41070  Biso   1.000  F
  F20      1.0000 0.20770  0.70330  0.27130  Biso   1.000  F
  C67      1.0000 0.18820  0.67590  0.40350  Biso   1.000  C
  H25      1.0000 0.18350  0.67020  0.43360  Biso   1.000  H
  C68      1.0000 0.21900  0.67180  0.38200  Biso   1.000  C
  C69      1.0000 0.20270  0.69370  0.31350  Biso   1.000  C
  C70      1.0000 0.17130  0.69700  0.33470  Biso   1.000  C
  H26      1.0000 0.15470  0.70450  0.31870  Biso   1.000  H
  Zn9      1.0000 0.20760  0.83530  0.70670  Biso   1.000  Zn
  Zn10     1.0000 0.11050  0.80840  0.72140  Biso   1.000  Zn
  O25      1.0000 0.29040  0.71460  0.30440  Biso   1.000  O
  O26      1.0000 0.24200  0.63630  0.31140  Biso   1.000  O
  O27      1.0000 0.92830  0.70180  0.27930  Biso   1.000  O
  O28      1.0000 0.88540  0.63250  0.31500  Biso   1.000  O
  O29      1.0000 0.10760  0.78780  0.65980  Biso   1.000  O
  O30      1.0000 0.17960  0.79940  0.65440  Biso   1.000  O
  O31      1.0000 0.09070  0.84290  0.74400  Biso   1.000  O
  O32      1.0000 0.21290  0.78680  0.70910  Biso   1.000  O
  Zn11     1.0000 0.22507  0.36675  0.73877  Biso   1.000  Zn
  Zn12     1.0000 0.13965  0.29765  0.69821  Biso   1.000  Zn
  Zn13     1.0000 0.34199  0.62298  0.21812  Biso   1.000  Zn
  O33      1.0000 0.35670  0.26160  0.27310  Biso   1.000  O
  O34      1.0000 0.30290  0.20940  0.31960  Biso   1.000  O
  O35      1.0000 0.17610  0.32170  0.64530  Biso   1.000  O
  O36      1.0000 0.24290  0.37140  0.67570  Biso   1.000  O
  O37      1.0000 0.24322  0.42320  0.75440  Biso   1.000  O
  O38      1.0000 0.11400  0.24150  0.71050  Biso   1.000  O
  F21      1.0000 0.32010  0.31150  0.26240  Biso   1.000  F
  F22      1.0000 0.33460  0.25900  0.39860  Biso   1.000  F
  F23      1.0000 0.20850  0.29280  0.58210  Biso   1.000  F
  F24      1.0000 0.26330  0.43260  0.61340  Biso   1.000  F
  F25      1.0000 0.26520  0.54000  0.38140  Biso   1.000  F
  F26      1.0000 0.37610  0.54420  0.29630  Biso   1.000  F
  F27      1.0000 0.29150  0.49010  0.69860  Biso   1.000  F
  F28      1.0000 0.03400  0.17860  0.71750  Biso   1.000  F
  C71      1.0000 0.30480  0.37040  0.39920  Biso   1.000  C
  C72      1.0000 0.28910  0.36130  0.44220  Biso   1.000  C
  H27      1.0000 0.28450  0.33700  0.45580  Biso   1.000  H
  C73      1.0000 0.28050  0.38870  0.46470  Biso   1.000  C
  C74      1.0000 0.28740  0.42510  0.44440  Biso   1.000  C
  H28      1.0000 0.28160  0.44340  0.45950  Biso   1.000  H
  C75      1.0000 0.30310  0.43420  0.40140  Biso   1.000  C
  C76      1.0000 0.31180  0.40690  0.37890  Biso   1.000  C
  H29      1.0000 0.32230  0.41300  0.35020  Biso   1.000  H
  C77      1.0000 0.31220  0.34050  0.37400  Biso   1.000  C
  C78      1.0000 0.31970  0.31310  0.39800  Biso   1.000  C
  H30      1.0000 0.31960  0.31360  0.42890  Biso   1.000  H
  C79      1.0000 0.32740  0.28480  0.37600  Biso   1.000  C
  C80      1.0000 0.32760  0.28400  0.32990  Biso   1.000  C
  C81      1.0000 0.32000  0.31140  0.30590  Biso   1.000  C
  C82      1.0000 0.31240  0.33970  0.32790  Biso   1.000  C
  H31      1.0000 0.30740  0.35810  0.31190  Biso   1.000  H
  C83      1.0000 0.26860  0.38320  0.51280  Biso   1.000  C
  C84      1.0000 0.27420  0.41400  0.54270  Biso   1.000  C
  H32      1.0000 0.28910  0.44180  0.53420  Biso   1.000  H
  C85      1.0000 0.25780  0.40350  0.58520  Biso   1.000  C
  C86      1.0000 0.23560  0.36210  0.59780  Biso   1.000  C
  C87      1.0000 0.22990  0.33120  0.56800  Biso   1.000  C
  C88      1.0000 0.24630  0.34170  0.52550  Biso   1.000  C
  H33      1.0000 0.24250  0.32110  0.50550  Biso   1.000  H
  C89      1.0000 0.31110  0.47570  0.37990  Biso   1.000  C
  C90      1.0000 0.34140  0.49470  0.34750  Biso   1.000  C
  H34      1.0000 0.35840  0.48390  0.34020  Biso   1.000  H
  C91      1.0000 0.34630  0.52990  0.32580  Biso   1.000  C
  C92      1.0000 0.32080  0.54600  0.33670  Biso   1.000  C
  C93      1.0000 0.29050  0.52700  0.36920  Biso   1.000  C
  C94      1.0000 0.28570  0.49190  0.39080  Biso   1.000  C
  H35      1.0000 0.26550  0.47920  0.41250  Biso   1.000  H
  C95      1.0000 0.32980  0.24910  0.30760  Biso   1.000  C
  C96      1.0000 0.21510  0.35470  0.64230  Biso   1.000  C
  C97      1.0000 0.32300  0.58160  0.31110  Biso   1.000  C
  C98      1.0000 0.30218  0.55528  0.72350  Biso   1.000  C
  H36      1.0000 0.32570  0.56970  0.70600  Biso   1.000  H
  C99      1.0000 0.28026  0.51176  0.72340  Biso   1.000  C
  C100     1.0000 0.02621  0.11140  0.73290  Biso   1.000  C
  H37      1.0000 0.99940  0.09690  0.72150  Biso   1.000  H
  C101     1.0000 0.04795  0.15491  0.73290  Biso   1.000  C
  O39      1.0000 0.34290  0.59510  0.27310  Biso   1.000  O
  O40      1.0000 0.32690  0.61490  0.33110  Biso   1.000  O
  F29      1.0000 0.34060  0.57760  0.41070  Biso   1.000  F
  F30      1.0000 0.29670  0.50440  0.27130  Biso   1.000  F
  C102     1.0000 0.32410  0.51230  0.40350  Biso   1.000  C
  H38      1.0000 0.32980  0.51330  0.43360  Biso   1.000  H
  C103     1.0000 0.32820  0.54720  0.38200  Biso   1.000  C
  C104     1.0000 0.30630  0.50900  0.31350  Biso   1.000  C
  C105     1.0000 0.30300  0.47430  0.33470  Biso   1.000  C
  H39      1.0000 0.29550  0.45020  0.31870  Biso   1.000  H
  Zn14     1.0000 0.16470  0.37230  0.70670  Biso   1.000  Zn
  Zn15     1.0000 0.19160  0.30210  0.72140  Biso   1.000  Zn
  O41      1.0000 0.28540  0.57580  0.30440  Biso   1.000  O
  O42      1.0000 0.36370  0.60570  0.31140  Biso   1.000  O
  O43      1.0000 0.29820  0.22650  0.27930  Biso   1.000  O
  O44      1.0000 0.36750  0.25290  0.31500  Biso   1.000  O
  O45      1.0000 0.21220  0.31980  0.65980  Biso   1.000  O
  O46      1.0000 0.20060  0.38020  0.65440  Biso   1.000  O
  O47      1.0000 0.15710  0.24780  0.74400  Biso   1.000  O
  O48      1.0000 0.21320  0.42610  0.70910  Biso   1.000  O
  Zn16     1.0000 0.14168  0.36675  0.76123  Biso   1.000  Zn
  Zn17     1.0000 0.15800  0.29765  0.80179  Biso   1.000  Zn
  Zn18     1.0000 0.28099  0.62298  0.28188  Biso   1.000  Zn
  O49      1.0000 0.90490  0.26160  0.22690  Biso   1.000  O
  O50      1.0000 0.90650  0.20940  0.18040  Biso   1.000  O
  O51      1.0000 0.14560  0.32170  0.85470  Biso   1.000  O
  O52      1.0000 0.12850  0.37140  0.82430  Biso   1.000  O
  O53      1.0000 0.17998  0.42320  0.74560  Biso   1.000  O
  O54      1.0000 0.12750  0.24150  0.78950  Biso   1.000  O
  F31      1.0000 0.99140  0.31150  0.23760  Biso   1.000  F
  F32      1.0000 0.92440  0.25900  0.10140  Biso   1.000  F
  F33      1.0000 0.08430  0.29280  0.91790  Biso   1.000  F
  F34      1.0000 0.16930  0.43260  0.88660  Biso   1.000  F
  F35      1.0000 0.27480  0.54000  0.11860  Biso   1.000  F
  F36      1.0000 0.16810  0.54420  0.20370  Biso   1.000  F
  F37      1.0000 0.19860  0.49010  0.80140  Biso   1.000  F
  F38      1.0000 0.14460  0.17860  0.78250  Biso   1.000  F
  C106     1.0000 0.06560  0.37040  0.10080  Biso   1.000  C
  C107     1.0000 0.07220  0.36130  0.05780  Biso   1.000  C
  H40      1.0000 0.05250  0.33700  0.04420  Biso   1.000  H
  C108     1.0000 0.10820  0.38870  0.03530  Biso   1.000  C
  C109     1.0000 0.13770  0.42510  0.05560  Biso   1.000  C
  H41      1.0000 0.16180  0.44340  0.04050  Biso   1.000  H
  C110     1.0000 0.13110  0.43420  0.09860  Biso   1.000  C
  C111     1.0000 0.09510  0.40690  0.12110  Biso   1.000  C
  H42      1.0000 0.09070  0.41300  0.14980  Biso   1.000  H
  C112     1.0000 0.02830  0.34050  0.12600  Biso   1.000  C
  C113     1.0000 0.99340  0.31310  0.10200  Biso   1.000  C
  H43      1.0000 0.99400  0.31360  0.07110  Biso   1.000  H
  C114     1.0000 0.95740  0.28480  0.12400  Biso   1.000  C
  C115     1.0000 0.95640  0.28400  0.17010  Biso   1.000  C
  C116     1.0000 0.99140  0.31140  0.19410  Biso   1.000  C
  C117     1.0000 0.02730  0.33970  0.17210  Biso   1.000  C
  H44      1.0000 0.05070  0.35810  0.18810  Biso   1.000  H
  C118     1.0000 0.11460  0.38320  0.98720  Biso   1.000  C
  C119     1.0000 0.13980  0.41400  0.95730  Biso   1.000  C
  H45      1.0000 0.15270  0.44180  0.96580  Biso   1.000  H
  C120     1.0000 0.14570  0.40350  0.91480  Biso   1.000  C
  C121     1.0000 0.12650  0.36210  0.90220  Biso   1.000  C
  C122     1.0000 0.10130  0.33120  0.93200  Biso   1.000  C
  C123     1.0000 0.09540  0.34170  0.97450  Biso   1.000  C
  H46      1.0000 0.07860  0.32110  0.99450  Biso   1.000  H
  C124     1.0000 0.16460  0.47570  0.12010  Biso   1.000  C
  C125     1.0000 0.15330  0.49470  0.15250  Biso   1.000  C
  H47      1.0000 0.12550  0.48390  0.15980  Biso   1.000  H
  C126     1.0000 0.18360  0.52990  0.17420  Biso   1.000  C
  C127     1.0000 0.22520  0.54600  0.16330  Biso   1.000  C
  C128     1.0000 0.23650  0.52700  0.13080  Biso   1.000  C
  C129     1.0000 0.20620  0.49190  0.10920  Biso   1.000  C
  H48      1.0000 0.21370  0.47920  0.08750  Biso   1.000  H
  C130     1.0000 0.91930  0.24910  0.19240  Biso   1.000  C
  C131     1.0000 0.13960  0.35470  0.85770  Biso   1.000  C
  C132     1.0000 0.25860  0.58160  0.18890  Biso   1.000  C
  C133     1.0000 0.25310  0.55528  0.77650  Biso   1.000  C
  H49      1.0000 0.24400  0.56970  0.79400  Biso   1.000  H
  C134     1.0000 0.23150  0.51176  0.77660  Biso   1.000  C
  C135     1.0000 0.08519  0.11140  0.76710  Biso   1.000  C
  H50      1.0000 0.09750  0.09690  0.77850  Biso   1.000  H
  C136     1.0000 0.10696  0.15491  0.76710  Biso   1.000  C
  O55      1.0000 0.25220  0.59510  0.22690  Biso   1.000  O
  O56      1.0000 0.28800  0.61490  0.16890  Biso   1.000  O
  F39      1.0000 0.23700  0.57760  0.08930  Biso   1.000  F
  F40      1.0000 0.20770  0.50440  0.22870  Biso   1.000  F
  C137     1.0000 0.18820  0.51230  0.09650  Biso   1.000  C
  H51      1.0000 0.18350  0.51330  0.06640  Biso   1.000  H
  C138     1.0000 0.21900  0.54720  0.11800  Biso   1.000  C
  C139     1.0000 0.20270  0.50900  0.18650  Biso   1.000  C
  C140     1.0000 0.17130  0.47430  0.16530  Biso   1.000  C
  H52      1.0000 0.15470  0.45020  0.18130  Biso   1.000  H
  Zn19     1.0000 0.20760  0.37230  0.79330  Biso   1.000  Zn
  Zn20     1.0000 0.11050  0.30210  0.77860  Biso   1.000  Zn
  O57      1.0000 0.29040  0.57580  0.19560  Biso   1.000  O
  O58      1.0000 0.24200  0.60570  0.18860  Biso   1.000  O
  O59      1.0000 0.92830  0.22650  0.22070  Biso   1.000  O
  O60      1.0000 0.88540  0.25290  0.18500  Biso   1.000  O
  O61      1.0000 0.10760  0.31980  0.84020  Biso   1.000  O
  O62      1.0000 0.17960  0.38020  0.84560  Biso   1.000  O
  O63      1.0000 0.09070  0.24780  0.75600  Biso   1.000  O
  O64      1.0000 0.21290  0.42610  0.79090  Biso   1.000  O
  Zn21     1.0000 0.22507  0.85832  0.76123  Biso   1.000  Zn
  Zn22     1.0000 0.13965  0.84200  0.80179  Biso   1.000  Zn
  Zn23     1.0000 0.34199  0.71901  0.28188  Biso   1.000  Zn
  O65      1.0000 0.35670  0.09510  0.22690  Biso   1.000  O
  O66      1.0000 0.30290  0.09350  0.18040  Biso   1.000  O
  O67      1.0000 0.17610  0.85440  0.85470  Biso   1.000  O
  O68      1.0000 0.24290  0.87150  0.82430  Biso   1.000  O
  O69      1.0000 0.24322  0.82002  0.74560  Biso   1.000  O
  O70      1.0000 0.11400  0.87250  0.78950  Biso   1.000  O
  F41      1.0000 0.32010  0.00860  0.23760  Biso   1.000  F
  F42      1.0000 0.33460  0.07560  0.10140  Biso   1.000  F
  F43      1.0000 0.20850  0.91570  0.91790  Biso   1.000  F
  F44      1.0000 0.26330  0.83070  0.88660  Biso   1.000  F
  F45      1.0000 0.26520  0.72520  0.11860  Biso   1.000  F
  F46      1.0000 0.37610  0.83190  0.20370  Biso   1.000  F
  F47      1.0000 0.29150  0.80140  0.80140  Biso   1.000  F
  F48      1.0000 0.03400  0.85540  0.78250  Biso   1.000  F
  C141     1.0000 0.30480  0.93440  0.10080  Biso   1.000  C
  C142     1.0000 0.28910  0.92780  0.05780  Biso   1.000  C
  H53      1.0000 0.28450  0.94750  0.04420  Biso   1.000  H
  C143     1.0000 0.28050  0.89180  0.03530  Biso   1.000  C
  C144     1.0000 0.28740  0.86230  0.05560  Biso   1.000  C
  H54      1.0000 0.28160  0.83820  0.04050  Biso   1.000  H
  C145     1.0000 0.30310  0.86890  0.09860  Biso   1.000  C
  C146     1.0000 0.31180  0.90490  0.12110  Biso   1.000  C
  H55      1.0000 0.32230  0.90930  0.14980  Biso   1.000  H
  C147     1.0000 0.31220  0.97170  0.12600  Biso   1.000  C
  C148     1.0000 0.31970  0.00660  0.10200  Biso   1.000  C
  H56      1.0000 0.31960  0.00600  0.07110  Biso   1.000  H
  C149     1.0000 0.32740  0.04260  0.12400  Biso   1.000  C
  C150     1.0000 0.32760  0.04360  0.17010  Biso   1.000  C
  C151     1.0000 0.32000  0.00860  0.19410  Biso   1.000  C
  C152     1.0000 0.31240  0.97270  0.17210  Biso   1.000  C
  H57      1.0000 0.30740  0.94930  0.18810  Biso   1.000  H
  C153     1.0000 0.26860  0.88540  0.98720  Biso   1.000  C
  C154     1.0000 0.27420  0.86020  0.95730  Biso   1.000  C
  H58      1.0000 0.28910  0.84730  0.96580  Biso   1.000  H
  C155     1.0000 0.25780  0.85430  0.91480  Biso   1.000  C
  C156     1.0000 0.23560  0.87350  0.90220  Biso   1.000  C
  C157     1.0000 0.22990  0.89870  0.93200  Biso   1.000  C
  C158     1.0000 0.24630  0.90460  0.97450  Biso   1.000  C
  H59      1.0000 0.24250  0.92140  0.99450  Biso   1.000  H
  C159     1.0000 0.31110  0.83540  0.12010  Biso   1.000  C
  C160     1.0000 0.34140  0.84670  0.15250  Biso   1.000  C
  H60      1.0000 0.35840  0.87450  0.15980  Biso   1.000  H
  C161     1.0000 0.34630  0.81640  0.17420  Biso   1.000  C
  C162     1.0000 0.32080  0.77480  0.16330  Biso   1.000  C
  C163     1.0000 0.29050  0.76350  0.13080  Biso   1.000  C
  C164     1.0000 0.28570  0.79380  0.10920  Biso   1.000  C
  H61      1.0000 0.26550  0.78630  0.08750  Biso   1.000  H
  C165     1.0000 0.32980  0.08070  0.19240  Biso   1.000  C
  C166     1.0000 0.21510  0.86040  0.85770  Biso   1.000  C
  C167     1.0000 0.32300  0.74140  0.18890  Biso   1.000  C
  C168     1.0000 0.30218  0.74690  0.77650  Biso   1.000  C
  H62      1.0000 0.32570  0.75600  0.79400  Biso   1.000  H
  C169     1.0000 0.28026  0.76850  0.77660  Biso   1.000  C
  C170     1.0000 0.02621  0.91481  0.76710  Biso   1.000  C
  H63      1.0000 0.99940  0.90250  0.77850  Biso   1.000  H
  C171     1.0000 0.04795  0.89304  0.76710  Biso   1.000  C
  O71      1.0000 0.34290  0.74780  0.22690  Biso   1.000  O
  O72      1.0000 0.32690  0.71200  0.16890  Biso   1.000  O
  F49      1.0000 0.34060  0.76300  0.08930  Biso   1.000  F
  F50      1.0000 0.29670  0.79230  0.22870  Biso   1.000  F
  C172     1.0000 0.32410  0.81180  0.09650  Biso   1.000  C
  H64      1.0000 0.32980  0.81650  0.06640  Biso   1.000  H
  C173     1.0000 0.32820  0.78100  0.11800  Biso   1.000  C
  C174     1.0000 0.30630  0.79730  0.18650  Biso   1.000  C
  C175     1.0000 0.30300  0.82870  0.16530  Biso   1.000  C
  H65      1.0000 0.29550  0.84530  0.18130  Biso   1.000  H
  Zn24     1.0000 0.16470  0.79240  0.79330  Biso   1.000  Zn
  Zn25     1.0000 0.19160  0.88950  0.77860  Biso   1.000  Zn
  O73      1.0000 0.28540  0.70960  0.19560  Biso   1.000  O
  O74      1.0000 0.36370  0.75800  0.18860  Biso   1.000  O
  O75      1.0000 0.29820  0.07170  0.22070  Biso   1.000  O
  O76      1.0000 0.36750  0.11460  0.18500  Biso   1.000  O
  O77      1.0000 0.21220  0.89240  0.84020  Biso   1.000  O
  O78      1.0000 0.20060  0.82040  0.84560  Biso   1.000  O
  O79      1.0000 0.15710  0.90930  0.75600  Biso   1.000  O
  O80      1.0000 0.21320  0.78710  0.79090  Biso   1.000  O
  Zn26     1.0000 0.63325  0.77493  0.76123  Biso   1.000  Zn
  Zn27     1.0000 0.70235  0.86035  0.80179  Biso   1.000  Zn
  Zn28     1.0000 0.37702  0.65801  0.28188  Biso   1.000  Zn
  O81      1.0000 0.73840  0.64330  0.22690  Biso   1.000  O
  O82      1.0000 0.79060  0.69710  0.18040  Biso   1.000  O
  O83      1.0000 0.67830  0.82390  0.85470  Biso   1.000  O
  O84      1.0000 0.62860  0.75710  0.82430  Biso   1.000  O
  O85      1.0000 0.57680  0.75678  0.74560  Biso   1.000  O
  O86      1.0000 0.75850  0.88600  0.78950  Biso   1.000  O
  F51      1.0000 0.68850  0.67990  0.23760  Biso   1.000  F
  F52      1.0000 0.74100  0.66540  0.10140  Biso   1.000  F
  F53      1.0000 0.70720  0.79150  0.91790  Biso   1.000  F
  F54      1.0000 0.56740  0.73670  0.88660  Biso   1.000  F
  F55      1.0000 0.46000  0.73480  0.11860  Biso   1.000  F
  F56      1.0000 0.45580  0.62390  0.20370  Biso   1.000  F
  F57      1.0000 0.50990  0.70850  0.80140  Biso   1.000  F
  F58      1.0000 0.82140  0.96600  0.78250  Biso   1.000  F
  C176     1.0000 0.62960  0.69520  0.10080  Biso   1.000  C
  C177     1.0000 0.63870  0.71090  0.05780  Biso   1.000  C
  H66      1.0000 0.66300  0.71550  0.04420  Biso   1.000  H
  C178     1.0000 0.61130  0.71950  0.03530  Biso   1.000  C
  C179     1.0000 0.57490  0.71260  0.05560  Biso   1.000  C
  H67      1.0000 0.55660  0.71840  0.04050  Biso   1.000  H
  C180     1.0000 0.56580  0.69690  0.09860  Biso   1.000  C
  C181     1.0000 0.59310  0.68820  0.12110  Biso   1.000  C
  H68      1.0000 0.58700  0.67770  0.14980  Biso   1.000  H
  C182     1.0000 0.65950  0.68780  0.12600  Biso   1.000  C
  C183     1.0000 0.68690  0.68030  0.10200  Biso   1.000  C
  H69      1.0000 0.68640  0.68040  0.07110  Biso   1.000  H
  C184     1.0000 0.71520  0.67260  0.12400  Biso   1.000  C
  C185     1.0000 0.71600  0.67240  0.17010  Biso   1.000  C
  C186     1.0000 0.68860  0.68000  0.19410  Biso   1.000  C
  C187     1.0000 0.66030  0.68760  0.17210  Biso   1.000  C
  H70      1.0000 0.64190  0.69260  0.18810  Biso   1.000  H
  C188     1.0000 0.61680  0.73140  0.98720  Biso   1.000  C
  C189     1.0000 0.58600  0.72580  0.95730  Biso   1.000  C
  H71      1.0000 0.55820  0.71090  0.96580  Biso   1.000  H
  C190     1.0000 0.59650  0.74220  0.91480  Biso   1.000  C
  C191     1.0000 0.63790  0.76440  0.90220  Biso   1.000  C
  C192     1.0000 0.66880  0.77010  0.93200  Biso   1.000  C
  C193     1.0000 0.65830  0.75370  0.97450  Biso   1.000  C
  H72      1.0000 0.67890  0.75750  0.99450  Biso   1.000  H
  C194     1.0000 0.52430  0.68890  0.12010  Biso   1.000  C
  C195     1.0000 0.50530  0.65860  0.15250  Biso   1.000  C
  H73      1.0000 0.51610  0.64160  0.15980  Biso   1.000  H
  C196     1.0000 0.47010  0.65370  0.17420  Biso   1.000  C
  C197     1.0000 0.45400  0.67920  0.16330  Biso   1.000  C
  C198     1.0000 0.47300  0.70950  0.13080  Biso   1.000  C
  C199     1.0000 0.50810  0.71430  0.10920  Biso   1.000  C
  H74      1.0000 0.52080  0.73450  0.08750  Biso   1.000  H
  C200     1.0000 0.75090  0.67020  0.19240  Biso   1.000  C
  C201     1.0000 0.64530  0.78490  0.85770  Biso   1.000  C
  C202     1.0000 0.41840  0.67700  0.18890  Biso   1.000  C
  C203     1.0000 0.44472  0.69782  0.77650  Biso   1.000  C
  H75      1.0000 0.43030  0.67430  0.79400  Biso   1.000  H
  C204     1.0000 0.48824  0.71974  0.77660  Biso   1.000  C
  C205     1.0000 0.88860  0.97379  0.76710  Biso   1.000  C
  H76      1.0000 0.90310  0.00060  0.77850  Biso   1.000  H
  C206     1.0000 0.84509  0.95205  0.76710  Biso   1.000  C
  O87      1.0000 0.40490  0.65710  0.22690  Biso   1.000  O
  O88      1.0000 0.38510  0.67310  0.16890  Biso   1.000  O
  F59      1.0000 0.42240  0.65940  0.08930  Biso   1.000  F
  F60      1.0000 0.49560  0.70330  0.22870  Biso   1.000  F
  C207     1.0000 0.48770  0.67590  0.09650  Biso   1.000  C
  H77      1.0000 0.48670  0.67020  0.06640  Biso   1.000  H
  C208     1.0000 0.45280  0.67180  0.11800  Biso   1.000  C
  C209     1.0000 0.49100  0.69370  0.18650  Biso   1.000  C
  C210     1.0000 0.52570  0.69700  0.16530  Biso   1.000  C
  H78      1.0000 0.54980  0.70450  0.18130  Biso   1.000  H
  Zn29     1.0000 0.62770  0.83530  0.79330  Biso   1.000  Zn
  Zn30     1.0000 0.69790  0.80840  0.77860  Biso   1.000  Zn
  O89      1.0000 0.42420  0.71460  0.19560  Biso   1.000  O
  O90      1.0000 0.39430  0.63630  0.18860  Biso   1.000  O
  O91      1.0000 0.77350  0.70180  0.22070  Biso   1.000  O
  O92      1.0000 0.74710  0.63250  0.18500  Biso   1.000  O
  O93      1.0000 0.68020  0.78780  0.84020  Biso   1.000  O
  O94      1.0000 0.61980  0.79940  0.84560  Biso   1.000  O
  O95      1.0000 0.75220  0.84290  0.75600  Biso   1.000  O
  O96      1.0000 0.57390  0.78680  0.79090  Biso   1.000  O
  Zn31     1.0000 0.36675  0.14168  0.26123  Biso   1.000  Zn
  Zn32     1.0000 0.29765  0.15800  0.30179  Biso   1.000  Zn
  Zn33     1.0000 0.62298  0.28099  0.78188  Biso   1.000  Zn
  O97      1.0000 0.26160  0.90490  0.72690  Biso   1.000  O
  O98      1.0000 0.20940  0.90650  0.68040  Biso   1.000  O
  O99      1.0000 0.32170  0.14560  0.35470  Biso   1.000  O
  O100     1.0000 0.37140  0.12850  0.32430  Biso   1.000  O
  O101     1.0000 0.42320  0.17998  0.24560  Biso   1.000  O
  O102     1.0000 0.24150  0.12750  0.28950  Biso   1.000  O
  F61      1.0000 0.31150  0.99140  0.73760  Biso   1.000  F
  F62      1.0000 0.25900  0.92440  0.60140  Biso   1.000  F
  F63      1.0000 0.29280  0.08430  0.41790  Biso   1.000  F
  F64      1.0000 0.43260  0.16930  0.38660  Biso   1.000  F
  F65      1.0000 0.54000  0.27480  0.61860  Biso   1.000  F
  F66      1.0000 0.54420  0.16810  0.70370  Biso   1.000  F
  F67      1.0000 0.49010  0.19860  0.30140  Biso   1.000  F
  F68      1.0000 0.17860  0.14460  0.28250  Biso   1.000  F
  C211     1.0000 0.37040  0.06560  0.60080  Biso   1.000  C
  C212     1.0000 0.36130  0.07220  0.55780  Biso   1.000  C
  H79      1.0000 0.33700  0.05250  0.54420  Biso   1.000  H
  C213     1.0000 0.38870  0.10820  0.53530  Biso   1.000  C
  C214     1.0000 0.42510  0.13770  0.55560  Biso   1.000  C
  H80      1.0000 0.44340  0.16180  0.54050  Biso   1.000  H
  C215     1.0000 0.43420  0.13110  0.59860  Biso   1.000  C
  C216     1.0000 0.40690  0.09510  0.62110  Biso   1.000  C
  H81      1.0000 0.41300  0.09070  0.64980  Biso   1.000  H
  C217     1.0000 0.34050  0.02830  0.62600  Biso   1.000  C
  C218     1.0000 0.31310  0.99340  0.60200  Biso   1.000  C
  H82      1.0000 0.31360  0.99400  0.57110  Biso   1.000  H
  C219     1.0000 0.28480  0.95740  0.62400  Biso   1.000  C
  C220     1.0000 0.28400  0.95640  0.67010  Biso   1.000  C
  C221     1.0000 0.31140  0.99140  0.69410  Biso   1.000  C
  C222     1.0000 0.33970  0.02730  0.67210  Biso   1.000  C
  H83      1.0000 0.35810  0.05070  0.68810  Biso   1.000  H
  C223     1.0000 0.38320  0.11460  0.48720  Biso   1.000  C
  C224     1.0000 0.41400  0.13980  0.45730  Biso   1.000  C
  H84      1.0000 0.44180  0.15270  0.46580  Biso   1.000  H
  C225     1.0000 0.40350  0.14570  0.41480  Biso   1.000  C
  C226     1.0000 0.36210  0.12650  0.40220  Biso   1.000  C
  C227     1.0000 0.33120  0.10130  0.43200  Biso   1.000  C
  C228     1.0000 0.34170  0.09540  0.47450  Biso   1.000  C
  H85      1.0000 0.32110  0.07860  0.49450  Biso   1.000  H
  C229     1.0000 0.47570  0.16460  0.62010  Biso   1.000  C
  C230     1.0000 0.49470  0.15330  0.65250  Biso   1.000  C
  H86      1.0000 0.48390  0.12550  0.65980  Biso   1.000  H
  C231     1.0000 0.52990  0.18360  0.67420  Biso   1.000  C
  C232     1.0000 0.54600  0.22520  0.66330  Biso   1.000  C
  C233     1.0000 0.52700  0.23650  0.63080  Biso   1.000  C
  C234     1.0000 0.49190  0.20620  0.60920  Biso   1.000  C
  H87      1.0000 0.47920  0.21370  0.58750  Biso   1.000  H
  C235     1.0000 0.24910  0.91930  0.69240  Biso   1.000  C
  C236     1.0000 0.35470  0.13960  0.35770  Biso   1.000  C
  C237     1.0000 0.58160  0.25860  0.68890  Biso   1.000  C
  C238     1.0000 0.55528  0.25310  0.27650  Biso   1.000  C
  H88      1.0000 0.56970  0.24400  0.29400  Biso   1.000  H
  C239     1.0000 0.51176  0.23150  0.27660  Biso   1.000  C
  C240     1.0000 0.11140  0.08519  0.26710  Biso   1.000  C
  H89      1.0000 0.09690  0.09750  0.27850  Biso   1.000  H
  C241     1.0000 0.15491  0.10696  0.26710  Biso   1.000  C
  O103     1.0000 0.59510  0.25220  0.72690  Biso   1.000  O
  O104     1.0000 0.61490  0.28800  0.66890  Biso   1.000  O
  F69      1.0000 0.57760  0.23700  0.58930  Biso   1.000  F
  F70      1.0000 0.50440  0.20770  0.72870  Biso   1.000  F
  C242     1.0000 0.51230  0.18820  0.59650  Biso   1.000  C
  H90      1.0000 0.51330  0.18350  0.56640  Biso   1.000  H
  C243     1.0000 0.54720  0.21900  0.61800  Biso   1.000  C
  C244     1.0000 0.50900  0.20270  0.68650  Biso   1.000  C
  C245     1.0000 0.47430  0.17130  0.66530  Biso   1.000  C
  H91      1.0000 0.45020  0.15470  0.68130  Biso   1.000  H
  Zn34     1.0000 0.37230  0.20760  0.29330  Biso   1.000  Zn
  Zn35     1.0000 0.30210  0.11050  0.27860  Biso   1.000  Zn
  O105     1.0000 0.57580  0.29040  0.69560  Biso   1.000  O
  O106     1.0000 0.60570  0.24200  0.68860  Biso   1.000  O
  O107     1.0000 0.22650  0.92830  0.72070  Biso   1.000  O
  O108     1.0000 0.25290  0.88540  0.68500  Biso   1.000  O
  O109     1.0000 0.31980  0.10760  0.34020  Biso   1.000  O
  O110     1.0000 0.38020  0.17960  0.34560  Biso   1.000  O
  O111     1.0000 0.24780  0.09070  0.25600  Biso   1.000  O
  O112     1.0000 0.42610  0.21290  0.29090  Biso   1.000  O
  Zn36     1.0000 0.85832  0.22507  0.26123  Biso   1.000  Zn
  Zn37     1.0000 0.84200  0.13965  0.30179  Biso   1.000  Zn
  Zn38     1.0000 0.71901  0.34199  0.78188  Biso   1.000  Zn
  O113     1.0000 0.09510  0.35670  0.72690  Biso   1.000  O
  O114     1.0000 0.09350  0.30290  0.68040  Biso   1.000  O
  O115     1.0000 0.85440  0.17610  0.35470  Biso   1.000  O
  O116     1.0000 0.87150  0.24290  0.32430  Biso   1.000  O
  O117     1.0000 0.82002  0.24322  0.24560  Biso   1.000  O
  O118     1.0000 0.87250  0.11400  0.28950  Biso   1.000  O
  F71      1.0000 0.00860  0.32010  0.73760  Biso   1.000  F
  F72      1.0000 0.07560  0.33460  0.60140  Biso   1.000  F
  F73      1.0000 0.91570  0.20850  0.41790  Biso   1.000  F
  F74      1.0000 0.83070  0.26330  0.38660  Biso   1.000  F
  F75      1.0000 0.72520  0.26520  0.61860  Biso   1.000  F
  F76      1.0000 0.83190  0.37610  0.70370  Biso   1.000  F
  F77      1.0000 0.80140  0.29150  0.30140  Biso   1.000  F
  F78      1.0000 0.85540  0.03400  0.28250  Biso   1.000  F
  C246     1.0000 0.93440  0.30480  0.60080  Biso   1.000  C
  C247     1.0000 0.92780  0.28910  0.55780  Biso   1.000  C
  H92      1.0000 0.94750  0.28450  0.54420  Biso   1.000  H
  C248     1.0000 0.89180  0.28050  0.53530  Biso   1.000  C
  C249     1.0000 0.86230  0.28740  0.55560  Biso   1.000  C
  H93      1.0000 0.83820  0.28160  0.54050  Biso   1.000  H
  C250     1.0000 0.86890  0.30310  0.59860  Biso   1.000  C
  C251     1.0000 0.90490  0.31180  0.62110  Biso   1.000  C
  H94      1.0000 0.90930  0.32230  0.64980  Biso   1.000  H
  C252     1.0000 0.97170  0.31220  0.62600  Biso   1.000  C
  C253     1.0000 0.00660  0.31970  0.60200  Biso   1.000  C
  H95      1.0000 0.00600  0.31960  0.57110  Biso   1.000  H
  C254     1.0000 0.04260  0.32740  0.62400  Biso   1.000  C
  C255     1.0000 0.04360  0.32760  0.67010  Biso   1.000  C
  C256     1.0000 0.00860  0.32000  0.69410  Biso   1.000  C
  C257     1.0000 0.97270  0.31240  0.67210  Biso   1.000  C
  H96      1.0000 0.94930  0.30740  0.68810  Biso   1.000  H
  C258     1.0000 0.88540  0.26860  0.48720  Biso   1.000  C
  C259     1.0000 0.86020  0.27420  0.45730  Biso   1.000  C
  H97      1.0000 0.84730  0.28910  0.46580  Biso   1.000  H
  C260     1.0000 0.85430  0.25780  0.41480  Biso   1.000  C
  C261     1.0000 0.87350  0.23560  0.40220  Biso   1.000  C
  C262     1.0000 0.89870  0.22990  0.43200  Biso   1.000  C
  C263     1.0000 0.90460  0.24630  0.47450  Biso   1.000  C
  H98      1.0000 0.92140  0.24250  0.49450  Biso   1.000  H
  C264     1.0000 0.83540  0.31110  0.62010  Biso   1.000  C
  C265     1.0000 0.84670  0.34140  0.65250  Biso   1.000  C
  H99      1.0000 0.87450  0.35840  0.65980  Biso   1.000  H
  C266     1.0000 0.81640  0.34630  0.67420  Biso   1.000  C
  C267     1.0000 0.77480  0.32080  0.66330  Biso   1.000  C
  C268     1.0000 0.76350  0.29050  0.63080  Biso   1.000  C
  C269     1.0000 0.79380  0.28570  0.60920  Biso   1.000  C
  H100     1.0000 0.78630  0.26550  0.58750  Biso   1.000  H
  C270     1.0000 0.08070  0.32980  0.69240  Biso   1.000  C
  C271     1.0000 0.86040  0.21510  0.35770  Biso   1.000  C
  C272     1.0000 0.74140  0.32300  0.68890  Biso   1.000  C
  C273     1.0000 0.74690  0.30218  0.27650  Biso   1.000  C
  H101     1.0000 0.75600  0.32570  0.29400  Biso   1.000  H
  C274     1.0000 0.76850  0.28026  0.27660  Biso   1.000  C
  C275     1.0000 0.91481  0.02621  0.26710  Biso   1.000  C
  H102     1.0000 0.90250  0.99940  0.27850  Biso   1.000  H
  C276     1.0000 0.89304  0.04795  0.26710  Biso   1.000  C
  O119     1.0000 0.74780  0.34290  0.72690  Biso   1.000  O
  O120     1.0000 0.71200  0.32690  0.66890  Biso   1.000  O
  F79      1.0000 0.76300  0.34060  0.58930  Biso   1.000  F
  F80      1.0000 0.79230  0.29670  0.72870  Biso   1.000  F
  C277     1.0000 0.81180  0.32410  0.59650  Biso   1.000  C
  H103     1.0000 0.81650  0.32980  0.56640  Biso   1.000  H
  C278     1.0000 0.78100  0.32820  0.61800  Biso   1.000  C
  C279     1.0000 0.79730  0.30630  0.68650  Biso   1.000  C
  C280     1.0000 0.82870  0.30300  0.66530  Biso   1.000  C
  H104     1.0000 0.84530  0.29550  0.68130  Biso   1.000  H
  Zn39     1.0000 0.79240  0.16470  0.29330  Biso   1.000  Zn
  Zn40     1.0000 0.88950  0.19160  0.27860  Biso   1.000  Zn
  O121     1.0000 0.70960  0.28540  0.69560  Biso   1.000  O
  O122     1.0000 0.75800  0.36370  0.68860  Biso   1.000  O
  O123     1.0000 0.07170  0.29820  0.72070  Biso   1.000  O
  O124     1.0000 0.11460  0.36750  0.68500  Biso   1.000  O
  O125     1.0000 0.89240  0.21220  0.34020  Biso   1.000  O
  O126     1.0000 0.82040  0.20060  0.34560  Biso   1.000  O
  O127     1.0000 0.90930  0.15710  0.25600  Biso   1.000  O
  O128     1.0000 0.78710  0.21320  0.29090  Biso   1.000  O
  Zn41     1.0000 0.77493  0.63325  0.26123  Biso   1.000  Zn
  Zn42     1.0000 0.86035  0.70235  0.30179  Biso   1.000  Zn
  Zn43     1.0000 0.65801  0.37702  0.78188  Biso   1.000  Zn
  O129     1.0000 0.64330  0.73840  0.72690  Biso   1.000  O
  O130     1.0000 0.69710  0.79060  0.68040  Biso   1.000  O
  O131     1.0000 0.82390  0.67830  0.35470  Biso   1.000  O
  O132     1.0000 0.75710  0.62860  0.32430  Biso   1.000  O
  O133     1.0000 0.75678  0.57680  0.24560  Biso   1.000  O
  O134     1.0000 0.88600  0.75850  0.28950  Biso   1.000  O
  F81      1.0000 0.67990  0.68850  0.73760  Biso   1.000  F
  F82      1.0000 0.66540  0.74100  0.60140  Biso   1.000  F
  F83      1.0000 0.79150  0.70720  0.41790  Biso   1.000  F
  F84      1.0000 0.73670  0.56740  0.38660  Biso   1.000  F
  F85      1.0000 0.73480  0.46000  0.61860  Biso   1.000  F
  F86      1.0000 0.62390  0.45580  0.70370  Biso   1.000  F
  F87      1.0000 0.70850  0.50990  0.30140  Biso   1.000  F
  F88      1.0000 0.96600  0.82140  0.28250  Biso   1.000  F
  C281     1.0000 0.69520  0.62960  0.60080  Biso   1.000  C
  C282     1.0000 0.71090  0.63870  0.55780  Biso   1.000  C
  H105     1.0000 0.71550  0.66300  0.54420  Biso   1.000  H
  C283     1.0000 0.71950  0.61130  0.53530  Biso   1.000  C
  C284     1.0000 0.71260  0.57490  0.55560  Biso   1.000  C
  H106     1.0000 0.71840  0.55660  0.54050  Biso   1.000  H
  C285     1.0000 0.69690  0.56580  0.59860  Biso   1.000  C
  C286     1.0000 0.68820  0.59310  0.62110  Biso   1.000  C
  H107     1.0000 0.67770  0.58700  0.64980  Biso   1.000  H
  C287     1.0000 0.68780  0.65950  0.62600  Biso   1.000  C
  C288     1.0000 0.68030  0.68690  0.60200  Biso   1.000  C
  H108     1.0000 0.68040  0.68640  0.57110  Biso   1.000  H
  C289     1.0000 0.67260  0.71520  0.62400  Biso   1.000  C
  C290     1.0000 0.67240  0.71600  0.67010  Biso   1.000  C
  C291     1.0000 0.68000  0.68860  0.69410  Biso   1.000  C
  C292     1.0000 0.68760  0.66030  0.67210  Biso   1.000  C
  H109     1.0000 0.69260  0.64190  0.68810  Biso   1.000  H
  C293     1.0000 0.73140  0.61680  0.48720  Biso   1.000  C
  C294     1.0000 0.72580  0.58600  0.45730  Biso   1.000  C
  H110     1.0000 0.71090  0.55820  0.46580  Biso   1.000  H
  C295     1.0000 0.74220  0.59650  0.41480  Biso   1.000  C
  C296     1.0000 0.76440  0.63790  0.40220  Biso   1.000  C
  C297     1.0000 0.77010  0.66880  0.43200  Biso   1.000  C
  C298     1.0000 0.75370  0.65830  0.47450  Biso   1.000  C
  H111     1.0000 0.75750  0.67890  0.49450  Biso   1.000  H
  C299     1.0000 0.68890  0.52430  0.62010  Biso   1.000  C
  C300     1.0000 0.65860  0.50530  0.65250  Biso   1.000  C
  H112     1.0000 0.64160  0.51610  0.65980  Biso   1.000  H
  C301     1.0000 0.65370  0.47010  0.67420  Biso   1.000  C
  C302     1.0000 0.67920  0.45400  0.66330  Biso   1.000  C
  C303     1.0000 0.70950  0.47300  0.63080  Biso   1.000  C
  C304     1.0000 0.71430  0.50810  0.60920  Biso   1.000  C
  H113     1.0000 0.73450  0.52080  0.58750  Biso   1.000  H
  C305     1.0000 0.67020  0.75090  0.69240  Biso   1.000  C
  C306     1.0000 0.78490  0.64530  0.35770  Biso   1.000  C
  C307     1.0000 0.67700  0.41840  0.68890  Biso   1.000  C
  C308     1.0000 0.69782  0.44472  0.27650  Biso   1.000  C
  H114     1.0000 0.67430  0.43030  0.29400  Biso   1.000  H
  C309     1.0000 0.71974  0.48824  0.27660  Biso   1.000  C
  C310     1.0000 0.97379  0.88860  0.26710  Biso   1.000  C
  H115     1.0000 0.00060  0.90310  0.27850  Biso   1.000  H
  C311     1.0000 0.95205  0.84509  0.26710  Biso   1.000  C
  O135     1.0000 0.65710  0.40490  0.72690  Biso   1.000  O
  O136     1.0000 0.67310  0.38510  0.66890  Biso   1.000  O
  F89      1.0000 0.65940  0.42240  0.58930  Biso   1.000  F
  F90      1.0000 0.70330  0.49560  0.72870  Biso   1.000  F
  C312     1.0000 0.67590  0.48770  0.59650  Biso   1.000  C
  H116     1.0000 0.67020  0.48670  0.56640  Biso   1.000  H
  C313     1.0000 0.67180  0.45280  0.61800  Biso   1.000  C
  C314     1.0000 0.69370  0.49100  0.68650  Biso   1.000  C
  C315     1.0000 0.69700  0.52570  0.66530  Biso   1.000  C
  H117     1.0000 0.70450  0.54980  0.68130  Biso   1.000  H
  Zn44     1.0000 0.83530  0.62770  0.29330  Biso   1.000  Zn
  Zn45     1.0000 0.80840  0.69790  0.27860  Biso   1.000  Zn
  O137     1.0000 0.71460  0.42420  0.69560  Biso   1.000  O
  O138     1.0000 0.63630  0.39430  0.68860  Biso   1.000  O
  O139     1.0000 0.70180  0.77350  0.72070  Biso   1.000  O
  O140     1.0000 0.63250  0.74710  0.68500  Biso   1.000  O
  O141     1.0000 0.78780  0.68020  0.34020  Biso   1.000  O
  O142     1.0000 0.79940  0.61980  0.34560  Biso   1.000  O
  O143     1.0000 0.84290  0.75220  0.25600  Biso   1.000  O
  O144     1.0000 0.78680  0.57390  0.29090  Biso   1.000  O
  Zn46     1.0000 0.85832  0.63325  0.23877  Biso   1.000  Zn
  Zn47     1.0000 0.84200  0.70235  0.19821  Biso   1.000  Zn
  Zn48     1.0000 0.71901  0.37702  0.71812  Biso   1.000  Zn
  O145     1.0000 0.09510  0.73840  0.77310  Biso   1.000  O
  O146     1.0000 0.09350  0.79060  0.81960  Biso   1.000  O
  O147     1.0000 0.85440  0.67830  0.14530  Biso   1.000  O
  O148     1.0000 0.87150  0.62860  0.17570  Biso   1.000  O
  O149     1.0000 0.82002  0.57680  0.25440  Biso   1.000  O
  O150     1.0000 0.87250  0.75850  0.21050  Biso   1.000  O
  F91      1.0000 0.00860  0.68850  0.76240  Biso   1.000  F
  F92      1.0000 0.07560  0.74100  0.89860  Biso   1.000  F
  F93      1.0000 0.91570  0.70720  0.08210  Biso   1.000  F
  F94      1.0000 0.83070  0.56740  0.11340  Biso   1.000  F
  F95      1.0000 0.72520  0.46000  0.88140  Biso   1.000  F
  F96      1.0000 0.83190  0.45580  0.79630  Biso   1.000  F
  F97      1.0000 0.80140  0.50990  0.19860  Biso   1.000  F
  F98      1.0000 0.85540  0.82140  0.21750  Biso   1.000  F
  C316     1.0000 0.93440  0.62960  0.89920  Biso   1.000  C
  C317     1.0000 0.92780  0.63870  0.94220  Biso   1.000  C
  H118     1.0000 0.94750  0.66300  0.95580  Biso   1.000  H
  C318     1.0000 0.89180  0.61130  0.96470  Biso   1.000  C
  C319     1.0000 0.86230  0.57490  0.94440  Biso   1.000  C
  H119     1.0000 0.83820  0.55660  0.95950  Biso   1.000  H
  C320     1.0000 0.86890  0.56580  0.90140  Biso   1.000  C
  C321     1.0000 0.90490  0.59310  0.87890  Biso   1.000  C
  H120     1.0000 0.90930  0.58700  0.85020  Biso   1.000  H
  C322     1.0000 0.97170  0.65950  0.87400  Biso   1.000  C
  C323     1.0000 0.00660  0.68690  0.89800  Biso   1.000  C
  H121     1.0000 0.00600  0.68640  0.92890  Biso   1.000  H
  C324     1.0000 0.04260  0.71520  0.87600  Biso   1.000  C
  C325     1.0000 0.04360  0.71600  0.82990  Biso   1.000  C
  C326     1.0000 0.00860  0.68860  0.80590  Biso   1.000  C
  C327     1.0000 0.97270  0.66030  0.82790  Biso   1.000  C
  H122     1.0000 0.94930  0.64190  0.81190  Biso   1.000  H
  C328     1.0000 0.88540  0.61680  0.01280  Biso   1.000  C
  C329     1.0000 0.86020  0.58600  0.04270  Biso   1.000  C
  H123     1.0000 0.84730  0.55820  0.03420  Biso   1.000  H
  C330     1.0000 0.85430  0.59650  0.08520  Biso   1.000  C
  C331     1.0000 0.87350  0.63790  0.09780  Biso   1.000  C
  C332     1.0000 0.89870  0.66880  0.06800  Biso   1.000  C
  C333     1.0000 0.90460  0.65830  0.02550  Biso   1.000  C
  H124     1.0000 0.92140  0.67890  0.00550  Biso   1.000  H
  C334     1.0000 0.83540  0.52430  0.87990  Biso   1.000  C
  C335     1.0000 0.84670  0.50530  0.84750  Biso   1.000  C
  H125     1.0000 0.87450  0.51610  0.84020  Biso   1.000  H
  C336     1.0000 0.81640  0.47010  0.82580  Biso   1.000  C
  C337     1.0000 0.77480  0.45400  0.83670  Biso   1.000  C
  C338     1.0000 0.76350  0.47300  0.86920  Biso   1.000  C
  C339     1.0000 0.79380  0.50810  0.89080  Biso   1.000  C
  H126     1.0000 0.78630  0.52080  0.91250  Biso   1.000  H
  C340     1.0000 0.08070  0.75090  0.80760  Biso   1.000  C
  C341     1.0000 0.86040  0.64530  0.14230  Biso   1.000  C
  C342     1.0000 0.74140  0.41840  0.81110  Biso   1.000  C
  C343     1.0000 0.74690  0.44472  0.22350  Biso   1.000  C
  H127     1.0000 0.75600  0.43030  0.20600  Biso   1.000  H
  C344     1.0000 0.76850  0.48824  0.22340  Biso   1.000  C
  C345     1.0000 0.91481  0.88860  0.23290  Biso   1.000  C
  H128     1.0000 0.90250  0.90310  0.22150  Biso   1.000  H
  C346     1.0000 0.89304  0.84509  0.23290  Biso   1.000  C
  O151     1.0000 0.74780  0.40490  0.77310  Biso   1.000  O
  O152     1.0000 0.71200  0.38510  0.83110  Biso   1.000  O
  F99      1.0000 0.76300  0.42240  0.91070  Biso   1.000  F
  F100     1.0000 0.79230  0.49560  0.77130  Biso   1.000  F
  C347     1.0000 0.81180  0.48770  0.90350  Biso   1.000  C
  H129     1.0000 0.81650  0.48670  0.93360  Biso   1.000  H
  C348     1.0000 0.78100  0.45280  0.88200  Biso   1.000  C
  C349     1.0000 0.79730  0.49100  0.81350  Biso   1.000  C
  C350     1.0000 0.82870  0.52570  0.83470  Biso   1.000  C
  H130     1.0000 0.84530  0.54980  0.81870  Biso   1.000  H
  Zn49     1.0000 0.79240  0.62770  0.20670  Biso   1.000  Zn
  Zn50     1.0000 0.88950  0.69790  0.22140  Biso   1.000  Zn
  O153     1.0000 0.70960  0.42420  0.80440  Biso   1.000  O
  O154     1.0000 0.75800  0.39430  0.81140  Biso   1.000  O
  O155     1.0000 0.07170  0.77350  0.77930  Biso   1.000  O
  O156     1.0000 0.11460  0.74710  0.81500  Biso   1.000  O
  O157     1.0000 0.89240  0.68020  0.15980  Biso   1.000  O
  O158     1.0000 0.82040  0.61980  0.15440  Biso   1.000  O
  O159     1.0000 0.90930  0.75220  0.24400  Biso   1.000  O
  O160     1.0000 0.78710  0.57390  0.20910  Biso   1.000  O
  Zn51     1.0000 0.77493  0.14168  0.23877  Biso   1.000  Zn
  Zn52     1.0000 0.86035  0.15800  0.19821  Biso   1.000  Zn
  Zn53     1.0000 0.65801  0.28099  0.71812  Biso   1.000  Zn
  O161     1.0000 0.64330  0.90490  0.77310  Biso   1.000  O
  O162     1.0000 0.69710  0.90650  0.81960  Biso   1.000  O
  O163     1.0000 0.82390  0.14560  0.14530  Biso   1.000  O
  O164     1.0000 0.75710  0.12850  0.17570  Biso   1.000  O
  O165     1.0000 0.75678  0.17998  0.25440  Biso   1.000  O
  O166     1.0000 0.88600  0.12750  0.21050  Biso   1.000  O
  F101     1.0000 0.67990  0.99140  0.76240  Biso   1.000  F
  F102     1.0000 0.66540  0.92440  0.89860  Biso   1.000  F
  F103     1.0000 0.79150  0.08430  0.08210  Biso   1.000  F
  F104     1.0000 0.73670  0.16930  0.11340  Biso   1.000  F
  F105     1.0000 0.73480  0.27480  0.88140  Biso   1.000  F
  F106     1.0000 0.62390  0.16810  0.79630  Biso   1.000  F
  F107     1.0000 0.70850  0.19860  0.19860  Biso   1.000  F
  F108     1.0000 0.96600  0.14460  0.21750  Biso   1.000  F
  C351     1.0000 0.69520  0.06560  0.89920  Biso   1.000  C
  C352     1.0000 0.71090  0.07220  0.94220  Biso   1.000  C
  H131     1.0000 0.71550  0.05250  0.95580  Biso   1.000  H
  C353     1.0000 0.71950  0.10820  0.96470  Biso   1.000  C
  C354     1.0000 0.71260  0.13770  0.94440  Biso   1.000  C
  H132     1.0000 0.71840  0.16180  0.95950  Biso   1.000  H
  C355     1.0000 0.69690  0.13110  0.90140  Biso   1.000  C
  C356     1.0000 0.68820  0.09510  0.87890  Biso   1.000  C
  H133     1.0000 0.67770  0.09070  0.85020  Biso   1.000  H
  C357     1.0000 0.68780  0.02830  0.87400  Biso   1.000  C
  C358     1.0000 0.68030  0.99340  0.89800  Biso   1.000  C
  H134     1.0000 0.68040  0.99400  0.92890  Biso   1.000  H
  C359     1.0000 0.67260  0.95740  0.87600  Biso   1.000  C
  C360     1.0000 0.67240  0.95640  0.82990  Biso   1.000  C
  C361     1.0000 0.68000  0.99140  0.80590  Biso   1.000  C
  C362     1.0000 0.68760  0.02730  0.82790  Biso   1.000  C
  H135     1.0000 0.69260  0.05070  0.81190  Biso   1.000  H
  C363     1.0000 0.73140  0.11460  0.01280  Biso   1.000  C
  C364     1.0000 0.72580  0.13980  0.04270  Biso   1.000  C
  H136     1.0000 0.71090  0.15270  0.03420  Biso   1.000  H
  C365     1.0000 0.74220  0.14570  0.08520  Biso   1.000  C
  C366     1.0000 0.76440  0.12650  0.09780  Biso   1.000  C
  C367     1.0000 0.77010  0.10130  0.06800  Biso   1.000  C
  C368     1.0000 0.75370  0.09540  0.02550  Biso   1.000  C
  H137     1.0000 0.75750  0.07860  0.00550  Biso   1.000  H
  C369     1.0000 0.68890  0.16460  0.87990  Biso   1.000  C
  C370     1.0000 0.65860  0.15330  0.84750  Biso   1.000  C
  H138     1.0000 0.64160  0.12550  0.84020  Biso   1.000  H
  C371     1.0000 0.65370  0.18360  0.82580  Biso   1.000  C
  C372     1.0000 0.67920  0.22520  0.83670  Biso   1.000  C
  C373     1.0000 0.70950  0.23650  0.86920  Biso   1.000  C
  C374     1.0000 0.71430  0.20620  0.89080  Biso   1.000  C
  H139     1.0000 0.73450  0.21370  0.91250  Biso   1.000  H
  C375     1.0000 0.67020  0.91930  0.80760  Biso   1.000  C
  C376     1.0000 0.78490  0.13960  0.14230  Biso   1.000  C
  C377     1.0000 0.67700  0.25860  0.81110  Biso   1.000  C
  C378     1.0000 0.69782  0.25310  0.22350  Biso   1.000  C
  H140     1.0000 0.67430  0.24400  0.20600  Biso   1.000  H
  C379     1.0000 0.71974  0.23150  0.22340  Biso   1.000  C
  C380     1.0000 0.97379  0.08519  0.23290  Biso   1.000  C
  H141     1.0000 0.00060  0.09750  0.22150  Biso   1.000  H
  C381     1.0000 0.95205  0.10696  0.23290  Biso   1.000  C
  O167     1.0000 0.65710  0.25220  0.77310  Biso   1.000  O
  O168     1.0000 0.67310  0.28800  0.83110  Biso   1.000  O
  F109     1.0000 0.65940  0.23700  0.91070  Biso   1.000  F
  F110     1.0000 0.70330  0.20770  0.77130  Biso   1.000  F
  C382     1.0000 0.67590  0.18820  0.90350  Biso   1.000  C
  H142     1.0000 0.67020  0.18350  0.93360  Biso   1.000  H
  C383     1.0000 0.67180  0.21900  0.88200  Biso   1.000  C
  C384     1.0000 0.69370  0.20270  0.81350  Biso   1.000  C
  C385     1.0000 0.69700  0.17130  0.83470  Biso   1.000  C
  H143     1.0000 0.70450  0.15470  0.81870  Biso   1.000  H
  Zn54     1.0000 0.83530  0.20760  0.20670  Biso   1.000  Zn
  Zn55     1.0000 0.80840  0.11050  0.22140  Biso   1.000  Zn
  O169     1.0000 0.71460  0.29040  0.80440  Biso   1.000  O
  O170     1.0000 0.63630  0.24200  0.81140  Biso   1.000  O
  O171     1.0000 0.70180  0.92830  0.77930  Biso   1.000  O
  O172     1.0000 0.63250  0.88540  0.81500  Biso   1.000  O
  O173     1.0000 0.78780  0.10760  0.15980  Biso   1.000  O
  O174     1.0000 0.79940  0.17960  0.15440  Biso   1.000  O
  O175     1.0000 0.84290  0.09070  0.24400  Biso   1.000  O
  O176     1.0000 0.78680  0.21290  0.20910  Biso   1.000  O
  Zn56     1.0000 0.36675  0.22507  0.23877  Biso   1.000  Zn
  Zn57     1.0000 0.29765  0.13965  0.19821  Biso   1.000  Zn
  Zn58     1.0000 0.62298  0.34199  0.71812  Biso   1.000  Zn
  O177     1.0000 0.26160  0.35670  0.77310  Biso   1.000  O
  O178     1.0000 0.20940  0.30290  0.81960  Biso   1.000  O
  O179     1.0000 0.32170  0.17610  0.14530  Biso   1.000  O
  O180     1.0000 0.37140  0.24290  0.17570  Biso   1.000  O
  O181     1.0000 0.42320  0.24322  0.25440  Biso   1.000  O
  O182     1.0000 0.24150  0.11400  0.21050  Biso   1.000  O
  F111     1.0000 0.31150  0.32010  0.76240  Biso   1.000  F
  F112     1.0000 0.25900  0.33460  0.89860  Biso   1.000  F
  F113     1.0000 0.29280  0.20850  0.08210  Biso   1.000  F
  F114     1.0000 0.43260  0.26330  0.11340  Biso   1.000  F
  F115     1.0000 0.54000  0.26520  0.88140  Biso   1.000  F
  F116     1.0000 0.54420  0.37610  0.79630  Biso   1.000  F
  F117     1.0000 0.49010  0.29150  0.19860  Biso   1.000  F
  F118     1.0000 0.17860  0.03400  0.21750  Biso   1.000  F
  C386     1.0000 0.37040  0.30480  0.89920  Biso   1.000  C
  C387     1.0000 0.36130  0.28910  0.94220  Biso   1.000  C
  H144     1.0000 0.33700  0.28450  0.95580  Biso   1.000  H
  C388     1.0000 0.38870  0.28050  0.96470  Biso   1.000  C
  C389     1.0000 0.42510  0.28740  0.94440  Biso   1.000  C
  H145     1.0000 0.44340  0.28160  0.95950  Biso   1.000  H
  C390     1.0000 0.43420  0.30310  0.90140  Biso   1.000  C
  C391     1.0000 0.40690  0.31180  0.87890  Biso   1.000  C
  H146     1.0000 0.41300  0.32230  0.85020  Biso   1.000  H
  C392     1.0000 0.34050  0.31220  0.87400  Biso   1.000  C
  C393     1.0000 0.31310  0.31970  0.89800  Biso   1.000  C
  H147     1.0000 0.31360  0.31960  0.92890  Biso   1.000  H
  C394     1.0000 0.28480  0.32740  0.87600  Biso   1.000  C
  C395     1.0000 0.28400  0.32760  0.82990  Biso   1.000  C
  C396     1.0000 0.31140  0.32000  0.80590  Biso   1.000  C
  C397     1.0000 0.33970  0.31240  0.82790  Biso   1.000  C
  H148     1.0000 0.35810  0.30740  0.81190  Biso   1.000  H
  C398     1.0000 0.38320  0.26860  0.01280  Biso   1.000  C
  C399     1.0000 0.41400  0.27420  0.04270  Biso   1.000  C
  H149     1.0000 0.44180  0.28910  0.03420  Biso   1.000  H
  C400     1.0000 0.40350  0.25780  0.08520  Biso   1.000  C
  C401     1.0000 0.36210  0.23560  0.09780  Biso   1.000  C
  C402     1.0000 0.33120  0.22990  0.06800  Biso   1.000  C
  C403     1.0000 0.34170  0.24630  0.02550  Biso   1.000  C
  H150     1.0000 0.32110  0.24250  0.00550  Biso   1.000  H
  C404     1.0000 0.47570  0.31110  0.87990  Biso   1.000  C
  C405     1.0000 0.49470  0.34140  0.84750  Biso   1.000  C
  H151     1.0000 0.48390  0.35840  0.84020  Biso   1.000  H
  C406     1.0000 0.52990  0.34630  0.82580  Biso   1.000  C
  C407     1.0000 0.54600  0.32080  0.83670  Biso   1.000  C
  C408     1.0000 0.52700  0.29050  0.86920  Biso   1.000  C
  C409     1.0000 0.49190  0.28570  0.89080  Biso   1.000  C
  H152     1.0000 0.47920  0.26550  0.91250  Biso   1.000  H
  C410     1.0000 0.24910  0.32980  0.80760  Biso   1.000  C
  C411     1.0000 0.35470  0.21510  0.14230  Biso   1.000  C
  C412     1.0000 0.58160  0.32300  0.81110  Biso   1.000  C
  C413     1.0000 0.55528  0.30218  0.22350  Biso   1.000  C
  H153     1.0000 0.56970  0.32570  0.20600  Biso   1.000  H
  C414     1.0000 0.51176  0.28026  0.22340  Biso   1.000  C
  C415     1.0000 0.11140  0.02621  0.23290  Biso   1.000  C
  H154     1.0000 0.09690  0.99940  0.22150  Biso   1.000  H
  C416     1.0000 0.15491  0.04795  0.23290  Biso   1.000  C
  O183     1.0000 0.59510  0.34290  0.77310  Biso   1.000  O
  O184     1.0000 0.61490  0.32690  0.83110  Biso   1.000  O
  F119     1.0000 0.57760  0.34060  0.91070  Biso   1.000  F
  F120     1.0000 0.50440  0.29670  0.77130  Biso   1.000  F
  C417     1.0000 0.51230  0.32410  0.90350  Biso   1.000  C
  H155     1.0000 0.51330  0.32980  0.93360  Biso   1.000  H
  C418     1.0000 0.54720  0.32820  0.88200  Biso   1.000  C
  C419     1.0000 0.50900  0.30630  0.81350  Biso   1.000  C
  C420     1.0000 0.47430  0.30300  0.83470  Biso   1.000  C
  H156     1.0000 0.45020  0.29550  0.81870  Biso   1.000  H
  Zn59     1.0000 0.37230  0.16470  0.20670  Biso   1.000  Zn
  Zn60     1.0000 0.30210  0.19160  0.22140  Biso   1.000  Zn
  O185     1.0000 0.57580  0.28540  0.80440  Biso   1.000  O
  O186     1.0000 0.60570  0.36370  0.81140  Biso   1.000  O
  O187     1.0000 0.22650  0.29820  0.77930  Biso   1.000  O
  O188     1.0000 0.25290  0.36750  0.81500  Biso   1.000  O
  O189     1.0000 0.31980  0.21220  0.15980  Biso   1.000  O
  O190     1.0000 0.38020  0.20060  0.15440  Biso   1.000  O
  O191     1.0000 0.24780  0.15710  0.24400  Biso   1.000  O
  O192     1.0000 0.42610  0.21320  0.20910  Biso   1.000  O
  Zn61     1.0000 0.33333  0.66667  0.30640  Biso   1.000  Zn
  Zn62     1.0000 0.33333  0.66667  0.19360  Biso   1.000  Zn
  Zn63     1.0000 0.66667  0.33333  0.69360  Biso   1.000  Zn
  Zn64     1.0000 0.66667  0.33333  0.80640  Biso   1.000  Zn
  O193     1.0000 0.66470  0.83235  0.75000  Biso   1.000  O
  C421     1.0000 0.37770  0.68885  0.75000  Biso   1.000  C
  C422     1.0000 0.42313  0.71157  0.75000  Biso   1.000  C
  C423     1.0000 0.50983  0.75492  0.75000  Biso   1.000  C
  C424     1.0000 0.55640  0.77820  0.75000  Biso   1.000  C
  C425     1.0000 0.95280  0.97640  0.75000  Biso   1.000  C
  C426     1.0000 0.91020  0.95510  0.75000  Biso   1.000  C
  C427     1.0000 0.82349  0.91175  0.75000  Biso   1.000  C
  C428     1.0000 0.77700  0.88850  0.75000  Biso   1.000  C
  O194     1.0000 0.16765  0.83235  0.75000  Biso   1.000  O
  C429     1.0000 0.31115  0.68885  0.75000  Biso   1.000  C
  C430     1.0000 0.28843  0.71157  0.75000  Biso   1.000  C
  C431     1.0000 0.24508  0.75491  0.75000  Biso   1.000  C
  C432     1.0000 0.22180  0.77820  0.75000  Biso   1.000  C
  C433     1.0000 0.02360  0.97640  0.75000  Biso   1.000  C
  C434     1.0000 0.04490  0.95510  0.75000  Biso   1.000  C
  C435     1.0000 0.08825  0.91175  0.75000  Biso   1.000  C
  C436     1.0000 0.11150  0.88850  0.75000  Biso   1.000  C
  O195     1.0000 0.16765  0.33530  0.75000  Biso   1.000  O
  C437     1.0000 0.31115  0.62230  0.75000  Biso   1.000  C
  C438     1.0000 0.28844  0.57687  0.75000  Biso   1.000  C
  C439     1.0000 0.24509  0.49017  0.75000  Biso   1.000  C
  C440     1.0000 0.22180  0.44360  0.75000  Biso   1.000  C
  C441     1.0000 0.02360  0.04720  0.75000  Biso   1.000  C
  C442     1.0000 0.04490  0.08980  0.75000  Biso   1.000  C
  C443     1.0000 0.08825  0.17651  0.75000  Biso   1.000  C
  C444     1.0000 0.11150  0.22300  0.75000  Biso   1.000  C
  O196     1.0000 0.33530  0.16765  0.25000  Biso   1.000  O
  C445     1.0000 0.62230  0.31115  0.25000  Biso   1.000  C
  C446     1.0000 0.57687  0.28843  0.25000  Biso   1.000  C
  C447     1.0000 0.49017  0.24508  0.25000  Biso   1.000  C
  C448     1.0000 0.44360  0.22180  0.25000  Biso   1.000  C
  C449     1.0000 0.04720  0.02360  0.25000  Biso   1.000  C
  C450     1.0000 0.08980  0.04490  0.25000  Biso   1.000  C
  C451     1.0000 0.17651  0.08825  0.25000  Biso   1.000  C
  C452     1.0000 0.22300  0.11150  0.25000  Biso   1.000  C
  O197     1.0000 0.83235  0.16765  0.25000  Biso   1.000  O
  C453     1.0000 0.68885  0.31115  0.25000  Biso   1.000  C
  C454     1.0000 0.71157  0.28843  0.25000  Biso   1.000  C
  C455     1.0000 0.75492  0.24509  0.25000  Biso   1.000  C
  C456     1.0000 0.77820  0.22180  0.25000  Biso   1.000  C
  C457     1.0000 0.97640  0.02360  0.25000  Biso   1.000  C
  C458     1.0000 0.95510  0.04490  0.25000  Biso   1.000  C
  C459     1.0000 0.91175  0.08825  0.25000  Biso   1.000  C
  C460     1.0000 0.88850  0.11150  0.25000  Biso   1.000  C
  O198     1.0000 0.83235  0.66470  0.25000  Biso   1.000  O
  C461     1.0000 0.68885  0.37770  0.25000  Biso   1.000  C
  C462     1.0000 0.71157  0.42313  0.25000  Biso   1.000  C
  C463     1.0000 0.75492  0.50983  0.25000  Biso   1.000  C
  C464     1.0000 0.77820  0.55640  0.25000  Biso   1.000  C
  C465     1.0000 0.97640  0.95280  0.25000  Biso   1.000  C
  C466     1.0000 0.95510  0.91020  0.25000  Biso   1.000  C
  C467     1.0000 0.91175  0.82349  0.25000  Biso   1.000  C
  C468     1.0000 0.88850  0.77700  0.25000  Biso   1.000  C
  O199     1.0000 0.33333  0.66667  0.25000  Biso   1.000  O
  O200     1.0000 0.66667  0.33333  0.75000  Biso   1.000  O
  C469     1.0000 0.35460  0.70920  0.75000  Biso   1.000  C
  H157     1.0000 0.36900  0.73800  0.75000  Biso   1.000  H
  C470     1.0000 0.29080  0.64540  0.75000  Biso   1.000  C
  H158     1.0000 0.26200  0.63100  0.75000  Biso   1.000  H
  C471     1.0000 0.35460  0.64540  0.75000  Biso   1.000  C
  H159     1.0000 0.36900  0.63100  0.75000  Biso   1.000  H
  C472     1.0000 0.64540  0.29080  0.25000  Biso   1.000  C
  H160     1.0000 0.63100  0.26200  0.25000  Biso   1.000  H
  C473     1.0000 0.70920  0.35460  0.25000  Biso   1.000  C
  H161     1.0000 0.73800  0.36900  0.25000  Biso   1.000  H
  C474     1.0000 0.64540  0.35460  0.25000  Biso   1.000  C
  H162     1.0000 0.63100  0.36900  0.25000  Biso   1.000  H
  C475     1.0000 0.98080  0.96160  0.75000  Biso   1.000  C
  H163     1.0000 0.96635  0.93270  0.75000  Biso   1.000  H
  C476     1.0000 0.03840  0.01920  0.75000  Biso   1.000  C
  H164     1.0000 0.06730  0.03365  0.75000  Biso   1.000  H
  C477     1.0000 0.98080  0.01920  0.75000  Biso   1.000  C
  H165     1.0000 0.96635  0.03365  0.75000  Biso   1.000  H
  C478     1.0000 0.01920  0.03840  0.25000  Biso   1.000  C
  H166     1.0000 0.03365  0.06730  0.25000  Biso   1.000  H
  C479     1.0000 0.96160  0.98080  0.25000  Biso   1.000  C
  H167     1.0000 0.93270  0.96635  0.25000  Biso   1.000  H
  C480     1.0000 0.01920  0.98080  0.25000  Biso   1.000  C
  H168     1.0000 0.03365  0.96635  0.25000  Biso   1.000  H
