data_SUNLET_clean
_audit_creation_date              2014-07-02
_audit_creation_method            'Materials Studio'
_symmetry_space_group_name_H-M    'P1'
_symmetry_Int_Tables_number       1
_symmetry_cell_setting            triclinic
loop_
_symmetry_equiv_pos_as_xyz
  x,y,z
_cell_length_a                    27.0964
_cell_length_b                    30.4901
_cell_length_c                    30.4901
_cell_angle_alpha                 78.6124
_cell_angle_beta                  63.6184
_cell_angle_gamma                 63.6184
loop_
_atom_site_label
_atom_site_type_symbol
_atom_site_fract_x
_atom_site_fract_y
_atom_site_fract_z
_atom_site_U_iso_or_equiv
_atom_site_adp_type
_atom_site_occupancy
Cu1    Cu    0.97506   0.03390   0.03390   0.01267  Uiso   1.00
Cu2    Cu    0.54286   0.46610   0.46609   0.01267  Uiso   1.00
Cu3    Cu    0.45714   0.53390   0.53391   0.01267  Uiso   1.00
Cu4    Cu    0.02494   0.96610   0.96610   0.01267  Uiso   1.00
Cu5    Cu    0.46061   0.75000   0.75000   0.01267  Uiso   1.00
Cu6    Cu    0.55786   0.75000   0.75000   0.01267  Uiso   1.00
Cu7    Cu    0.53939   0.25000   0.25000   0.01267  Uiso   1.00
Cu8    Cu    0.44214   0.25000   0.25000   0.01267  Uiso   1.00
H1     H     0.12370   0.03540   0.84960   0.01267  Uiso   1.00
H2     H     0.12670   0.21760   0.82300   0.01267  Uiso   1.00
H3     H     0.08400   0.11770   0.95810   0.01267  Uiso   1.00
H4     H     0.27230   0.05870   0.79910   0.01267  Uiso   1.00
H5     H     0.17370   0.08140   0.79300   0.01267  Uiso   1.00
H6     H     0.13750   0.16100   0.90160   0.01267  Uiso   1.00
H7     H     0.37430   0.15120   0.69300   0.01267  Uiso   1.00
H8     H     0.46190   0.99320   0.73460   0.01267  Uiso   1.00
H9     H     0.30780   0.98750   0.75890   0.01267  Uiso   1.00
H10    H     0.42210   0.06810   0.69290   0.01267  Uiso   1.00
H11    H     0.35240   0.90340   0.75800   0.01267  Uiso   1.00
H12    H     0.50730   0.90870   0.73790   0.01267  Uiso   1.00
H13    H     0.11560   0.29560   0.83800   0.01267  Uiso   1.00
H14    H     0.08220   0.30060   0.80440   0.01267  Uiso   1.00
H15    H     0.13840   0.36310   0.79130   0.01267  Uiso   1.00
H16    H     0.07030   0.37670   0.82850   0.01267  Uiso   1.00
H17    H     0.08950   0.37130   0.77190   0.01267  Uiso   1.00
H18    H     0.50870   0.46460   0.65040   0.01267  Uiso   1.00
H19    H     0.66730   0.28240   0.67700   0.01267  Uiso   1.00
H20    H     0.65980   0.38230   0.54190   0.01267  Uiso   1.00
H21    H     0.63010   0.44130   0.70090   0.01267  Uiso   1.00
H22    H     0.54810   0.41860   0.70700   0.01267  Uiso   1.00
H23    H     0.70010   0.33900   0.59840   0.01267  Uiso   1.00
H24    H     0.71850   0.34880   0.80700   0.01267  Uiso   1.00
H25    H     0.68970   0.50680   0.76540   0.01267  Uiso   1.00
H26    H     0.55420   0.51250   0.74110   0.01267  Uiso   1.00
H27    H     0.68310   0.43190   0.80710   0.01267  Uiso   1.00
H28    H     0.51380   0.59660   0.74200   0.01267  Uiso   1.00
H29    H     0.65390   0.59130   0.76210   0.01267  Uiso   1.00
H30    H     0.74920   0.20440   0.66200   0.01267  Uiso   1.00
H31    H     0.68720   0.19940   0.69560   0.01267  Uiso   1.00
H32    H     0.79280   0.13690   0.70870   0.01267  Uiso   1.00
H33    H     0.77550   0.12330   0.67150   0.01267  Uiso   1.00
H34    H     0.73270   0.12870   0.72810   0.01267  Uiso   1.00
H35    H     0.49130   0.34960   0.53540   0.01267  Uiso   1.00
H36    H     0.33270   0.32300   0.71760   0.01267  Uiso   1.00
H37    H     0.34020   0.45810   0.61770   0.01267  Uiso   1.00
H38    H     0.36990   0.29910   0.55870   0.01267  Uiso   1.00
H39    H     0.45190   0.29300   0.58140   0.01267  Uiso   1.00
H40    H     0.29990   0.40160   0.66100   0.01267  Uiso   1.00
H41    H     0.28150   0.19300   0.65120   0.01267  Uiso   1.00
H42    H     0.31030   0.23460   0.49320   0.01267  Uiso   1.00
H43    H     0.44580   0.25890   0.48750   0.01267  Uiso   1.00
H44    H     0.31690   0.19290   0.56810   0.01267  Uiso   1.00
H45    H     0.48620   0.25800   0.40340   0.01267  Uiso   1.00
H46    H     0.34610   0.23790   0.40870   0.01267  Uiso   1.00
H47    H     0.25080   0.33800   0.79560   0.01267  Uiso   1.00
H48    H     0.31280   0.30440   0.80060   0.01267  Uiso   1.00
H49    H     0.20720   0.29130   0.86310   0.01267  Uiso   1.00
H50    H     0.22450   0.32850   0.87670   0.01267  Uiso   1.00
H51    H     0.26730   0.27190   0.87130   0.01267  Uiso   1.00
H52    H     0.87630   0.15040   0.96460   0.01267  Uiso   1.00
H53    H     0.87330   0.17700   0.78240   0.01267  Uiso   1.00
H54    H     0.91600   0.04190   0.88230   0.01267  Uiso   1.00
H55    H     0.72770   0.20090   0.94130   0.01267  Uiso   1.00
H56    H     0.82630   0.20700   0.91860   0.01267  Uiso   1.00
H57    H     0.86250   0.09840   0.83900   0.01267  Uiso   1.00
H58    H     0.62570   0.30700   0.84880   0.01267  Uiso   1.00
H59    H     0.53810   0.26540   0.00680   0.01267  Uiso   1.00
H60    H     0.69220   0.24110   0.01250   0.01267  Uiso   1.00
H61    H     0.57790   0.30710   0.93190   0.01267  Uiso   1.00
H62    H     0.64760   0.24200   0.09660   0.01267  Uiso   1.00
H63    H     0.49270   0.26210   0.09130   0.01267  Uiso   1.00
H64    H     0.88440   0.16200   0.70440   0.01267  Uiso   1.00
H65    H     0.91780   0.19560   0.69940   0.01267  Uiso   1.00
H66    H     0.86160   0.20870   0.63690   0.01267  Uiso   1.00
H67    H     0.92970   0.17150   0.62330   0.01267  Uiso   1.00
H68    H     0.91050   0.22810   0.62870   0.01267  Uiso   1.00
H69    H     0.87630   0.96460   0.15040   0.01267  Uiso   1.00
H70    H     0.87330   0.78240   0.17700   0.01267  Uiso   1.00
H71    H     0.91600   0.88230   0.04190   0.01267  Uiso   1.00
H72    H     0.72770   0.94130   0.20090   0.01267  Uiso   1.00
H73    H     0.82630   0.91860   0.20700   0.01267  Uiso   1.00
H74    H     0.86250   0.83900   0.09840   0.01267  Uiso   1.00
H75    H     0.62570   0.84880   0.30700   0.01267  Uiso   1.00
H76    H     0.53810   0.00680   0.26540   0.01267  Uiso   1.00
H77    H     0.69220   0.01250   0.24110   0.01267  Uiso   1.00
H78    H     0.57790   0.93190   0.30710   0.01267  Uiso   1.00
H79    H     0.64760   0.09660   0.24200   0.01267  Uiso   1.00
H80    H     0.49270   0.09130   0.26210   0.01267  Uiso   1.00
H81    H     0.88440   0.70440   0.16200   0.01267  Uiso   1.00
H82    H     0.91780   0.69940   0.19560   0.01267  Uiso   1.00
H83    H     0.86160   0.63690   0.20870   0.01267  Uiso   1.00
H84    H     0.92970   0.62330   0.17150   0.01267  Uiso   1.00
H85    H     0.91050   0.62870   0.22810   0.01267  Uiso   1.00
H86    H     0.49130   0.53540   0.34960   0.01267  Uiso   1.00
H87    H     0.33270   0.71760   0.32300   0.01267  Uiso   1.00
H88    H     0.34020   0.61770   0.45810   0.01267  Uiso   1.00
H89    H     0.36990   0.55870   0.29910   0.01267  Uiso   1.00
H90    H     0.45190   0.58140   0.29300   0.01267  Uiso   1.00
H91    H     0.29990   0.66100   0.40160   0.01267  Uiso   1.00
H92    H     0.28150   0.65120   0.19300   0.01267  Uiso   1.00
H93    H     0.31030   0.49320   0.23460   0.01267  Uiso   1.00
H94    H     0.44580   0.48750   0.25890   0.01267  Uiso   1.00
H95    H     0.31690   0.56810   0.19290   0.01267  Uiso   1.00
H96    H     0.48620   0.40340   0.25800   0.01267  Uiso   1.00
H97    H     0.34610   0.40870   0.23790   0.01267  Uiso   1.00
H98    H     0.25080   0.79560   0.33800   0.01267  Uiso   1.00
H99    H     0.31280   0.80060   0.30440   0.01267  Uiso   1.00
H100   H     0.20720   0.86310   0.29130   0.01267  Uiso   1.00
H101   H     0.22450   0.87670   0.32850   0.01267  Uiso   1.00
H102   H     0.26730   0.87130   0.27190   0.01267  Uiso   1.00
H103   H     0.50870   0.65040   0.46460   0.01267  Uiso   1.00
H104   H     0.66730   0.67700   0.28240   0.01267  Uiso   1.00
H105   H     0.65980   0.54190   0.38230   0.01267  Uiso   1.00
H106   H     0.63010   0.70090   0.44130   0.01267  Uiso   1.00
H107   H     0.54810   0.70700   0.41860   0.01267  Uiso   1.00
H108   H     0.70010   0.59840   0.33900   0.01267  Uiso   1.00
H109   H     0.71850   0.80700   0.34880   0.01267  Uiso   1.00
H110   H     0.68970   0.76540   0.50680   0.01267  Uiso   1.00
H111   H     0.55420   0.74110   0.51250   0.01267  Uiso   1.00
H112   H     0.68310   0.80710   0.43190   0.01267  Uiso   1.00
H113   H     0.51380   0.74200   0.59660   0.01267  Uiso   1.00
H114   H     0.65390   0.76210   0.59130   0.01267  Uiso   1.00
H115   H     0.74920   0.66200   0.20440   0.01267  Uiso   1.00
H116   H     0.68720   0.69560   0.19940   0.01267  Uiso   1.00
H117   H     0.79280   0.70870   0.13690   0.01267  Uiso   1.00
H118   H     0.77550   0.67150   0.12330   0.01267  Uiso   1.00
H119   H     0.73270   0.72810   0.12870   0.01267  Uiso   1.00
H120   H     0.12370   0.84960   0.03540   0.01267  Uiso   1.00
H121   H     0.12670   0.82300   0.21760   0.01267  Uiso   1.00
H122   H     0.08400   0.95810   0.11770   0.01267  Uiso   1.00
H123   H     0.27230   0.79910   0.05870   0.01267  Uiso   1.00
H124   H     0.17370   0.79300   0.08140   0.01267  Uiso   1.00
H125   H     0.13750   0.90160   0.16100   0.01267  Uiso   1.00
H126   H     0.37430   0.69300   0.15120   0.01267  Uiso   1.00
H127   H     0.46190   0.73460   0.99320   0.01267  Uiso   1.00
H128   H     0.30780   0.75890   0.98750   0.01267  Uiso   1.00
H129   H     0.42210   0.69290   0.06810   0.01267  Uiso   1.00
H130   H     0.35240   0.75800   0.90340   0.01267  Uiso   1.00
H131   H     0.50730   0.73790   0.90870   0.01267  Uiso   1.00
H132   H     0.11560   0.83800   0.29560   0.01267  Uiso   1.00
H133   H     0.08220   0.80440   0.30060   0.01267  Uiso   1.00
H134   H     0.13840   0.79130   0.36310   0.01267  Uiso   1.00
H135   H     0.07030   0.82850   0.37670   0.01267  Uiso   1.00
H136   H     0.08950   0.77190   0.37130   0.01267  Uiso   1.00
C1     C     0.06637   0.04260   0.94616   0.01267  Uiso   1.00
C2     C     0.10029   0.07154   0.90976   0.01267  Uiso   1.00
C3     C     0.29078   0.15762   0.74260   0.01267  Uiso   1.00
C4     C     0.12650   0.06078   0.86032   0.01267  Uiso   1.00
C5     C     0.16807   0.20222   0.80318   0.01267  Uiso   1.00
C6     C     0.19884   0.23097   0.77109   0.01267  Uiso   1.00
C7     C     0.25932   0.12887   0.77519   0.01267  Uiso   1.00
C8     C     0.10343   0.10932   0.92476   0.01267  Uiso   1.00
C9     C     0.29223   0.07740   0.77636   0.01267  Uiso   1.00
C10    C     0.16316   0.12426   0.84170   0.01267  Uiso   1.00
C11    C     0.25877   0.20951   0.74133   0.01267  Uiso   1.00
C12    C     0.19725   0.15263   0.80591   0.01267  Uiso   1.00
C13    C     0.15700   0.08797   0.82661   0.01267  Uiso   1.00
C14    C     0.13519   0.13539   0.89083   0.01267  Uiso   1.00
C15    C     0.35127   0.05390   0.74610   0.01267  Uiso   1.00
C16    C     0.35236   0.13291   0.71353   0.01267  Uiso   1.00
C17    C     0.46321   0.84172   0.74946   0.01267  Uiso   1.00
C18    C     0.43920   0.97504   0.74030   0.01267  Uiso   1.00
C19    C     0.34856   0.97137   0.75403   0.01267  Uiso   1.00
C20    C     0.43495   0.89658   0.74934   0.01267  Uiso   1.00
C21    C     0.38088   0.99924   0.74664   0.01267  Uiso   1.00
C22    C     0.38123   0.08329   0.71417   0.01267  Uiso   1.00
C23    C     0.37467   0.92134   0.75436   0.01267  Uiso   1.00
C24    C     0.46682   0.92424   0.74190   0.01267  Uiso   1.00
C25    C     0.11415   0.30640   0.80590   0.01267  Uiso   1.00
C26    C     0.10206   0.35888   0.79880   0.01267  Uiso   1.00
C27    C     0.55513   0.45740   0.55384   0.01267  Uiso   1.00
C28    C     0.58159   0.42846   0.59024   0.01267  Uiso   1.00
C29    C     0.69100   0.34238   0.75740   0.01267  Uiso   1.00
C30    C     0.54760   0.43922   0.63968   0.01267  Uiso   1.00
C31    C     0.67347   0.29778   0.69682   0.01267  Uiso   1.00
C32    C     0.70090   0.26903   0.72891   0.01267  Uiso   1.00
C33    C     0.66338   0.37113   0.72481   0.01267  Uiso   1.00
C34    C     0.63751   0.39068   0.57524   0.01267  Uiso   1.00
C35    C     0.64599   0.42260   0.72364   0.01267  Uiso   1.00
C36    C     0.62912   0.37574   0.65830   0.01267  Uiso   1.00
C37    C     0.70961   0.29049   0.75867   0.01267  Uiso   1.00
C38    C     0.65579   0.34737   0.69409   0.01267  Uiso   1.00
C39    C     0.57158   0.41203   0.67339   0.01267  Uiso   1.00
C40    C     0.66141   0.36461   0.60917   0.01267  Uiso   1.00
C41    C     0.65127   0.44610   0.75390   0.01267  Uiso   1.00
C42    C     0.69880   0.36709   0.78647   0.01267  Uiso   1.00
C43    C     0.55439   0.65828   0.75054   0.01267  Uiso   1.00
C44    C     0.65454   0.52496   0.75970   0.01267  Uiso   1.00
C45    C     0.57396   0.52863   0.74597   0.01267  Uiso   1.00
C46    C     0.58087   0.60342   0.75066   0.01267  Uiso   1.00
C47    C     0.62676   0.50076   0.75336   0.01267  Uiso   1.00
C48    C     0.67869   0.41671   0.78583   0.01267  Uiso   1.00
C49    C     0.55037   0.57866   0.74564   0.01267  Uiso   1.00
C50    C     0.63296   0.57576   0.75810   0.01267  Uiso   1.00
C51    C     0.72645   0.19360   0.69410   0.01267  Uiso   1.00
C52    C     0.75974   0.14112   0.70120   0.01267  Uiso   1.00
C53    C     0.44487   0.44616   0.54260   0.01267  Uiso   1.00
C54    C     0.41841   0.40976   0.57154   0.01267  Uiso   1.00
C55    C     0.30900   0.24260   0.65762   0.01267  Uiso   1.00
C56    C     0.45240   0.36032   0.56078   0.01267  Uiso   1.00
C57    C     0.32653   0.30318   0.70222   0.01267  Uiso   1.00
C58    C     0.29910   0.27109   0.73097   0.01267  Uiso   1.00
C59    C     0.33662   0.27519   0.62887   0.01267  Uiso   1.00
C60    C     0.36249   0.42476   0.60932   0.01267  Uiso   1.00
C61    C     0.35401   0.27636   0.57740   0.01267  Uiso   1.00
C62    C     0.37088   0.34170   0.62426   0.01267  Uiso   1.00
C63    C     0.29039   0.24133   0.70951   0.01267  Uiso   1.00
C64    C     0.34421   0.30591   0.65263   0.01267  Uiso   1.00
C65    C     0.42842   0.32661   0.58797   0.01267  Uiso   1.00
C66    C     0.33859   0.39083   0.63539   0.01267  Uiso   1.00
C67    C     0.34873   0.24610   0.55390   0.01267  Uiso   1.00
C68    C     0.30120   0.21353   0.63291   0.01267  Uiso   1.00
C69    C     0.44561   0.24946   0.34172   0.01267  Uiso   1.00
C70    C     0.34546   0.24030   0.47504   0.01267  Uiso   1.00
C71    C     0.42604   0.25403   0.47137   0.01267  Uiso   1.00
C72    C     0.41913   0.24934   0.39658   0.01267  Uiso   1.00
C73    C     0.37324   0.24664   0.49924   0.01267  Uiso   1.00
C74    C     0.32131   0.21417   0.58329   0.01267  Uiso   1.00
C75    C     0.44963   0.25436   0.42134   0.01267  Uiso   1.00
C76    C     0.36704   0.24190   0.42424   0.01267  Uiso   1.00
C77    C     0.27355   0.30590   0.80640   0.01267  Uiso   1.00
C78    C     0.24026   0.29880   0.85888   0.01267  Uiso   1.00
C79    C     0.93363   0.05384   0.95740   0.01267  Uiso   1.00
C80    C     0.89971   0.09024   0.92846   0.01267  Uiso   1.00
C81    C     0.70922   0.25740   0.84238   0.01267  Uiso   1.00
C82    C     0.87350   0.13968   0.93922   0.01267  Uiso   1.00
C83    C     0.83193   0.19682   0.79778   0.01267  Uiso   1.00
C84    C     0.80116   0.22891   0.76903   0.01267  Uiso   1.00
C85    C     0.74068   0.22481   0.87113   0.01267  Uiso   1.00
C86    C     0.89657   0.07524   0.89068   0.01267  Uiso   1.00
C87    C     0.70777   0.22364   0.92260   0.01267  Uiso   1.00
C88    C     0.83684   0.15830   0.87574   0.01267  Uiso   1.00
C89    C     0.74123   0.25867   0.79049   0.01267  Uiso   1.00
C90    C     0.80275   0.19409   0.84737   0.01267  Uiso   1.00
C91    C     0.84300   0.17339   0.91203   0.01267  Uiso   1.00
C92    C     0.86481   0.10917   0.86461   0.01267  Uiso   1.00
C93    C     0.64873   0.25390   0.94610   0.01267  Uiso   1.00
C94    C     0.64764   0.28647   0.86709   0.01267  Uiso   1.00
C95    C     0.53679   0.25054   0.15828   0.01267  Uiso   1.00
C96    C     0.56080   0.25970   0.02496   0.01267  Uiso   1.00
C97    C     0.65144   0.24597   0.02863   0.01267  Uiso   1.00
C98    C     0.56505   0.25066   0.10342   0.01267  Uiso   1.00
C99    C     0.61912   0.25336   0.00076   0.01267  Uiso   1.00
C100   C     0.61877   0.28583   0.91671   0.01267  Uiso   1.00
C101   C     0.62533   0.24564   0.07866   0.01267  Uiso   1.00
C102   C     0.53318   0.25810   0.07576   0.01267  Uiso   1.00
C103   C     0.88585   0.19410   0.69360   0.01267  Uiso   1.00
C104   C     0.89794   0.20120   0.64112   0.01267  Uiso   1.00
C105   C     0.93363   0.95740   0.05384   0.01267  Uiso   1.00
C106   C     0.89971   0.92846   0.09024   0.01267  Uiso   1.00
C107   C     0.70922   0.84238   0.25740   0.01267  Uiso   1.00
C108   C     0.87350   0.93922   0.13968   0.01267  Uiso   1.00
C109   C     0.83193   0.79778   0.19682   0.01267  Uiso   1.00
C110   C     0.80116   0.76903   0.22891   0.01267  Uiso   1.00
C111   C     0.74068   0.87113   0.22481   0.01267  Uiso   1.00
C112   C     0.89657   0.89068   0.07524   0.01267  Uiso   1.00
C113   C     0.70777   0.92260   0.22364   0.01267  Uiso   1.00
C114   C     0.83684   0.87574   0.15830   0.01267  Uiso   1.00
C115   C     0.74123   0.79049   0.25867   0.01267  Uiso   1.00
C116   C     0.80275   0.84737   0.19409   0.01267  Uiso   1.00
C117   C     0.84300   0.91203   0.17339   0.01267  Uiso   1.00
C118   C     0.86481   0.86461   0.10917   0.01267  Uiso   1.00
C119   C     0.64873   0.94610   0.25390   0.01267  Uiso   1.00
C120   C     0.64764   0.86709   0.28647   0.01267  Uiso   1.00
C121   C     0.53679   0.15828   0.25054   0.01267  Uiso   1.00
C122   C     0.56080   0.02496   0.25970   0.01267  Uiso   1.00
C123   C     0.65144   0.02863   0.24597   0.01267  Uiso   1.00
C124   C     0.56505   0.10342   0.25066   0.01267  Uiso   1.00
C125   C     0.61912   0.00076   0.25336   0.01267  Uiso   1.00
C126   C     0.61877   0.91671   0.28583   0.01267  Uiso   1.00
C127   C     0.62533   0.07866   0.24564   0.01267  Uiso   1.00
C128   C     0.53318   0.07576   0.25810   0.01267  Uiso   1.00
C129   C     0.88585   0.69360   0.19410   0.01267  Uiso   1.00
C130   C     0.89794   0.64112   0.20120   0.01267  Uiso   1.00
C131   C     0.44487   0.54260   0.44616   0.01267  Uiso   1.00
C132   C     0.41841   0.57154   0.40976   0.01267  Uiso   1.00
C133   C     0.30900   0.65762   0.24260   0.01267  Uiso   1.00
C134   C     0.45240   0.56078   0.36032   0.01267  Uiso   1.00
C135   C     0.32653   0.70222   0.30318   0.01267  Uiso   1.00
C136   C     0.29910   0.73097   0.27109   0.01267  Uiso   1.00
C137   C     0.33662   0.62887   0.27519   0.01267  Uiso   1.00
C138   C     0.36249   0.60932   0.42476   0.01267  Uiso   1.00
C139   C     0.35401   0.57740   0.27636   0.01267  Uiso   1.00
C140   C     0.37088   0.62426   0.34170   0.01267  Uiso   1.00
C141   C     0.29039   0.70951   0.24133   0.01267  Uiso   1.00
C142   C     0.34421   0.65263   0.30591   0.01267  Uiso   1.00
C143   C     0.42842   0.58797   0.32661   0.01267  Uiso   1.00
C144   C     0.33859   0.63539   0.39083   0.01267  Uiso   1.00
C145   C     0.34873   0.55390   0.24610   0.01267  Uiso   1.00
C146   C     0.30120   0.63291   0.21353   0.01267  Uiso   1.00
C147   C     0.44561   0.34172   0.24946   0.01267  Uiso   1.00
C148   C     0.34546   0.47504   0.24030   0.01267  Uiso   1.00
C149   C     0.42604   0.47137   0.25403   0.01267  Uiso   1.00
C150   C     0.41913   0.39658   0.24934   0.01267  Uiso   1.00
C151   C     0.37324   0.49924   0.24664   0.01267  Uiso   1.00
C152   C     0.32131   0.58329   0.21417   0.01267  Uiso   1.00
C153   C     0.44963   0.42134   0.25436   0.01267  Uiso   1.00
C154   C     0.36704   0.42424   0.24190   0.01267  Uiso   1.00
C155   C     0.27355   0.80640   0.30590   0.01267  Uiso   1.00
C156   C     0.24026   0.85888   0.29880   0.01267  Uiso   1.00
C157   C     0.55513   0.55384   0.45740   0.01267  Uiso   1.00
C158   C     0.58159   0.59024   0.42846   0.01267  Uiso   1.00
C159   C     0.69100   0.75740   0.34238   0.01267  Uiso   1.00
C160   C     0.54760   0.63968   0.43922   0.01267  Uiso   1.00
C161   C     0.67347   0.69682   0.29778   0.01267  Uiso   1.00
C162   C     0.70090   0.72891   0.26903   0.01267  Uiso   1.00
C163   C     0.66338   0.72481   0.37113   0.01267  Uiso   1.00
C164   C     0.63751   0.57524   0.39068   0.01267  Uiso   1.00
C165   C     0.64599   0.72364   0.42260   0.01267  Uiso   1.00
C166   C     0.62912   0.65830   0.37574   0.01267  Uiso   1.00
C167   C     0.70961   0.75867   0.29049   0.01267  Uiso   1.00
C168   C     0.65579   0.69409   0.34737   0.01267  Uiso   1.00
C169   C     0.57158   0.67339   0.41203   0.01267  Uiso   1.00
C170   C     0.66141   0.60917   0.36461   0.01267  Uiso   1.00
C171   C     0.65127   0.75390   0.44610   0.01267  Uiso   1.00
C172   C     0.69880   0.78647   0.36709   0.01267  Uiso   1.00
C173   C     0.55439   0.75054   0.65828   0.01267  Uiso   1.00
C174   C     0.65454   0.75970   0.52496   0.01267  Uiso   1.00
C175   C     0.57396   0.74597   0.52863   0.01267  Uiso   1.00
C176   C     0.58087   0.75066   0.60342   0.01267  Uiso   1.00
C177   C     0.62676   0.75336   0.50076   0.01267  Uiso   1.00
C178   C     0.67869   0.78583   0.41671   0.01267  Uiso   1.00
C179   C     0.55037   0.74564   0.57866   0.01267  Uiso   1.00
C180   C     0.63296   0.75810   0.57576   0.01267  Uiso   1.00
C181   C     0.72645   0.69410   0.19360   0.01267  Uiso   1.00
C182   C     0.75974   0.70120   0.14112   0.01267  Uiso   1.00
C183   C     0.06637   0.94616   0.04260   0.01267  Uiso   1.00
C184   C     0.10029   0.90976   0.07154   0.01267  Uiso   1.00
C185   C     0.29078   0.74260   0.15762   0.01267  Uiso   1.00
C186   C     0.12650   0.86032   0.06078   0.01267  Uiso   1.00
C187   C     0.16807   0.80318   0.20222   0.01267  Uiso   1.00
C188   C     0.19884   0.77109   0.23097   0.01267  Uiso   1.00
C189   C     0.25932   0.77519   0.12887   0.01267  Uiso   1.00
C190   C     0.10343   0.92476   0.10932   0.01267  Uiso   1.00
C191   C     0.29223   0.77636   0.07740   0.01267  Uiso   1.00
C192   C     0.16316   0.84170   0.12426   0.01267  Uiso   1.00
C193   C     0.25877   0.74133   0.20951   0.01267  Uiso   1.00
C194   C     0.19725   0.80591   0.15263   0.01267  Uiso   1.00
C195   C     0.15700   0.82661   0.08797   0.01267  Uiso   1.00
C196   C     0.13519   0.89083   0.13539   0.01267  Uiso   1.00
C197   C     0.35127   0.74610   0.05390   0.01267  Uiso   1.00
C198   C     0.35236   0.71353   0.13291   0.01267  Uiso   1.00
C199   C     0.46321   0.74946   0.84172   0.01267  Uiso   1.00
C200   C     0.43920   0.74030   0.97504   0.01267  Uiso   1.00
C201   C     0.34856   0.75403   0.97137   0.01267  Uiso   1.00
C202   C     0.43495   0.74934   0.89658   0.01267  Uiso   1.00
C203   C     0.38088   0.74664   0.99924   0.01267  Uiso   1.00
C204   C     0.38123   0.71417   0.08329   0.01267  Uiso   1.00
C205   C     0.37467   0.75436   0.92134   0.01267  Uiso   1.00
C206   C     0.46682   0.74190   0.92424   0.01267  Uiso   1.00
C207   C     0.11415   0.80590   0.30640   0.01267  Uiso   1.00
C208   C     0.10206   0.79880   0.35888   0.01267  Uiso   1.00
O1     O     0.03327   0.06008   0.98796   0.01267  Uiso   1.00
O2     O     0.43294   0.82019   0.74997   0.01267  Uiso   1.00
O3     O     0.07403   0.00361   0.93005   0.01267  Uiso   1.00
O4     O     0.51502   0.82152   0.74990   0.01267  Uiso   1.00
O5     O     0.17119   0.28005   0.76755   0.01267  Uiso   1.00
O6     O     0.58131   0.43992   0.51204   0.01267  Uiso   1.00
O7     O     0.50310   0.67981   0.75003   0.01267  Uiso   1.00
O8     O     0.50769   0.49639   0.56995   0.01267  Uiso   1.00
O9     O     0.58644   0.67848   0.75010   0.01267  Uiso   1.00
O10    O     0.71879   0.21995   0.73245   0.01267  Uiso   1.00
O11    O     0.41869   0.48796   0.56008   0.01267  Uiso   1.00
O12    O     0.49690   0.24997   0.32019   0.01267  Uiso   1.00
O13    O     0.49231   0.43005   0.50361   0.01267  Uiso   1.00
O14    O     0.41356   0.24990   0.32152   0.01267  Uiso   1.00
O15    O     0.28121   0.26755   0.78005   0.01267  Uiso   1.00
O16    O     0.96673   0.01204   0.93992   0.01267  Uiso   1.00
O17    O     0.56706   0.25003   0.17981   0.01267  Uiso   1.00
O18    O     0.92597   0.06995   0.99639   0.01267  Uiso   1.00
O19    O     0.48498   0.25010   0.17848   0.01267  Uiso   1.00
O20    O     0.82881   0.23245   0.71995   0.01267  Uiso   1.00
O21    O     0.96673   0.93992   0.01204   0.01267  Uiso   1.00
O22    O     0.56706   0.17981   0.25003   0.01267  Uiso   1.00
O23    O     0.92597   0.99639   0.06995   0.01267  Uiso   1.00
O24    O     0.48498   0.17848   0.25010   0.01267  Uiso   1.00
O25    O     0.82881   0.71995   0.23245   0.01267  Uiso   1.00
O26    O     0.41869   0.56008   0.48796   0.01267  Uiso   1.00
O27    O     0.49690   0.32019   0.24997   0.01267  Uiso   1.00
O28    O     0.49231   0.50361   0.43005   0.01267  Uiso   1.00
O29    O     0.41356   0.32152   0.24990   0.01267  Uiso   1.00
O30    O     0.28121   0.78005   0.26755   0.01267  Uiso   1.00
O31    O     0.58131   0.51204   0.43992   0.01267  Uiso   1.00
O32    O     0.50310   0.75003   0.67981   0.01267  Uiso   1.00
O33    O     0.50769   0.56995   0.49639   0.01267  Uiso   1.00
O34    O     0.58644   0.75010   0.67848   0.01267  Uiso   1.00
O35    O     0.71879   0.73245   0.21995   0.01267  Uiso   1.00
O36    O     0.03327   0.98796   0.06008   0.01267  Uiso   1.00
O37    O     0.43294   0.74997   0.82019   0.01267  Uiso   1.00
O38    O     0.07403   0.93005   0.00361   0.01267  Uiso   1.00
O39    O     0.51502   0.74990   0.82152   0.01267  Uiso   1.00
O40    O     0.17119   0.76755   0.28005   0.01267  Uiso   1.00
Cu9    Cu    0.50895   0.96610   0.53391   0.01267  Uiso   1.00
Cu10   Cu    0.50896   0.53390   0.96610   0.01267  Uiso   1.00
Cu11   Cu    0.49105   0.03390   0.46609   0.01267  Uiso   1.00
Cu12   Cu    0.49104   0.46610   0.03390   0.01267  Uiso   1.00
Cu13   Cu    0.71061   0.25000   0.25000   0.01267  Uiso   1.00
Cu14   Cu    0.80786   0.25000   0.25000   0.01267  Uiso   1.00
Cu15   Cu    0.28939   0.75000   0.75000   0.01267  Uiso   1.00
Cu16   Cu    0.19214   0.75000   0.75000   0.01267  Uiso   1.00
H137   H     0.47330   0.15040   0.53540   0.01267  Uiso   1.00
H138   H     0.44970   0.17700   0.71760   0.01267  Uiso   1.00
H139   H     0.54210   0.04190   0.61770   0.01267  Uiso   1.00
H140   H     0.57140   0.20090   0.55870   0.01267  Uiso   1.00
H141   H     0.46670   0.20700   0.58140   0.01267  Uiso   1.00
H142   H     0.53910   0.09840   0.66100   0.01267  Uiso   1.00
H143   H     0.56730   0.30700   0.65120   0.01267  Uiso   1.00
H144   H     0.69650   0.26540   0.49320   0.01267  Uiso   1.00
H145   H     0.56670   0.24110   0.48750   0.01267  Uiso   1.00
H146   H     0.61500   0.30710   0.56810   0.01267  Uiso   1.00
H147   H     0.61040   0.24200   0.40340   0.01267  Uiso   1.00
H148   H     0.74520   0.26210   0.40870   0.01267  Uiso   1.00
H149   H     0.45360   0.16200   0.79560   0.01267  Uiso   1.00
H150   H     0.38660   0.19560   0.80060   0.01267  Uiso   1.00
H151   H     0.42970   0.20870   0.86310   0.01267  Uiso   1.00
H152   H     0.39880   0.17150   0.87670   0.01267  Uiso   1.00
H153   H     0.36140   0.22810   0.87130   0.01267  Uiso   1.00
H154   H     0.65910   0.34960   0.96460   0.01267  Uiso   1.00
H155   H     0.84430   0.32300   0.78240   0.01267  Uiso   1.00
H156   H     0.70170   0.45810   0.88230   0.01267  Uiso   1.00
H157   H     0.83100   0.29910   0.94130   0.01267  Uiso   1.00
H158   H     0.75510   0.29300   0.91860   0.01267  Uiso   1.00
H159   H     0.79850   0.40160   0.83900   0.01267  Uiso   1.00
H160   H     0.02550   0.19300   0.84880   0.01267  Uiso   1.00
H161   H     0.95510   0.23460   0.00680   0.01267  Uiso   1.00
H162   H     0.79530   0.25890   0.01250   0.01267  Uiso   1.00
H163   H     0.99020   0.19290   0.93190   0.01267  Uiso   1.00
H164   H     0.75580   0.25800   0.09660   0.01267  Uiso   1.00
H165   H     0.91600   0.23790   0.09130   0.01267  Uiso   1.00
H166   H     0.91120   0.33800   0.70440   0.01267  Uiso   1.00
H167   H     0.88280   0.30440   0.69940   0.01267  Uiso   1.00
H168   H     0.00150   0.29130   0.63690   0.01267  Uiso   1.00
H169   H     0.94700   0.32850   0.62330   0.01267  Uiso   1.00
H170   H     0.96080   0.27190   0.62870   0.01267  Uiso   1.00
H171   H     0.34090   0.03540   0.65040   0.01267  Uiso   1.00
H172   H     0.15570   0.21760   0.67700   0.01267  Uiso   1.00
H173   H     0.29830   0.11770   0.54190   0.01267  Uiso   1.00
H174   H     0.16900   0.05870   0.70090   0.01267  Uiso   1.00
H175   H     0.24490   0.08140   0.70700   0.01267  Uiso   1.00
H176   H     0.20150   0.16100   0.59840   0.01267  Uiso   1.00
H177   H     0.97450   0.15120   0.80700   0.01267  Uiso   1.00
H178   H     0.04490   0.99320   0.76540   0.01267  Uiso   1.00
H179   H     0.20470   0.98750   0.74110   0.01267  Uiso   1.00
H180   H     0.00980   0.06810   0.80710   0.01267  Uiso   1.00
H181   H     0.24420   0.90340   0.74200   0.01267  Uiso   1.00
H182   H     0.08400   0.90870   0.76210   0.01267  Uiso   1.00
H183   H     0.08880   0.29560   0.66200   0.01267  Uiso   1.00
H184   H     0.11720   0.30060   0.69560   0.01267  Uiso   1.00
H185   H     0.99850   0.36310   0.70870   0.01267  Uiso   1.00
H186   H     0.05300   0.37670   0.67150   0.01267  Uiso   1.00
H187   H     0.03920   0.37130   0.72810   0.01267  Uiso   1.00
H188   H     0.52670   0.46460   0.84960   0.01267  Uiso   1.00
H189   H     0.55030   0.28240   0.82300   0.01267  Uiso   1.00
H190   H     0.45790   0.38230   0.95810   0.01267  Uiso   1.00
H191   H     0.42860   0.44130   0.79910   0.01267  Uiso   1.00
H192   H     0.53330   0.41860   0.79300   0.01267  Uiso   1.00
H193   H     0.46090   0.33900   0.90160   0.01267  Uiso   1.00
H194   H     0.43270   0.34880   0.69300   0.01267  Uiso   1.00
H195   H     0.30350   0.50680   0.73460   0.01267  Uiso   1.00
H196   H     0.43330   0.51250   0.75890   0.01267  Uiso   1.00
H197   H     0.38500   0.43190   0.69290   0.01267  Uiso   1.00
H198   H     0.38960   0.59660   0.75800   0.01267  Uiso   1.00
H199   H     0.25480   0.59130   0.73790   0.01267  Uiso   1.00
H200   H     0.54640   0.20440   0.83800   0.01267  Uiso   1.00
H201   H     0.61340   0.19940   0.80440   0.01267  Uiso   1.00
H202   H     0.57030   0.13690   0.79130   0.01267  Uiso   1.00
H203   H     0.60120   0.12330   0.82850   0.01267  Uiso   1.00
H204   H     0.63860   0.12870   0.77190   0.01267  Uiso   1.00
H205   H     0.52670   0.84960   0.46460   0.01267  Uiso   1.00
H206   H     0.55030   0.82300   0.28240   0.01267  Uiso   1.00
H207   H     0.45790   0.95810   0.38230   0.01267  Uiso   1.00
H208   H     0.42860   0.79910   0.44130   0.01267  Uiso   1.00
H209   H     0.53330   0.79300   0.41860   0.01267  Uiso   1.00
H210   H     0.46090   0.90160   0.33900   0.01267  Uiso   1.00
H211   H     0.43270   0.69300   0.34880   0.01267  Uiso   1.00
H212   H     0.30350   0.73460   0.50680   0.01267  Uiso   1.00
H213   H     0.43330   0.75890   0.51250   0.01267  Uiso   1.00
H214   H     0.38500   0.69290   0.43190   0.01267  Uiso   1.00
H215   H     0.38960   0.75800   0.59660   0.01267  Uiso   1.00
H216   H     0.25480   0.73790   0.59130   0.01267  Uiso   1.00
H217   H     0.54640   0.83800   0.20440   0.01267  Uiso   1.00
H218   H     0.61340   0.80440   0.19940   0.01267  Uiso   1.00
H219   H     0.57030   0.79130   0.13690   0.01267  Uiso   1.00
H220   H     0.60120   0.82850   0.12330   0.01267  Uiso   1.00
H221   H     0.63860   0.77190   0.12870   0.01267  Uiso   1.00
H222   H     0.34090   0.65040   0.03540   0.01267  Uiso   1.00
H223   H     0.15570   0.67700   0.21760   0.01267  Uiso   1.00
H224   H     0.29830   0.54190   0.11770   0.01267  Uiso   1.00
H225   H     0.16900   0.70090   0.05870   0.01267  Uiso   1.00
H226   H     0.24490   0.70700   0.08140   0.01267  Uiso   1.00
H227   H     0.20150   0.59840   0.16100   0.01267  Uiso   1.00
H228   H     0.97450   0.80700   0.15120   0.01267  Uiso   1.00
H229   H     0.04490   0.76540   0.99320   0.01267  Uiso   1.00
H230   H     0.20470   0.74110   0.98750   0.01267  Uiso   1.00
H231   H     0.00980   0.80710   0.06810   0.01267  Uiso   1.00
H232   H     0.24420   0.74200   0.90340   0.01267  Uiso   1.00
H233   H     0.08400   0.76210   0.90870   0.01267  Uiso   1.00
H234   H     0.08880   0.66200   0.29560   0.01267  Uiso   1.00
H235   H     0.11720   0.69560   0.30060   0.01267  Uiso   1.00
H236   H     0.99850   0.70870   0.36310   0.01267  Uiso   1.00
H237   H     0.05300   0.67150   0.37670   0.01267  Uiso   1.00
H238   H     0.03920   0.72810   0.37130   0.01267  Uiso   1.00
H239   H     0.65910   0.96460   0.34960   0.01267  Uiso   1.00
H240   H     0.84430   0.78240   0.32300   0.01267  Uiso   1.00
H241   H     0.70170   0.88230   0.45810   0.01267  Uiso   1.00
H242   H     0.83100   0.94130   0.29910   0.01267  Uiso   1.00
H243   H     0.75510   0.91860   0.29300   0.01267  Uiso   1.00
H244   H     0.79850   0.83900   0.40160   0.01267  Uiso   1.00
H245   H     0.02550   0.84880   0.19300   0.01267  Uiso   1.00
H246   H     0.95510   0.00680   0.23460   0.01267  Uiso   1.00
H247   H     0.79530   0.01250   0.25890   0.01267  Uiso   1.00
H248   H     0.99020   0.93190   0.19290   0.01267  Uiso   1.00
H249   H     0.75580   0.09660   0.25800   0.01267  Uiso   1.00
H250   H     0.91600   0.09130   0.23790   0.01267  Uiso   1.00
H251   H     0.91120   0.70440   0.33800   0.01267  Uiso   1.00
H252   H     0.88280   0.69940   0.30440   0.01267  Uiso   1.00
H253   H     0.00150   0.63690   0.29130   0.01267  Uiso   1.00
H254   H     0.94700   0.62330   0.32850   0.01267  Uiso   1.00
H255   H     0.96080   0.62870   0.27190   0.01267  Uiso   1.00
H256   H     0.47330   0.53540   0.15040   0.01267  Uiso   1.00
H257   H     0.44970   0.71760   0.17700   0.01267  Uiso   1.00
H258   H     0.54210   0.61770   0.04190   0.01267  Uiso   1.00
H259   H     0.57140   0.55870   0.20090   0.01267  Uiso   1.00
H260   H     0.46670   0.58140   0.20700   0.01267  Uiso   1.00
H261   H     0.53910   0.66100   0.09840   0.01267  Uiso   1.00
H262   H     0.56730   0.65120   0.30700   0.01267  Uiso   1.00
H263   H     0.69650   0.49320   0.26540   0.01267  Uiso   1.00
H264   H     0.56670   0.48750   0.24110   0.01267  Uiso   1.00
H265   H     0.61500   0.56810   0.30710   0.01267  Uiso   1.00
H266   H     0.61040   0.40340   0.24200   0.01267  Uiso   1.00
H267   H     0.74520   0.40870   0.26210   0.01267  Uiso   1.00
H268   H     0.45360   0.79560   0.16200   0.01267  Uiso   1.00
H269   H     0.38660   0.80060   0.19560   0.01267  Uiso   1.00
H270   H     0.42970   0.86310   0.20870   0.01267  Uiso   1.00
H271   H     0.39880   0.87670   0.17150   0.01267  Uiso   1.00
H272   H     0.36140   0.87130   0.22810   0.01267  Uiso   1.00
C209   C     0.51253   0.05384   0.54260   0.01267  Uiso   1.00
C210   C     0.51005   0.09024   0.57154   0.01267  Uiso   1.00
C211   C     0.53338   0.25740   0.65762   0.01267  Uiso   1.00
C212   C     0.48682   0.13968   0.56078   0.01267  Uiso   1.00
C213   C     0.47125   0.19682   0.70222   0.01267  Uiso   1.00
C214   C     0.46993   0.22891   0.73097   0.01267  Uiso   1.00
C215   C     0.53451   0.22481   0.62887   0.01267  Uiso   1.00
C216   C     0.52819   0.07524   0.60932   0.01267  Uiso   1.00
C217   C     0.56859   0.22364   0.57740   0.01267  Uiso   1.00
C218   C     0.50486   0.15830   0.62426   0.01267  Uiso   1.00
C219   C     0.50010   0.25867   0.70951   0.01267  Uiso   1.00
C220   C     0.50316   0.19409   0.65263   0.01267  Uiso   1.00
C221   C     0.48361   0.17339   0.58797   0.01267  Uiso   1.00
C222   C     0.52602   0.10917   0.63539   0.01267  Uiso   1.00
C223   C     0.59737   0.25390   0.55390   0.01267  Uiso   1.00
C224   C     0.56589   0.28647   0.63291   0.01267  Uiso   1.00
C225   C     0.71267   0.25054   0.34172   0.01267  Uiso   1.00
C226   C     0.67950   0.25970   0.47504   0.01267  Uiso   1.00
C227   C     0.60259   0.24597   0.47137   0.01267  Uiso   1.00
C228   C     0.68429   0.25066   0.39658   0.01267  Uiso   1.00
C229   C     0.62752   0.25336   0.49924   0.01267  Uiso   1.00
C230   C     0.59540   0.28583   0.58329   0.01267  Uiso   1.00
C231   C     0.62903   0.24564   0.42134   0.01267  Uiso   1.00
C232   C     0.70872   0.25810   0.42424   0.01267  Uiso   1.00
C233   C     0.42005   0.19410   0.80640   0.01267  Uiso   1.00
C234   C     0.40086   0.20120   0.85888   0.01267  Uiso   1.00
C235   C     0.60897   0.44616   0.95740   0.01267  Uiso   1.00
C236   C     0.67183   0.40976   0.92846   0.01267  Uiso   1.00
C237   C     0.94840   0.24260   0.84238   0.01267  Uiso   1.00
C238   C     0.68728   0.36032   0.93922   0.01267  Uiso   1.00
C239   C     0.87029   0.30318   0.79778   0.01267  Uiso   1.00
C240   C     0.92981   0.27109   0.76903   0.01267  Uiso   1.00
C241   C     0.88819   0.27519   0.87113   0.01267  Uiso   1.00
C242   C     0.71275   0.42476   0.89068   0.01267  Uiso   1.00
C243   C     0.86963   0.27636   0.92260   0.01267  Uiso   1.00
C244   C     0.78742   0.34170   0.87574   0.01267  Uiso   1.00
C245   C     0.96828   0.24133   0.79049   0.01267  Uiso   1.00
C246   C     0.84988   0.30591   0.84737   0.01267  Uiso   1.00
C247   C     0.74497   0.32661   0.91203   0.01267  Uiso   1.00
C248   C     0.77058   0.39083   0.86461   0.01267  Uiso   1.00
C249   C     0.90517   0.24610   0.94610   0.01267  Uiso   1.00
C250   C     0.98527   0.21353   0.86709   0.01267  Uiso   1.00
C251   C     0.80493   0.24946   0.15828   0.01267  Uiso   1.00
C252   C     0.91424   0.24030   0.02496   0.01267  Uiso   1.00
C253   C     0.81993   0.25403   0.02863   0.01267  Uiso   1.00
C254   C     0.83153   0.24934   0.10342   0.01267  Uiso   1.00
C255   C     0.88012   0.24664   0.00076   0.01267  Uiso   1.00
C256   C     0.96452   0.21417   0.91671   0.01267  Uiso   1.00
C257   C     0.79601   0.25436   0.07866   0.01267  Uiso   1.00
C258   C     0.89106   0.24190   0.07576   0.01267  Uiso   1.00
C259   C     0.92055   0.30590   0.69360   0.01267  Uiso   1.00
C260   C     0.96094   0.29880   0.64112   0.01267  Uiso   1.00
C261   C     0.39103   0.04260   0.55384   0.01267  Uiso   1.00
C262   C     0.32817   0.07154   0.59024   0.01267  Uiso   1.00
C263   C     0.05160   0.15762   0.75740   0.01267  Uiso   1.00
C264   C     0.31272   0.06078   0.63968   0.01267  Uiso   1.00
C265   C     0.12971   0.20222   0.69682   0.01267  Uiso   1.00
C266   C     0.07019   0.23097   0.72891   0.01267  Uiso   1.00
C267   C     0.11181   0.12887   0.72481   0.01267  Uiso   1.00
C268   C     0.28725   0.10932   0.57524   0.01267  Uiso   1.00
C269   C     0.13037   0.07740   0.72364   0.01267  Uiso   1.00
C270   C     0.21258   0.12426   0.65830   0.01267  Uiso   1.00
C271   C     0.03172   0.20951   0.75867   0.01267  Uiso   1.00
C272   C     0.15012   0.15263   0.69409   0.01267  Uiso   1.00
C273   C     0.25503   0.08797   0.67339   0.01267  Uiso   1.00
C274   C     0.22942   0.13539   0.60917   0.01267  Uiso   1.00
C275   C     0.09483   0.05390   0.75390   0.01267  Uiso   1.00
C276   C     0.01473   0.13291   0.78647   0.01267  Uiso   1.00
C277   C     0.19507   0.84172   0.75054   0.01267  Uiso   1.00
C278   C     0.08576   0.97504   0.75970   0.01267  Uiso   1.00
C279   C     0.18007   0.97137   0.74597   0.01267  Uiso   1.00
C280   C     0.16847   0.89658   0.75066   0.01267  Uiso   1.00
C281   C     0.11988   0.99924   0.75336   0.01267  Uiso   1.00
C282   C     0.03548   0.08329   0.78583   0.01267  Uiso   1.00
C283   C     0.20399   0.92134   0.74564   0.01267  Uiso   1.00
C284   C     0.10894   0.92424   0.75810   0.01267  Uiso   1.00
C285   C     0.07945   0.30640   0.69410   0.01267  Uiso   1.00
C286   C     0.03906   0.35888   0.70120   0.01267  Uiso   1.00
C287   C     0.48747   0.45740   0.94616   0.01267  Uiso   1.00
C288   C     0.48995   0.42846   0.90976   0.01267  Uiso   1.00
C289   C     0.46662   0.34238   0.74260   0.01267  Uiso   1.00
C290   C     0.51318   0.43922   0.86032   0.01267  Uiso   1.00
C291   C     0.52875   0.29778   0.80318   0.01267  Uiso   1.00
C292   C     0.53007   0.26903   0.77109   0.01267  Uiso   1.00
C293   C     0.46549   0.37113   0.77519   0.01267  Uiso   1.00
C294   C     0.47181   0.39068   0.92476   0.01267  Uiso   1.00
C295   C     0.43141   0.42260   0.77636   0.01267  Uiso   1.00
C296   C     0.49514   0.37574   0.84170   0.01267  Uiso   1.00
C297   C     0.49990   0.29049   0.74133   0.01267  Uiso   1.00
C298   C     0.49684   0.34737   0.80591   0.01267  Uiso   1.00
C299   C     0.51639   0.41203   0.82661   0.01267  Uiso   1.00
C300   C     0.47398   0.36461   0.89083   0.01267  Uiso   1.00
C301   C     0.40263   0.44610   0.74610   0.01267  Uiso   1.00
C302   C     0.43411   0.36709   0.71353   0.01267  Uiso   1.00
C303   C     0.28733   0.65828   0.74946   0.01267  Uiso   1.00
C304   C     0.32050   0.52496   0.74030   0.01267  Uiso   1.00
C305   C     0.39741   0.52863   0.75403   0.01267  Uiso   1.00
C306   C     0.31571   0.60342   0.74934   0.01267  Uiso   1.00
C307   C     0.37248   0.50076   0.74664   0.01267  Uiso   1.00
C308   C     0.40460   0.41671   0.71417   0.01267  Uiso   1.00
C309   C     0.37097   0.57866   0.75436   0.01267  Uiso   1.00
C310   C     0.29128   0.57576   0.74190   0.01267  Uiso   1.00
C311   C     0.57995   0.19360   0.80590   0.01267  Uiso   1.00
C312   C     0.59914   0.14112   0.79880   0.01267  Uiso   1.00
C313   C     0.48747   0.94616   0.45740   0.01267  Uiso   1.00
C314   C     0.48995   0.90976   0.42846   0.01267  Uiso   1.00
C315   C     0.46662   0.74260   0.34238   0.01267  Uiso   1.00
C316   C     0.51318   0.86032   0.43922   0.01267  Uiso   1.00
C317   C     0.52875   0.80318   0.29778   0.01267  Uiso   1.00
C318   C     0.53007   0.77109   0.26903   0.01267  Uiso   1.00
C319   C     0.46549   0.77519   0.37113   0.01267  Uiso   1.00
C320   C     0.47181   0.92476   0.39068   0.01267  Uiso   1.00
C321   C     0.43141   0.77636   0.42260   0.01267  Uiso   1.00
C322   C     0.49514   0.84170   0.37574   0.01267  Uiso   1.00
C323   C     0.49990   0.74133   0.29049   0.01267  Uiso   1.00
C324   C     0.49684   0.80591   0.34737   0.01267  Uiso   1.00
C325   C     0.51639   0.82661   0.41203   0.01267  Uiso   1.00
C326   C     0.47398   0.89083   0.36461   0.01267  Uiso   1.00
C327   C     0.40263   0.74610   0.44610   0.01267  Uiso   1.00
C328   C     0.43411   0.71353   0.36709   0.01267  Uiso   1.00
C329   C     0.28733   0.74946   0.65828   0.01267  Uiso   1.00
C330   C     0.32050   0.74030   0.52496   0.01267  Uiso   1.00
C331   C     0.39741   0.75403   0.52863   0.01267  Uiso   1.00
C332   C     0.31571   0.74934   0.60342   0.01267  Uiso   1.00
C333   C     0.37248   0.74664   0.50076   0.01267  Uiso   1.00
C334   C     0.40460   0.71417   0.41671   0.01267  Uiso   1.00
C335   C     0.37097   0.75436   0.57866   0.01267  Uiso   1.00
C336   C     0.29128   0.74190   0.57576   0.01267  Uiso   1.00
C337   C     0.57995   0.80590   0.19360   0.01267  Uiso   1.00
C338   C     0.59914   0.79880   0.14112   0.01267  Uiso   1.00
C339   C     0.39103   0.55384   0.04260   0.01267  Uiso   1.00
C340   C     0.32817   0.59024   0.07154   0.01267  Uiso   1.00
C341   C     0.05160   0.75740   0.15762   0.01267  Uiso   1.00
C342   C     0.31272   0.63968   0.06078   0.01267  Uiso   1.00
C343   C     0.12971   0.69682   0.20222   0.01267  Uiso   1.00
C344   C     0.07019   0.72891   0.23097   0.01267  Uiso   1.00
C345   C     0.11181   0.72481   0.12887   0.01267  Uiso   1.00
C346   C     0.28725   0.57524   0.10932   0.01267  Uiso   1.00
C347   C     0.13037   0.72364   0.07740   0.01267  Uiso   1.00
C348   C     0.21258   0.65830   0.12426   0.01267  Uiso   1.00
C349   C     0.03172   0.75867   0.20951   0.01267  Uiso   1.00
C350   C     0.15012   0.69409   0.15263   0.01267  Uiso   1.00
C351   C     0.25503   0.67339   0.08797   0.01267  Uiso   1.00
C352   C     0.22942   0.60917   0.13539   0.01267  Uiso   1.00
C353   C     0.09483   0.75390   0.05390   0.01267  Uiso   1.00
C354   C     0.01473   0.78647   0.13291   0.01267  Uiso   1.00
C355   C     0.19507   0.75054   0.84172   0.01267  Uiso   1.00
C356   C     0.08576   0.75970   0.97504   0.01267  Uiso   1.00
C357   C     0.18007   0.74597   0.97137   0.01267  Uiso   1.00
C358   C     0.16847   0.75066   0.89658   0.01267  Uiso   1.00
C359   C     0.11988   0.75336   0.99924   0.01267  Uiso   1.00
C360   C     0.03548   0.78583   0.08329   0.01267  Uiso   1.00
C361   C     0.20399   0.74564   0.92134   0.01267  Uiso   1.00
C362   C     0.10894   0.75810   0.92424   0.01267  Uiso   1.00
C363   C     0.07945   0.69410   0.30640   0.01267  Uiso   1.00
C364   C     0.03906   0.70120   0.35888   0.01267  Uiso   1.00
C365   C     0.60897   0.95740   0.44616   0.01267  Uiso   1.00
C366   C     0.67183   0.92846   0.40976   0.01267  Uiso   1.00
C367   C     0.94840   0.84238   0.24260   0.01267  Uiso   1.00
C368   C     0.68728   0.93922   0.36032   0.01267  Uiso   1.00
C369   C     0.87029   0.79778   0.30318   0.01267  Uiso   1.00
C370   C     0.92981   0.76903   0.27109   0.01267  Uiso   1.00
C371   C     0.88819   0.87113   0.27519   0.01267  Uiso   1.00
C372   C     0.71275   0.89068   0.42476   0.01267  Uiso   1.00
C373   C     0.86963   0.92260   0.27636   0.01267  Uiso   1.00
C374   C     0.78742   0.87574   0.34170   0.01267  Uiso   1.00
C375   C     0.96828   0.79049   0.24133   0.01267  Uiso   1.00
C376   C     0.84988   0.84737   0.30591   0.01267  Uiso   1.00
C377   C     0.74497   0.91203   0.32661   0.01267  Uiso   1.00
C378   C     0.77058   0.86461   0.39083   0.01267  Uiso   1.00
C379   C     0.90517   0.94610   0.24610   0.01267  Uiso   1.00
C380   C     0.98527   0.86709   0.21353   0.01267  Uiso   1.00
C381   C     0.80493   0.15828   0.24946   0.01267  Uiso   1.00
C382   C     0.91424   0.02496   0.24030   0.01267  Uiso   1.00
C383   C     0.81993   0.02863   0.25403   0.01267  Uiso   1.00
C384   C     0.83153   0.10342   0.24934   0.01267  Uiso   1.00
C385   C     0.88012   0.00076   0.24664   0.01267  Uiso   1.00
C386   C     0.96452   0.91671   0.21417   0.01267  Uiso   1.00
C387   C     0.79601   0.07866   0.25436   0.01267  Uiso   1.00
C388   C     0.89106   0.07576   0.24190   0.01267  Uiso   1.00
C389   C     0.92055   0.69360   0.30590   0.01267  Uiso   1.00
C390   C     0.96094   0.64112   0.29880   0.01267  Uiso   1.00
C391   C     0.51253   0.54260   0.05384   0.01267  Uiso   1.00
C392   C     0.51005   0.57154   0.09024   0.01267  Uiso   1.00
C393   C     0.53338   0.65762   0.25740   0.01267  Uiso   1.00
C394   C     0.48682   0.56078   0.13968   0.01267  Uiso   1.00
C395   C     0.47125   0.70222   0.19682   0.01267  Uiso   1.00
C396   C     0.46993   0.73097   0.22891   0.01267  Uiso   1.00
C397   C     0.53451   0.62887   0.22481   0.01267  Uiso   1.00
C398   C     0.52819   0.60932   0.07524   0.01267  Uiso   1.00
C399   C     0.56859   0.57740   0.22364   0.01267  Uiso   1.00
C400   C     0.50486   0.62426   0.15830   0.01267  Uiso   1.00
C401   C     0.50010   0.70951   0.25867   0.01267  Uiso   1.00
C402   C     0.50316   0.65263   0.19409   0.01267  Uiso   1.00
C403   C     0.48361   0.58797   0.17339   0.01267  Uiso   1.00
C404   C     0.52602   0.63539   0.10917   0.01267  Uiso   1.00
C405   C     0.59737   0.55390   0.25390   0.01267  Uiso   1.00
C406   C     0.56589   0.63291   0.28647   0.01267  Uiso   1.00
C407   C     0.71267   0.34172   0.25054   0.01267  Uiso   1.00
C408   C     0.67950   0.47504   0.25970   0.01267  Uiso   1.00
C409   C     0.60259   0.47137   0.24597   0.01267  Uiso   1.00
C410   C     0.68429   0.39658   0.25066   0.01267  Uiso   1.00
C411   C     0.62752   0.49924   0.25336   0.01267  Uiso   1.00
C412   C     0.59540   0.58329   0.28583   0.01267  Uiso   1.00
C413   C     0.62903   0.42134   0.24564   0.01267  Uiso   1.00
C414   C     0.70872   0.42424   0.25810   0.01267  Uiso   1.00
C415   C     0.42005   0.80640   0.19410   0.01267  Uiso   1.00
C416   C     0.40086   0.85888   0.20120   0.01267  Uiso   1.00
O41    O     0.52123   0.01204   0.56008   0.01267  Uiso   1.00
O42    O     0.68291   0.25003   0.32019   0.01267  Uiso   1.00
O43    O     0.50408   0.06995   0.50361   0.01267  Uiso   1.00
O44    O     0.76492   0.25010   0.32152   0.01267  Uiso   1.00
O45    O     0.43874   0.23245   0.78005   0.01267  Uiso   1.00
O46    O     0.59335   0.48796   0.93992   0.01267  Uiso   1.00
O47    O     0.75313   0.24997   0.17981   0.01267  Uiso   1.00
O48    O     0.57764   0.43005   0.99639   0.01267  Uiso   1.00
O49    O     0.83654   0.24990   0.17848   0.01267  Uiso   1.00
O50    O     0.95124   0.26755   0.71995   0.01267  Uiso   1.00
O51    O     0.40665   0.06008   0.51204   0.01267  Uiso   1.00
O52    O     0.24687   0.82019   0.75003   0.01267  Uiso   1.00
O53    O     0.42236   0.00361   0.56995   0.01267  Uiso   1.00
O54    O     0.16346   0.82152   0.75010   0.01267  Uiso   1.00
O55    O     0.04876   0.28005   0.73245   0.01267  Uiso   1.00
O56    O     0.47877   0.43992   0.98796   0.01267  Uiso   1.00
O57    O     0.31709   0.67981   0.74997   0.01267  Uiso   1.00
O58    O     0.49592   0.49639   0.93005   0.01267  Uiso   1.00
O59    O     0.23508   0.67848   0.74990   0.01267  Uiso   1.00
O60    O     0.56126   0.21995   0.76755   0.01267  Uiso   1.00
O61    O     0.47877   0.98796   0.43992   0.01267  Uiso   1.00
O62    O     0.31709   0.74997   0.67981   0.01267  Uiso   1.00
O63    O     0.49592   0.93005   0.49639   0.01267  Uiso   1.00
O64    O     0.23508   0.74990   0.67848   0.01267  Uiso   1.00
O65    O     0.56126   0.76755   0.21995   0.01267  Uiso   1.00
O66    O     0.40665   0.51204   0.06008   0.01267  Uiso   1.00
O67    O     0.24687   0.75003   0.82019   0.01267  Uiso   1.00
O68    O     0.42236   0.56995   0.00361   0.01267  Uiso   1.00
O69    O     0.16346   0.75010   0.82152   0.01267  Uiso   1.00
O70    O     0.04876   0.73245   0.28005   0.01267  Uiso   1.00
O71    O     0.59335   0.93992   0.48796   0.01267  Uiso   1.00
O72    O     0.75313   0.17981   0.24997   0.01267  Uiso   1.00
O73    O     0.57764   0.99639   0.43005   0.01267  Uiso   1.00
O74    O     0.83654   0.17848   0.24990   0.01267  Uiso   1.00
O75    O     0.95124   0.71995   0.26755   0.01267  Uiso   1.00
O76    O     0.52123   0.56008   0.01204   0.01267  Uiso   1.00
O77    O     0.68291   0.32019   0.25003   0.01267  Uiso   1.00
O78    O     0.50408   0.50361   0.06995   0.01267  Uiso   1.00
O79    O     0.76492   0.32152   0.25010   0.01267  Uiso   1.00
O80    O     0.43874   0.78005   0.23245   0.01267  Uiso   1.00
