data_image0
_cell_length_a       26.63
_cell_length_b       35.928
_cell_length_c       13.001
_cell_angle_alpha    90
_cell_angle_beta     90
_cell_angle_gamma    90

_symmetry_space_group_name_H-M    "P 1"
_symmetry_int_tables_number       1

loop_
  _symmetry_equiv_pos_as_xyz
  'x, y, z'

loop_
  _atom_site_label
  _atom_site_occupancy
  _atom_site_fract_x
  _atom_site_fract_y
  _atom_site_fract_z
  _atom_site_thermal_displace_type
  _atom_site_B_iso_or_equiv
  _atom_site_type_symbol
  Zn1      1.0000 0.35469  0.11894  0.58537  Biso   1.000  Zn
  Zn2      1.0000 0.22689  0.06110  0.49499  Biso   1.000  Zn
  O1       1.0000 0.30114  0.09629  0.49685  Biso   1.000  O
  O2       1.0000 0.37826  0.14921  0.46058  Biso   1.000  O
  O3       1.0000 0.39705  0.15815  0.29710  Biso   1.000  O
  O4       1.0000 0.40217  0.13996  0.68827  Biso   1.000  O
  O5       1.0000 0.32530  0.08368  0.69962  Biso   1.000  O
  O6       1.0000 0.29174  0.07871  0.85503  Biso   1.000  O
  N1       1.0000 0.26304  0.07377  0.36042  Biso   1.000  N
  N2       1.0000 0.44053  0.15164  0.83678  Biso   1.000  N
  N3       1.0000 0.16909  0.02480  0.46108  Biso   1.000  N
  N4       1.0000 0.95347  0.91329  0.37346  Biso   1.000  N
  C1       1.0000 0.30010  0.09592  0.39810  Biso   1.000  C
  C2       1.0000 0.33173  0.11612  0.33050  Biso   1.000  C
  C3       1.0000 0.32413  0.11094  0.22520  Biso   1.000  C
  H1       1.0000 0.34450  0.12420  0.17780  Biso   1.000  H
  C4       1.0000 0.28759  0.08688  0.18810  Biso   1.000  C
  H2       1.0000 0.28340  0.08290  0.11640  Biso   1.000  H
  C5       1.0000 0.25756  0.06897  0.25910  Biso   1.000  C
  H3       1.0000 0.23210  0.05260  0.23510  Biso   1.000  H
  C6       1.0000 0.37204  0.14289  0.36640  Biso   1.000  C
  C7       1.0000 0.40286  0.13381  0.78470  Biso   1.000  C
  C8       1.0000 0.36831  0.11155  0.84220  Biso   1.000  C
  C9       1.0000 0.37529  0.10817  0.94750  Biso   1.000  C
  H4       1.0000 0.35180  0.09430  0.98680  Biso   1.000  H
  C10      1.0000 0.41587  0.12457  0.99660  Biso   1.000  C
  H5       1.0000 0.42180  0.12090  0.06790  Biso   1.000  H
  C11      1.0000 0.44731  0.14643  0.93770  Biso   1.000  C
  H6       1.0000 0.47500  0.15830  0.97020  Biso   1.000  H
  C12      1.0000 0.32525  0.09005  0.79580  Biso   1.000  C
  C13      1.0000 0.14435  0.02642  0.37100  Biso   1.000  C
  H7       1.0000 0.15620  0.04300  0.31940  Biso   1.000  H
  C14      1.0000 0.10254  0.00505  0.35070  Biso   1.000  C
  H8       1.0000 0.08670  0.00640  0.28530  Biso   1.000  H
  C15      1.0000 0.08351  0.98138  0.42630  Biso   1.000  C
  C16      1.0000 0.10924  0.97982  0.51920  Biso   1.000  C
  H9       1.0000 0.09770  0.96410  0.57290  Biso   1.000  H
  C17      1.0000 0.15181  0.00136  0.53290  Biso   1.000  C
  H10      1.0000 0.16950  0.99940  0.59610  Biso   1.000  H
  C18      1.0000 0.98422  0.92333  0.29670  Biso   1.000  C
  H11      1.0000 0.97700  0.91460  0.22940  Biso   1.000  H
  C19      1.0000 0.02584  0.94574  0.31020  Biso   1.000  C
  H12      1.0000 0.04630  0.95220  0.25310  Biso   1.000  H
  C20      1.0000 0.03752  0.95875  0.40800  Biso   1.000  C
  C21      1.0000 0.00512  0.94922  0.48810  Biso   1.000  C
  H13      1.0000 0.01120  0.95790  0.55590  Biso   1.000  H
  C22      1.0000 0.96389  0.92680  0.46710  Biso   1.000  C
  H14      1.0000 0.94190  0.92070  0.52210  Biso   1.000  H
  Zn3      1.0000 0.85469  0.11894  0.08537  Biso   1.000  Zn
  Zn4      1.0000 0.72689  0.06110  0.99499  Biso   1.000  Zn
  O7       1.0000 0.80114  0.09629  0.99685  Biso   1.000  O
  O8       1.0000 0.87826  0.14921  0.96058  Biso   1.000  O
  O9       1.0000 0.89705  0.15815  0.79710  Biso   1.000  O
  O10      1.0000 0.90217  0.13996  0.18827  Biso   1.000  O
  O11      1.0000 0.82530  0.08368  0.19962  Biso   1.000  O
  O12      1.0000 0.79174  0.07871  0.35503  Biso   1.000  O
  N5       1.0000 0.76304  0.07377  0.86042  Biso   1.000  N
  N6       1.0000 0.94053  0.15164  0.33678  Biso   1.000  N
  N7       1.0000 0.66909  0.02480  0.96108  Biso   1.000  N
  N8       1.0000 0.45347  0.91329  0.87346  Biso   1.000  N
  C23      1.0000 0.80010  0.09592  0.89810  Biso   1.000  C
  C24      1.0000 0.83173  0.11612  0.83050  Biso   1.000  C
  C25      1.0000 0.82413  0.11094  0.72520  Biso   1.000  C
  H15      1.0000 0.84450  0.12420  0.67780  Biso   1.000  H
  C26      1.0000 0.78759  0.08688  0.68810  Biso   1.000  C
  H16      1.0000 0.78340  0.08290  0.61640  Biso   1.000  H
  C27      1.0000 0.75756  0.06897  0.75910  Biso   1.000  C
  H17      1.0000 0.73210  0.05260  0.73510  Biso   1.000  H
  C28      1.0000 0.87204  0.14289  0.86640  Biso   1.000  C
  C29      1.0000 0.90286  0.13381  0.28470  Biso   1.000  C
  C30      1.0000 0.86831  0.11155  0.34220  Biso   1.000  C
  C31      1.0000 0.87529  0.10817  0.44750  Biso   1.000  C
  H18      1.0000 0.85180  0.09430  0.48680  Biso   1.000  H
  C32      1.0000 0.91587  0.12457  0.49660  Biso   1.000  C
  H19      1.0000 0.92180  0.12090  0.56790  Biso   1.000  H
  C33      1.0000 0.94731  0.14643  0.43770  Biso   1.000  C
  H20      1.0000 0.97500  0.15830  0.47020  Biso   1.000  H
  C34      1.0000 0.82525  0.09005  0.29580  Biso   1.000  C
  C35      1.0000 0.64435  0.02642  0.87100  Biso   1.000  C
  H21      1.0000 0.65620  0.04300  0.81940  Biso   1.000  H
  C36      1.0000 0.60254  0.00505  0.85070  Biso   1.000  C
  H22      1.0000 0.58670  0.00640  0.78530  Biso   1.000  H
  C37      1.0000 0.58351  0.98138  0.92630  Biso   1.000  C
  C38      1.0000 0.60924  0.97982  0.01920  Biso   1.000  C
  H23      1.0000 0.59770  0.96410  0.07290  Biso   1.000  H
  C39      1.0000 0.65181  0.00136  0.03290  Biso   1.000  C
  H24      1.0000 0.66950  0.99940  0.09610  Biso   1.000  H
  C40      1.0000 0.48422  0.92333  0.79670  Biso   1.000  C
  H25      1.0000 0.47700  0.91460  0.72940  Biso   1.000  H
  C41      1.0000 0.52584  0.94574  0.81020  Biso   1.000  C
  H26      1.0000 0.54630  0.95220  0.75310  Biso   1.000  H
  C42      1.0000 0.53752  0.95875  0.90800  Biso   1.000  C
  C43      1.0000 0.50512  0.94922  0.98810  Biso   1.000  C
  H27      1.0000 0.51120  0.95790  0.05590  Biso   1.000  H
  C44      1.0000 0.46389  0.92680  0.96710  Biso   1.000  C
  H28      1.0000 0.44190  0.92070  0.02210  Biso   1.000  H
  Zn5      1.0000 0.60469  0.13106  0.83537  Biso   1.000  Zn
  Zn6      1.0000 0.47689  0.18890  0.74499  Biso   1.000  Zn
  O13      1.0000 0.55114  0.15371  0.74685  Biso   1.000  O
  O14      1.0000 0.62826  0.10079  0.71058  Biso   1.000  O
  O15      1.0000 0.64705  0.09185  0.54710  Biso   1.000  O
  O16      1.0000 0.65217  0.11004  0.93827  Biso   1.000  O
  O17      1.0000 0.57530  0.16632  0.94962  Biso   1.000  O
  O18      1.0000 0.54174  0.17129  0.10503  Biso   1.000  O
  N9       1.0000 0.51304  0.17623  0.61042  Biso   1.000  N
  N10      1.0000 0.69053  0.09836  0.08678  Biso   1.000  N
  N11      1.0000 0.41909  0.22520  0.71108  Biso   1.000  N
  N12      1.0000 0.20347  0.33671  0.62346  Biso   1.000  N
  C45      1.0000 0.55010  0.15408  0.64810  Biso   1.000  C
  C46      1.0000 0.58173  0.13388  0.58050  Biso   1.000  C
  C47      1.0000 0.57413  0.13906  0.47520  Biso   1.000  C
  H29      1.0000 0.59450  0.12580  0.42780  Biso   1.000  H
  C48      1.0000 0.53759  0.16312  0.43810  Biso   1.000  C
  H30      1.0000 0.53340  0.16710  0.36640  Biso   1.000  H
  C49      1.0000 0.50756  0.18103  0.50910  Biso   1.000  C
  H31      1.0000 0.48210  0.19740  0.48510  Biso   1.000  H
  C50      1.0000 0.62204  0.10711  0.61640  Biso   1.000  C
  C51      1.0000 0.65286  0.11619  0.03470  Biso   1.000  C
  C52      1.0000 0.61831  0.13845  0.09220  Biso   1.000  C
  C53      1.0000 0.62529  0.14183  0.19750  Biso   1.000  C
  H32      1.0000 0.60180  0.15570  0.23680  Biso   1.000  H
  C54      1.0000 0.66587  0.12543  0.24660  Biso   1.000  C
  H33      1.0000 0.67180  0.12910  0.31790  Biso   1.000  H
  C55      1.0000 0.69731  0.10357  0.18770  Biso   1.000  C
  H34      1.0000 0.72500  0.09170  0.22020  Biso   1.000  H
  C56      1.0000 0.57525  0.15995  0.04580  Biso   1.000  C
  C57      1.0000 0.39435  0.22358  0.62100  Biso   1.000  C
  H35      1.0000 0.40620  0.20700  0.56940  Biso   1.000  H
  C58      1.0000 0.35254  0.24495  0.60070  Biso   1.000  C
  H36      1.0000 0.33670  0.24360  0.53530  Biso   1.000  H
  C59      1.0000 0.33351  0.26862  0.67630  Biso   1.000  C
  C60      1.0000 0.35924  0.27018  0.76920  Biso   1.000  C
  H37      1.0000 0.34770  0.28590  0.82290  Biso   1.000  H
  C61      1.0000 0.40181  0.24864  0.78290  Biso   1.000  C
  H38      1.0000 0.41950  0.25060  0.84610  Biso   1.000  H
  C62      1.0000 0.23422  0.32667  0.54670  Biso   1.000  C
  H39      1.0000 0.22700  0.33540  0.47940  Biso   1.000  H
  C63      1.0000 0.27584  0.30426  0.56020  Biso   1.000  C
  H40      1.0000 0.29630  0.29780  0.50310  Biso   1.000  H
  C64      1.0000 0.28752  0.29125  0.65800  Biso   1.000  C
  C65      1.0000 0.25512  0.30078  0.73810  Biso   1.000  C
  H41      1.0000 0.26120  0.29210  0.80590  Biso   1.000  H
  C66      1.0000 0.21389  0.32320  0.71710  Biso   1.000  C
  H42      1.0000 0.19190  0.32930  0.77210  Biso   1.000  H
  Zn7      1.0000 0.10469  0.13106  0.33537  Biso   1.000  Zn
  Zn8      1.0000 0.97689  0.18890  0.24499  Biso   1.000  Zn
  O19      1.0000 0.05114  0.15371  0.24685  Biso   1.000  O
  O20      1.0000 0.12826  0.10079  0.21058  Biso   1.000  O
  O21      1.0000 0.14705  0.09185  0.04710  Biso   1.000  O
  O22      1.0000 0.15217  0.11004  0.43827  Biso   1.000  O
  O23      1.0000 0.07530  0.16632  0.44962  Biso   1.000  O
  O24      1.0000 0.04174  0.17129  0.60503  Biso   1.000  O
  N13      1.0000 0.01304  0.17623  0.11042  Biso   1.000  N
  N14      1.0000 0.19053  0.09836  0.58678  Biso   1.000  N
  N15      1.0000 0.91909  0.22520  0.21108  Biso   1.000  N
  N16      1.0000 0.70347  0.33671  0.12346  Biso   1.000  N
  C67      1.0000 0.05010  0.15408  0.14810  Biso   1.000  C
  C68      1.0000 0.08173  0.13388  0.08050  Biso   1.000  C
  C69      1.0000 0.07413  0.13906  0.97520  Biso   1.000  C
  H43      1.0000 0.09450  0.12580  0.92780  Biso   1.000  H
  C70      1.0000 0.03759  0.16312  0.93810  Biso   1.000  C
  H44      1.0000 0.03340  0.16710  0.86640  Biso   1.000  H
  C71      1.0000 0.00756  0.18103  0.00910  Biso   1.000  C
  H45      1.0000 0.98210  0.19740  0.98510  Biso   1.000  H
  C72      1.0000 0.12204  0.10711  0.11640  Biso   1.000  C
  C73      1.0000 0.15286  0.11619  0.53470  Biso   1.000  C
  C74      1.0000 0.11831  0.13845  0.59220  Biso   1.000  C
  C75      1.0000 0.12529  0.14183  0.69750  Biso   1.000  C
  H46      1.0000 0.10180  0.15570  0.73680  Biso   1.000  H
  C76      1.0000 0.16587  0.12543  0.74660  Biso   1.000  C
  H47      1.0000 0.17180  0.12910  0.81790  Biso   1.000  H
  C77      1.0000 0.19731  0.10357  0.68770  Biso   1.000  C
  H48      1.0000 0.22500  0.09170  0.72020  Biso   1.000  H
  C78      1.0000 0.07525  0.15995  0.54580  Biso   1.000  C
  C79      1.0000 0.89435  0.22358  0.12100  Biso   1.000  C
  H49      1.0000 0.90620  0.20700  0.06940  Biso   1.000  H
  C80      1.0000 0.85254  0.24495  0.10070  Biso   1.000  C
  H50      1.0000 0.83670  0.24360  0.03530  Biso   1.000  H
  C81      1.0000 0.83351  0.26862  0.17630  Biso   1.000  C
  C82      1.0000 0.85924  0.27018  0.26920  Biso   1.000  C
  H51      1.0000 0.84770  0.28590  0.32290  Biso   1.000  H
  C83      1.0000 0.90181  0.24864  0.28290  Biso   1.000  C
  H52      1.0000 0.91950  0.25060  0.34610  Biso   1.000  H
  C84      1.0000 0.73422  0.32667  0.04670  Biso   1.000  C
  H53      1.0000 0.72700  0.33540  0.97940  Biso   1.000  H
  C85      1.0000 0.77584  0.30426  0.06020  Biso   1.000  C
  H54      1.0000 0.79630  0.29780  0.00310  Biso   1.000  H
  C86      1.0000 0.78752  0.29125  0.15800  Biso   1.000  C
  C87      1.0000 0.75512  0.30078  0.23810  Biso   1.000  C
  H55      1.0000 0.76120  0.29210  0.30590  Biso   1.000  H
  C88      1.0000 0.71389  0.32320  0.21710  Biso   1.000  C
  H56      1.0000 0.69190  0.32930  0.27210  Biso   1.000  H
  Zn9      1.0000 0.35469  0.61894  0.08537  Biso   1.000  Zn
  Zn10     1.0000 0.22689  0.56110  0.99499  Biso   1.000  Zn
  O25      1.0000 0.30114  0.59629  0.99685  Biso   1.000  O
  O26      1.0000 0.37826  0.64921  0.96058  Biso   1.000  O
  O27      1.0000 0.39705  0.65815  0.79710  Biso   1.000  O
  O28      1.0000 0.40217  0.63996  0.18827  Biso   1.000  O
  O29      1.0000 0.32530  0.58368  0.19962  Biso   1.000  O
  O30      1.0000 0.29174  0.57871  0.35503  Biso   1.000  O
  N17      1.0000 0.26304  0.57377  0.86042  Biso   1.000  N
  N18      1.0000 0.44053  0.65164  0.33678  Biso   1.000  N
  N19      1.0000 0.16909  0.52480  0.96108  Biso   1.000  N
  N20      1.0000 0.95347  0.41329  0.87346  Biso   1.000  N
  C89      1.0000 0.30010  0.59592  0.89810  Biso   1.000  C
  C90      1.0000 0.33173  0.61612  0.83050  Biso   1.000  C
  C91      1.0000 0.32413  0.61094  0.72520  Biso   1.000  C
  H57      1.0000 0.34450  0.62420  0.67780  Biso   1.000  H
  C92      1.0000 0.28759  0.58688  0.68810  Biso   1.000  C
  H58      1.0000 0.28340  0.58290  0.61640  Biso   1.000  H
  C93      1.0000 0.25756  0.56897  0.75910  Biso   1.000  C
  H59      1.0000 0.23210  0.55260  0.73510  Biso   1.000  H
  C94      1.0000 0.37204  0.64289  0.86640  Biso   1.000  C
  C95      1.0000 0.40286  0.63381  0.28470  Biso   1.000  C
  C96      1.0000 0.36831  0.61155  0.34220  Biso   1.000  C
  C97      1.0000 0.37529  0.60817  0.44750  Biso   1.000  C
  H60      1.0000 0.35180  0.59430  0.48680  Biso   1.000  H
  C98      1.0000 0.41587  0.62457  0.49660  Biso   1.000  C
  H61      1.0000 0.42180  0.62090  0.56790  Biso   1.000  H
  C99      1.0000 0.44731  0.64643  0.43770  Biso   1.000  C
  H62      1.0000 0.47500  0.65830  0.47020  Biso   1.000  H
  C100     1.0000 0.32525  0.59005  0.29580  Biso   1.000  C
  C101     1.0000 0.14435  0.52642  0.87100  Biso   1.000  C
  H63      1.0000 0.15620  0.54300  0.81940  Biso   1.000  H
  C102     1.0000 0.10254  0.50505  0.85070  Biso   1.000  C
  H64      1.0000 0.08670  0.50640  0.78530  Biso   1.000  H
  C103     1.0000 0.08351  0.48138  0.92630  Biso   1.000  C
  C104     1.0000 0.10924  0.47982  0.01920  Biso   1.000  C
  H65      1.0000 0.09770  0.46410  0.07290  Biso   1.000  H
  C105     1.0000 0.15181  0.50136  0.03290  Biso   1.000  C
  H66      1.0000 0.16950  0.49940  0.09610  Biso   1.000  H
  C106     1.0000 0.98422  0.42333  0.79670  Biso   1.000  C
  H67      1.0000 0.97700  0.41460  0.72940  Biso   1.000  H
  C107     1.0000 0.02584  0.44574  0.81020  Biso   1.000  C
  H68      1.0000 0.04630  0.45220  0.75310  Biso   1.000  H
  C108     1.0000 0.03752  0.45875  0.90800  Biso   1.000  C
  C109     1.0000 0.00512  0.44922  0.98810  Biso   1.000  C
  H69      1.0000 0.01120  0.45790  0.05590  Biso   1.000  H
  C110     1.0000 0.96389  0.42680  0.96710  Biso   1.000  C
  H70      1.0000 0.94190  0.42070  0.02210  Biso   1.000  H
  Zn11     1.0000 0.85469  0.61894  0.58537  Biso   1.000  Zn
  Zn12     1.0000 0.72689  0.56110  0.49499  Biso   1.000  Zn
  O31      1.0000 0.80114  0.59629  0.49685  Biso   1.000  O
  O32      1.0000 0.87826  0.64921  0.46058  Biso   1.000  O
  O33      1.0000 0.89705  0.65815  0.29710  Biso   1.000  O
  O34      1.0000 0.90217  0.63996  0.68827  Biso   1.000  O
  O35      1.0000 0.82530  0.58368  0.69962  Biso   1.000  O
  O36      1.0000 0.79174  0.57871  0.85503  Biso   1.000  O
  N21      1.0000 0.76304  0.57377  0.36042  Biso   1.000  N
  N22      1.0000 0.94053  0.65164  0.83678  Biso   1.000  N
  N23      1.0000 0.66909  0.52480  0.46108  Biso   1.000  N
  N24      1.0000 0.45347  0.41329  0.37346  Biso   1.000  N
  C111     1.0000 0.80010  0.59592  0.39810  Biso   1.000  C
  C112     1.0000 0.83173  0.61612  0.33050  Biso   1.000  C
  C113     1.0000 0.82413  0.61094  0.22520  Biso   1.000  C
  H71      1.0000 0.84450  0.62420  0.17780  Biso   1.000  H
  C114     1.0000 0.78759  0.58688  0.18810  Biso   1.000  C
  H72      1.0000 0.78340  0.58290  0.11640  Biso   1.000  H
  C115     1.0000 0.75756  0.56897  0.25910  Biso   1.000  C
  H73      1.0000 0.73210  0.55260  0.23510  Biso   1.000  H
  C116     1.0000 0.87204  0.64289  0.36640  Biso   1.000  C
  C117     1.0000 0.90286  0.63381  0.78470  Biso   1.000  C
  C118     1.0000 0.86831  0.61155  0.84220  Biso   1.000  C
  C119     1.0000 0.87529  0.60817  0.94750  Biso   1.000  C
  H74      1.0000 0.85180  0.59430  0.98680  Biso   1.000  H
  C120     1.0000 0.91587  0.62457  0.99660  Biso   1.000  C
  H75      1.0000 0.92180  0.62090  0.06790  Biso   1.000  H
  C121     1.0000 0.94731  0.64643  0.93770  Biso   1.000  C
  H76      1.0000 0.97500  0.65830  0.97020  Biso   1.000  H
  C122     1.0000 0.82525  0.59005  0.79580  Biso   1.000  C
  C123     1.0000 0.64435  0.52642  0.37100  Biso   1.000  C
  H77      1.0000 0.65620  0.54300  0.31940  Biso   1.000  H
  C124     1.0000 0.60254  0.50505  0.35070  Biso   1.000  C
  H78      1.0000 0.58670  0.50640  0.28530  Biso   1.000  H
  C125     1.0000 0.58351  0.48138  0.42630  Biso   1.000  C
  C126     1.0000 0.60924  0.47982  0.51920  Biso   1.000  C
  H79      1.0000 0.59770  0.46410  0.57290  Biso   1.000  H
  C127     1.0000 0.65181  0.50136  0.53290  Biso   1.000  C
  H80      1.0000 0.66950  0.49940  0.59610  Biso   1.000  H
  C128     1.0000 0.48422  0.42333  0.29670  Biso   1.000  C
  H81      1.0000 0.47700  0.41460  0.22940  Biso   1.000  H
  C129     1.0000 0.52584  0.44574  0.31020  Biso   1.000  C
  H82      1.0000 0.54630  0.45220  0.25310  Biso   1.000  H
  C130     1.0000 0.53752  0.45875  0.40800  Biso   1.000  C
  C131     1.0000 0.50512  0.44922  0.48810  Biso   1.000  C
  H83      1.0000 0.51120  0.45790  0.55590  Biso   1.000  H
  C132     1.0000 0.46389  0.42680  0.46710  Biso   1.000  C
  H84      1.0000 0.44190  0.42070  0.52210  Biso   1.000  H
  Zn13     1.0000 0.60469  0.63106  0.33537  Biso   1.000  Zn
  Zn14     1.0000 0.47689  0.68890  0.24499  Biso   1.000  Zn
  O37      1.0000 0.55114  0.65371  0.24685  Biso   1.000  O
  O38      1.0000 0.62826  0.60079  0.21058  Biso   1.000  O
  O39      1.0000 0.64705  0.59185  0.04710  Biso   1.000  O
  O40      1.0000 0.65217  0.61004  0.43827  Biso   1.000  O
  O41      1.0000 0.57530  0.66632  0.44962  Biso   1.000  O
  O42      1.0000 0.54174  0.67129  0.60503  Biso   1.000  O
  N25      1.0000 0.51304  0.67623  0.11042  Biso   1.000  N
  N26      1.0000 0.69053  0.59836  0.58678  Biso   1.000  N
  N27      1.0000 0.41909  0.72520  0.21108  Biso   1.000  N
  N28      1.0000 0.20347  0.83671  0.12346  Biso   1.000  N
  C133     1.0000 0.55010  0.65408  0.14810  Biso   1.000  C
  C134     1.0000 0.58173  0.63388  0.08050  Biso   1.000  C
  C135     1.0000 0.57413  0.63906  0.97520  Biso   1.000  C
  H85      1.0000 0.59450  0.62580  0.92780  Biso   1.000  H
  C136     1.0000 0.53759  0.66312  0.93810  Biso   1.000  C
  H86      1.0000 0.53340  0.66710  0.86640  Biso   1.000  H
  C137     1.0000 0.50756  0.68103  0.00910  Biso   1.000  C
  H87      1.0000 0.48210  0.69740  0.98510  Biso   1.000  H
  C138     1.0000 0.62204  0.60711  0.11640  Biso   1.000  C
  C139     1.0000 0.65286  0.61619  0.53470  Biso   1.000  C
  C140     1.0000 0.61831  0.63845  0.59220  Biso   1.000  C
  C141     1.0000 0.62529  0.64183  0.69750  Biso   1.000  C
  H88      1.0000 0.60180  0.65570  0.73680  Biso   1.000  H
  C142     1.0000 0.66587  0.62543  0.74660  Biso   1.000  C
  H89      1.0000 0.67180  0.62910  0.81790  Biso   1.000  H
  C143     1.0000 0.69731  0.60357  0.68770  Biso   1.000  C
  H90      1.0000 0.72500  0.59170  0.72020  Biso   1.000  H
  C144     1.0000 0.57525  0.65995  0.54580  Biso   1.000  C
  C145     1.0000 0.39435  0.72358  0.12100  Biso   1.000  C
  H91      1.0000 0.40620  0.70700  0.06940  Biso   1.000  H
  C146     1.0000 0.35254  0.74495  0.10070  Biso   1.000  C
  H92      1.0000 0.33670  0.74360  0.03530  Biso   1.000  H
  C147     1.0000 0.33351  0.76862  0.17630  Biso   1.000  C
  C148     1.0000 0.35924  0.77018  0.26920  Biso   1.000  C
  H93      1.0000 0.34770  0.78590  0.32290  Biso   1.000  H
  C149     1.0000 0.40181  0.74864  0.28290  Biso   1.000  C
  H94      1.0000 0.41950  0.75060  0.34610  Biso   1.000  H
  C150     1.0000 0.23422  0.82667  0.04670  Biso   1.000  C
  H95      1.0000 0.22700  0.83540  0.97940  Biso   1.000  H
  C151     1.0000 0.27584  0.80426  0.06020  Biso   1.000  C
  H96      1.0000 0.29630  0.79780  0.00310  Biso   1.000  H
  C152     1.0000 0.28752  0.79125  0.15800  Biso   1.000  C
  C153     1.0000 0.25512  0.80078  0.23810  Biso   1.000  C
  H97      1.0000 0.26120  0.79210  0.30590  Biso   1.000  H
  C154     1.0000 0.21389  0.82320  0.21710  Biso   1.000  C
  H98      1.0000 0.19190  0.82930  0.27210  Biso   1.000  H
  Zn15     1.0000 0.10469  0.63106  0.83537  Biso   1.000  Zn
  Zn16     1.0000 0.97689  0.68890  0.74499  Biso   1.000  Zn
  O43      1.0000 0.05114  0.65371  0.74685  Biso   1.000  O
  O44      1.0000 0.12826  0.60079  0.71058  Biso   1.000  O
  O45      1.0000 0.14705  0.59185  0.54710  Biso   1.000  O
  O46      1.0000 0.15217  0.61004  0.93827  Biso   1.000  O
  O47      1.0000 0.07530  0.66632  0.94962  Biso   1.000  O
  O48      1.0000 0.04174  0.67129  0.10503  Biso   1.000  O
  N29      1.0000 0.01304  0.67623  0.61042  Biso   1.000  N
  N30      1.0000 0.19053  0.59836  0.08678  Biso   1.000  N
  N31      1.0000 0.91909  0.72520  0.71108  Biso   1.000  N
  N32      1.0000 0.70347  0.83671  0.62346  Biso   1.000  N
  C155     1.0000 0.05010  0.65408  0.64810  Biso   1.000  C
  C156     1.0000 0.08173  0.63388  0.58050  Biso   1.000  C
  C157     1.0000 0.07413  0.63906  0.47520  Biso   1.000  C
  H99      1.0000 0.09450  0.62580  0.42780  Biso   1.000  H
  C158     1.0000 0.03759  0.66312  0.43810  Biso   1.000  C
  H100     1.0000 0.03340  0.66710  0.36640  Biso   1.000  H
  C159     1.0000 0.00756  0.68103  0.50910  Biso   1.000  C
  H101     1.0000 0.98210  0.69740  0.48510  Biso   1.000  H
  C160     1.0000 0.12204  0.60711  0.61640  Biso   1.000  C
  C161     1.0000 0.15286  0.61619  0.03470  Biso   1.000  C
  C162     1.0000 0.11831  0.63845  0.09220  Biso   1.000  C
  C163     1.0000 0.12529  0.64183  0.19750  Biso   1.000  C
  H102     1.0000 0.10180  0.65570  0.23680  Biso   1.000  H
  C164     1.0000 0.16587  0.62543  0.24660  Biso   1.000  C
  H103     1.0000 0.17180  0.62910  0.31790  Biso   1.000  H
  C165     1.0000 0.19731  0.60357  0.18770  Biso   1.000  C
  H104     1.0000 0.22500  0.59170  0.22020  Biso   1.000  H
  C166     1.0000 0.07525  0.65995  0.04580  Biso   1.000  C
  C167     1.0000 0.89435  0.72358  0.62100  Biso   1.000  C
  H105     1.0000 0.90620  0.70700  0.56940  Biso   1.000  H
  C168     1.0000 0.85254  0.74495  0.60070  Biso   1.000  C
  H106     1.0000 0.83670  0.74360  0.53530  Biso   1.000  H
  C169     1.0000 0.83351  0.76862  0.67630  Biso   1.000  C
  C170     1.0000 0.85924  0.77018  0.76920  Biso   1.000  C
  H107     1.0000 0.84770  0.78590  0.82290  Biso   1.000  H
  C171     1.0000 0.90181  0.74864  0.78290  Biso   1.000  C
  H108     1.0000 0.91950  0.75060  0.84610  Biso   1.000  H
  C172     1.0000 0.73422  0.82667  0.54670  Biso   1.000  C
  H109     1.0000 0.72700  0.83540  0.47940  Biso   1.000  H
  C173     1.0000 0.77584  0.80426  0.56020  Biso   1.000  C
  H110     1.0000 0.79630  0.79780  0.50310  Biso   1.000  H
  C174     1.0000 0.78752  0.79125  0.65800  Biso   1.000  C
  C175     1.0000 0.75512  0.80078  0.73810  Biso   1.000  C
  H111     1.0000 0.76120  0.79210  0.80590  Biso   1.000  H
  C176     1.0000 0.71389  0.82320  0.71710  Biso   1.000  C
  H112     1.0000 0.69190  0.82930  0.77210  Biso   1.000  H
  Zn17     1.0000 0.64531  0.88106  0.58537  Biso   1.000  Zn
  Zn18     1.0000 0.77311  0.93890  0.49499  Biso   1.000  Zn
  O49      1.0000 0.69886  0.90371  0.49685  Biso   1.000  O
  O50      1.0000 0.62174  0.85079  0.46058  Biso   1.000  O
  O51      1.0000 0.60295  0.84185  0.29710  Biso   1.000  O
  O52      1.0000 0.59783  0.86004  0.68827  Biso   1.000  O
  O53      1.0000 0.67470  0.91632  0.69962  Biso   1.000  O
  O54      1.0000 0.70826  0.92129  0.85503  Biso   1.000  O
  N33      1.0000 0.73696  0.92623  0.36042  Biso   1.000  N
  N34      1.0000 0.55947  0.84836  0.83678  Biso   1.000  N
  N35      1.0000 0.83091  0.97520  0.46108  Biso   1.000  N
  N36      1.0000 0.04653  0.08671  0.37346  Biso   1.000  N
  C177     1.0000 0.69990  0.90408  0.39810  Biso   1.000  C
  C178     1.0000 0.66827  0.88388  0.33050  Biso   1.000  C
  C179     1.0000 0.67587  0.88906  0.22520  Biso   1.000  C
  H113     1.0000 0.65550  0.87580  0.17780  Biso   1.000  H
  C180     1.0000 0.71241  0.91312  0.18810  Biso   1.000  C
  H114     1.0000 0.71660  0.91710  0.11640  Biso   1.000  H
  C181     1.0000 0.74244  0.93103  0.25910  Biso   1.000  C
  H115     1.0000 0.76790  0.94740  0.23510  Biso   1.000  H
  C182     1.0000 0.62796  0.85711  0.36640  Biso   1.000  C
  C183     1.0000 0.59714  0.86619  0.78470  Biso   1.000  C
  C184     1.0000 0.63169  0.88845  0.84220  Biso   1.000  C
  C185     1.0000 0.62471  0.89183  0.94750  Biso   1.000  C
  H116     1.0000 0.64820  0.90570  0.98680  Biso   1.000  H
  C186     1.0000 0.58413  0.87543  0.99660  Biso   1.000  C
  H117     1.0000 0.57820  0.87910  0.06790  Biso   1.000  H
  C187     1.0000 0.55269  0.85357  0.93770  Biso   1.000  C
  H118     1.0000 0.52500  0.84170  0.97020  Biso   1.000  H
  C188     1.0000 0.67475  0.90995  0.79580  Biso   1.000  C
  C189     1.0000 0.85565  0.97358  0.37100  Biso   1.000  C
  H119     1.0000 0.84380  0.95700  0.31940  Biso   1.000  H
  C190     1.0000 0.89746  0.99495  0.35070  Biso   1.000  C
  H120     1.0000 0.91330  0.99360  0.28530  Biso   1.000  H
  C191     1.0000 0.91649  0.01862  0.42630  Biso   1.000  C
  C192     1.0000 0.89076  0.02018  0.51920  Biso   1.000  C
  H121     1.0000 0.90230  0.03590  0.57290  Biso   1.000  H
  C193     1.0000 0.84819  0.99864  0.53290  Biso   1.000  C
  H122     1.0000 0.83050  0.00060  0.59610  Biso   1.000  H
  C194     1.0000 0.01578  0.07667  0.29670  Biso   1.000  C
  H123     1.0000 0.02300  0.08540  0.22940  Biso   1.000  H
  C195     1.0000 0.97416  0.05426  0.31020  Biso   1.000  C
  H124     1.0000 0.95370  0.04780  0.25310  Biso   1.000  H
  C196     1.0000 0.96248  0.04125  0.40800  Biso   1.000  C
  C197     1.0000 0.99488  0.05078  0.48810  Biso   1.000  C
  H125     1.0000 0.98880  0.04210  0.55590  Biso   1.000  H
  C198     1.0000 0.03611  0.07320  0.46710  Biso   1.000  C
  H126     1.0000 0.05810  0.07930  0.52210  Biso   1.000  H
  Zn19     1.0000 0.14531  0.88106  0.08537  Biso   1.000  Zn
  Zn20     1.0000 0.27311  0.93890  0.99499  Biso   1.000  Zn
  O55      1.0000 0.19886  0.90371  0.99685  Biso   1.000  O
  O56      1.0000 0.12174  0.85079  0.96058  Biso   1.000  O
  O57      1.0000 0.10295  0.84185  0.79710  Biso   1.000  O
  O58      1.0000 0.09783  0.86004  0.18827  Biso   1.000  O
  O59      1.0000 0.17470  0.91632  0.19962  Biso   1.000  O
  O60      1.0000 0.20826  0.92129  0.35503  Biso   1.000  O
  N37      1.0000 0.23696  0.92623  0.86042  Biso   1.000  N
  N38      1.0000 0.05947  0.84836  0.33678  Biso   1.000  N
  N39      1.0000 0.33091  0.97520  0.96108  Biso   1.000  N
  N40      1.0000 0.54653  0.08671  0.87346  Biso   1.000  N
  C199     1.0000 0.19990  0.90408  0.89810  Biso   1.000  C
  C200     1.0000 0.16827  0.88388  0.83050  Biso   1.000  C
  C201     1.0000 0.17587  0.88906  0.72520  Biso   1.000  C
  H127     1.0000 0.15550  0.87580  0.67780  Biso   1.000  H
  C202     1.0000 0.21241  0.91312  0.68810  Biso   1.000  C
  H128     1.0000 0.21660  0.91710  0.61640  Biso   1.000  H
  C203     1.0000 0.24244  0.93103  0.75910  Biso   1.000  C
  H129     1.0000 0.26790  0.94740  0.73510  Biso   1.000  H
  C204     1.0000 0.12796  0.85711  0.86640  Biso   1.000  C
  C205     1.0000 0.09714  0.86619  0.28470  Biso   1.000  C
  C206     1.0000 0.13169  0.88845  0.34220  Biso   1.000  C
  C207     1.0000 0.12471  0.89183  0.44750  Biso   1.000  C
  H130     1.0000 0.14820  0.90570  0.48680  Biso   1.000  H
  C208     1.0000 0.08413  0.87543  0.49660  Biso   1.000  C
  H131     1.0000 0.07820  0.87910  0.56790  Biso   1.000  H
  C209     1.0000 0.05269  0.85357  0.43770  Biso   1.000  C
  H132     1.0000 0.02500  0.84170  0.47020  Biso   1.000  H
  C210     1.0000 0.17475  0.90995  0.29580  Biso   1.000  C
  C211     1.0000 0.35565  0.97358  0.87100  Biso   1.000  C
  H133     1.0000 0.34380  0.95700  0.81940  Biso   1.000  H
  C212     1.0000 0.39746  0.99495  0.85070  Biso   1.000  C
  H134     1.0000 0.41330  0.99360  0.78530  Biso   1.000  H
  C213     1.0000 0.41649  0.01862  0.92630  Biso   1.000  C
  C214     1.0000 0.39076  0.02018  0.01920  Biso   1.000  C
  H135     1.0000 0.40230  0.03590  0.07290  Biso   1.000  H
  C215     1.0000 0.34819  0.99864  0.03290  Biso   1.000  C
  H136     1.0000 0.33050  0.00060  0.09610  Biso   1.000  H
  C216     1.0000 0.51578  0.07667  0.79670  Biso   1.000  C
  H137     1.0000 0.52300  0.08540  0.72940  Biso   1.000  H
  C217     1.0000 0.47416  0.05426  0.81020  Biso   1.000  C
  H138     1.0000 0.45370  0.04780  0.75310  Biso   1.000  H
  C218     1.0000 0.46248  0.04125  0.90800  Biso   1.000  C
  C219     1.0000 0.49488  0.05078  0.98810  Biso   1.000  C
  H139     1.0000 0.48880  0.04210  0.05590  Biso   1.000  H
  C220     1.0000 0.53611  0.07320  0.96710  Biso   1.000  C
  H140     1.0000 0.55810  0.07930  0.02210  Biso   1.000  H
  Zn21     1.0000 0.89531  0.86894  0.33537  Biso   1.000  Zn
  Zn22     1.0000 0.02311  0.81110  0.24499  Biso   1.000  Zn
  O61      1.0000 0.94886  0.84629  0.24685  Biso   1.000  O
  O62      1.0000 0.87174  0.89921  0.21058  Biso   1.000  O
  O63      1.0000 0.85295  0.90815  0.04710  Biso   1.000  O
  O64      1.0000 0.84783  0.88996  0.43827  Biso   1.000  O
  O65      1.0000 0.92470  0.83368  0.44962  Biso   1.000  O
  O66      1.0000 0.95826  0.82871  0.60503  Biso   1.000  O
  N41      1.0000 0.98696  0.82377  0.11042  Biso   1.000  N
  N42      1.0000 0.80947  0.90164  0.58678  Biso   1.000  N
  N43      1.0000 0.08091  0.77480  0.21108  Biso   1.000  N
  N44      1.0000 0.29653  0.66329  0.12346  Biso   1.000  N
  C221     1.0000 0.94990  0.84592  0.14810  Biso   1.000  C
  C222     1.0000 0.91827  0.86612  0.08050  Biso   1.000  C
  C223     1.0000 0.92587  0.86094  0.97520  Biso   1.000  C
  H141     1.0000 0.90550  0.87420  0.92780  Biso   1.000  H
  C224     1.0000 0.96241  0.83688  0.93810  Biso   1.000  C
  H142     1.0000 0.96660  0.83290  0.86640  Biso   1.000  H
  C225     1.0000 0.99244  0.81897  0.00910  Biso   1.000  C
  H143     1.0000 0.01790  0.80260  0.98510  Biso   1.000  H
  C226     1.0000 0.87796  0.89289  0.11640  Biso   1.000  C
  C227     1.0000 0.84714  0.88381  0.53470  Biso   1.000  C
  C228     1.0000 0.88169  0.86155  0.59220  Biso   1.000  C
  C229     1.0000 0.87471  0.85817  0.69750  Biso   1.000  C
  H144     1.0000 0.89820  0.84430  0.73680  Biso   1.000  H
  C230     1.0000 0.83413  0.87457  0.74660  Biso   1.000  C
  H145     1.0000 0.82820  0.87090  0.81790  Biso   1.000  H
  C231     1.0000 0.80269  0.89643  0.68770  Biso   1.000  C
  H146     1.0000 0.77500  0.90830  0.72020  Biso   1.000  H
  C232     1.0000 0.92475  0.84005  0.54580  Biso   1.000  C
  C233     1.0000 0.10565  0.77642  0.12100  Biso   1.000  C
  H147     1.0000 0.09380  0.79300  0.06940  Biso   1.000  H
  C234     1.0000 0.14746  0.75505  0.10070  Biso   1.000  C
  H148     1.0000 0.16330  0.75640  0.03530  Biso   1.000  H
  C235     1.0000 0.16649  0.73138  0.17630  Biso   1.000  C
  C236     1.0000 0.14076  0.72982  0.26920  Biso   1.000  C
  H149     1.0000 0.15230  0.71410  0.32290  Biso   1.000  H
  C237     1.0000 0.09819  0.75136  0.28290  Biso   1.000  C
  H150     1.0000 0.08050  0.74940  0.34610  Biso   1.000  H
  C238     1.0000 0.26578  0.67333  0.04670  Biso   1.000  C
  H151     1.0000 0.27300  0.66460  0.97940  Biso   1.000  H
  C239     1.0000 0.22416  0.69574  0.06020  Biso   1.000  C
  H152     1.0000 0.20370  0.70220  0.00310  Biso   1.000  H
  C240     1.0000 0.21248  0.70875  0.15800  Biso   1.000  C
  C241     1.0000 0.24488  0.69922  0.23810  Biso   1.000  C
  H153     1.0000 0.23880  0.70790  0.30590  Biso   1.000  H
  C242     1.0000 0.28611  0.67680  0.21710  Biso   1.000  C
  H154     1.0000 0.30810  0.67070  0.27210  Biso   1.000  H
  Zn23     1.0000 0.39531  0.86894  0.83537  Biso   1.000  Zn
  Zn24     1.0000 0.52311  0.81110  0.74499  Biso   1.000  Zn
  O67      1.0000 0.44886  0.84629  0.74685  Biso   1.000  O
  O68      1.0000 0.37174  0.89921  0.71058  Biso   1.000  O
  O69      1.0000 0.35295  0.90815  0.54710  Biso   1.000  O
  O70      1.0000 0.34783  0.88996  0.93827  Biso   1.000  O
  O71      1.0000 0.42470  0.83368  0.94962  Biso   1.000  O
  O72      1.0000 0.45826  0.82871  0.10503  Biso   1.000  O
  N45      1.0000 0.48696  0.82377  0.61042  Biso   1.000  N
  N46      1.0000 0.30947  0.90164  0.08678  Biso   1.000  N
  N47      1.0000 0.58091  0.77480  0.71108  Biso   1.000  N
  N48      1.0000 0.79653  0.66329  0.62346  Biso   1.000  N
  C243     1.0000 0.44990  0.84592  0.64810  Biso   1.000  C
  C244     1.0000 0.41827  0.86612  0.58050  Biso   1.000  C
  C245     1.0000 0.42587  0.86094  0.47520  Biso   1.000  C
  H155     1.0000 0.40550  0.87420  0.42780  Biso   1.000  H
  C246     1.0000 0.46241  0.83688  0.43810  Biso   1.000  C
  H156     1.0000 0.46660  0.83290  0.36640  Biso   1.000  H
  C247     1.0000 0.49244  0.81897  0.50910  Biso   1.000  C
  H157     1.0000 0.51790  0.80260  0.48510  Biso   1.000  H
  C248     1.0000 0.37796  0.89289  0.61640  Biso   1.000  C
  C249     1.0000 0.34714  0.88381  0.03470  Biso   1.000  C
  C250     1.0000 0.38169  0.86155  0.09220  Biso   1.000  C
  C251     1.0000 0.37471  0.85817  0.19750  Biso   1.000  C
  H158     1.0000 0.39820  0.84430  0.23680  Biso   1.000  H
  C252     1.0000 0.33413  0.87457  0.24660  Biso   1.000  C
  H159     1.0000 0.32820  0.87090  0.31790  Biso   1.000  H
  C253     1.0000 0.30269  0.89643  0.18770  Biso   1.000  C
  H160     1.0000 0.27500  0.90830  0.22020  Biso   1.000  H
  C254     1.0000 0.42475  0.84005  0.04580  Biso   1.000  C
  C255     1.0000 0.60565  0.77642  0.62100  Biso   1.000  C
  H161     1.0000 0.59380  0.79300  0.56940  Biso   1.000  H
  C256     1.0000 0.64746  0.75505  0.60070  Biso   1.000  C
  H162     1.0000 0.66330  0.75640  0.53530  Biso   1.000  H
  C257     1.0000 0.66649  0.73138  0.67630  Biso   1.000  C
  C258     1.0000 0.64076  0.72982  0.76920  Biso   1.000  C
  H163     1.0000 0.65230  0.71410  0.82290  Biso   1.000  H
  C259     1.0000 0.59819  0.75136  0.78290  Biso   1.000  C
  H164     1.0000 0.58050  0.74940  0.84610  Biso   1.000  H
  C260     1.0000 0.76578  0.67333  0.54670  Biso   1.000  C
  H165     1.0000 0.77300  0.66460  0.47940  Biso   1.000  H
  C261     1.0000 0.72416  0.69574  0.56020  Biso   1.000  C
  H166     1.0000 0.70370  0.70220  0.50310  Biso   1.000  H
  C262     1.0000 0.71248  0.70875  0.65800  Biso   1.000  C
  C263     1.0000 0.74488  0.69922  0.73810  Biso   1.000  C
  H167     1.0000 0.73880  0.70790  0.80590  Biso   1.000  H
  C264     1.0000 0.78611  0.67680  0.71710  Biso   1.000  C
  H168     1.0000 0.80810  0.67070  0.77210  Biso   1.000  H
  Zn25     1.0000 0.64531  0.38106  0.08537  Biso   1.000  Zn
  Zn26     1.0000 0.77311  0.43890  0.99499  Biso   1.000  Zn
  O73      1.0000 0.69886  0.40371  0.99685  Biso   1.000  O
  O74      1.0000 0.62174  0.35079  0.96058  Biso   1.000  O
  O75      1.0000 0.60295  0.34185  0.79710  Biso   1.000  O
  O76      1.0000 0.59783  0.36004  0.18827  Biso   1.000  O
  O77      1.0000 0.67470  0.41632  0.19962  Biso   1.000  O
  O78      1.0000 0.70826  0.42129  0.35503  Biso   1.000  O
  N49      1.0000 0.73696  0.42623  0.86042  Biso   1.000  N
  N50      1.0000 0.55947  0.34836  0.33678  Biso   1.000  N
  N51      1.0000 0.83091  0.47520  0.96108  Biso   1.000  N
  N52      1.0000 0.04653  0.58671  0.87346  Biso   1.000  N
  C265     1.0000 0.69990  0.40408  0.89810  Biso   1.000  C
  C266     1.0000 0.66827  0.38388  0.83050  Biso   1.000  C
  C267     1.0000 0.67587  0.38906  0.72520  Biso   1.000  C
  H169     1.0000 0.65550  0.37580  0.67780  Biso   1.000  H
  C268     1.0000 0.71241  0.41312  0.68810  Biso   1.000  C
  H170     1.0000 0.71660  0.41710  0.61640  Biso   1.000  H
  C269     1.0000 0.74244  0.43103  0.75910  Biso   1.000  C
  H171     1.0000 0.76790  0.44740  0.73510  Biso   1.000  H
  C270     1.0000 0.62796  0.35711  0.86640  Biso   1.000  C
  C271     1.0000 0.59714  0.36619  0.28470  Biso   1.000  C
  C272     1.0000 0.63169  0.38845  0.34220  Biso   1.000  C
  C273     1.0000 0.62471  0.39183  0.44750  Biso   1.000  C
  H172     1.0000 0.64820  0.40570  0.48680  Biso   1.000  H
  C274     1.0000 0.58413  0.37543  0.49660  Biso   1.000  C
  H173     1.0000 0.57820  0.37910  0.56790  Biso   1.000  H
  C275     1.0000 0.55269  0.35357  0.43770  Biso   1.000  C
  H174     1.0000 0.52500  0.34170  0.47020  Biso   1.000  H
  C276     1.0000 0.67475  0.40995  0.29580  Biso   1.000  C
  C277     1.0000 0.85565  0.47358  0.87100  Biso   1.000  C
  H175     1.0000 0.84380  0.45700  0.81940  Biso   1.000  H
  C278     1.0000 0.89746  0.49495  0.85070  Biso   1.000  C
  H176     1.0000 0.91330  0.49360  0.78530  Biso   1.000  H
  C279     1.0000 0.91649  0.51862  0.92630  Biso   1.000  C
  C280     1.0000 0.89076  0.52018  0.01920  Biso   1.000  C
  H177     1.0000 0.90230  0.53590  0.07290  Biso   1.000  H
  C281     1.0000 0.84819  0.49864  0.03290  Biso   1.000  C
  H178     1.0000 0.83050  0.50060  0.09610  Biso   1.000  H
  C282     1.0000 0.01578  0.57667  0.79670  Biso   1.000  C
  H179     1.0000 0.02300  0.58540  0.72940  Biso   1.000  H
  C283     1.0000 0.97416  0.55426  0.81020  Biso   1.000  C
  H180     1.0000 0.95370  0.54780  0.75310  Biso   1.000  H
  C284     1.0000 0.96248  0.54125  0.90800  Biso   1.000  C
  C285     1.0000 0.99488  0.55078  0.98810  Biso   1.000  C
  H181     1.0000 0.98880  0.54210  0.05590  Biso   1.000  H
  C286     1.0000 0.03611  0.57320  0.96710  Biso   1.000  C
  H182     1.0000 0.05810  0.57930  0.02210  Biso   1.000  H
  Zn27     1.0000 0.14531  0.38106  0.58537  Biso   1.000  Zn
  Zn28     1.0000 0.27311  0.43890  0.49499  Biso   1.000  Zn
  O79      1.0000 0.19886  0.40371  0.49685  Biso   1.000  O
  O80      1.0000 0.12174  0.35079  0.46058  Biso   1.000  O
  O81      1.0000 0.10295  0.34185  0.29710  Biso   1.000  O
  O82      1.0000 0.09783  0.36004  0.68827  Biso   1.000  O
  O83      1.0000 0.17470  0.41632  0.69962  Biso   1.000  O
  O84      1.0000 0.20826  0.42129  0.85503  Biso   1.000  O
  N53      1.0000 0.23696  0.42623  0.36042  Biso   1.000  N
  N54      1.0000 0.05947  0.34836  0.83678  Biso   1.000  N
  N55      1.0000 0.33091  0.47520  0.46108  Biso   1.000  N
  N56      1.0000 0.54653  0.58671  0.37346  Biso   1.000  N
  C287     1.0000 0.19990  0.40408  0.39810  Biso   1.000  C
  C288     1.0000 0.16827  0.38388  0.33050  Biso   1.000  C
  C289     1.0000 0.17587  0.38906  0.22520  Biso   1.000  C
  H183     1.0000 0.15550  0.37580  0.17780  Biso   1.000  H
  C290     1.0000 0.21241  0.41312  0.18810  Biso   1.000  C
  H184     1.0000 0.21660  0.41710  0.11640  Biso   1.000  H
  C291     1.0000 0.24244  0.43103  0.25910  Biso   1.000  C
  H185     1.0000 0.26790  0.44740  0.23510  Biso   1.000  H
  C292     1.0000 0.12796  0.35711  0.36640  Biso   1.000  C
  C293     1.0000 0.09714  0.36619  0.78470  Biso   1.000  C
  C294     1.0000 0.13169  0.38845  0.84220  Biso   1.000  C
  C295     1.0000 0.12471  0.39183  0.94750  Biso   1.000  C
  H186     1.0000 0.14820  0.40570  0.98680  Biso   1.000  H
  C296     1.0000 0.08413  0.37543  0.99660  Biso   1.000  C
  H187     1.0000 0.07820  0.37910  0.06790  Biso   1.000  H
  C297     1.0000 0.05269  0.35357  0.93770  Biso   1.000  C
  H188     1.0000 0.02500  0.34170  0.97020  Biso   1.000  H
  C298     1.0000 0.17475  0.40995  0.79580  Biso   1.000  C
  C299     1.0000 0.35565  0.47358  0.37100  Biso   1.000  C
  H189     1.0000 0.34380  0.45700  0.31940  Biso   1.000  H
  C300     1.0000 0.39746  0.49495  0.35070  Biso   1.000  C
  H190     1.0000 0.41330  0.49360  0.28530  Biso   1.000  H
  C301     1.0000 0.41649  0.51862  0.42630  Biso   1.000  C
  C302     1.0000 0.39076  0.52018  0.51920  Biso   1.000  C
  H191     1.0000 0.40230  0.53590  0.57290  Biso   1.000  H
  C303     1.0000 0.34819  0.49864  0.53290  Biso   1.000  C
  H192     1.0000 0.33050  0.50060  0.59610  Biso   1.000  H
  C304     1.0000 0.51578  0.57667  0.29670  Biso   1.000  C
  H193     1.0000 0.52300  0.58540  0.22940  Biso   1.000  H
  C305     1.0000 0.47416  0.55426  0.31020  Biso   1.000  C
  H194     1.0000 0.45370  0.54780  0.25310  Biso   1.000  H
  C306     1.0000 0.46248  0.54125  0.40800  Biso   1.000  C
  C307     1.0000 0.49488  0.55078  0.48810  Biso   1.000  C
  H195     1.0000 0.48880  0.54210  0.55590  Biso   1.000  H
  C308     1.0000 0.53611  0.57320  0.46710  Biso   1.000  C
  H196     1.0000 0.55810  0.57930  0.52210  Biso   1.000  H
  Zn29     1.0000 0.89531  0.36894  0.83537  Biso   1.000  Zn
  Zn30     1.0000 0.02311  0.31110  0.74499  Biso   1.000  Zn
  O85      1.0000 0.94886  0.34629  0.74685  Biso   1.000  O
  O86      1.0000 0.87174  0.39921  0.71058  Biso   1.000  O
  O87      1.0000 0.85295  0.40815  0.54710  Biso   1.000  O
  O88      1.0000 0.84783  0.38996  0.93827  Biso   1.000  O
  O89      1.0000 0.92470  0.33368  0.94962  Biso   1.000  O
  O90      1.0000 0.95826  0.32871  0.10503  Biso   1.000  O
  N57      1.0000 0.98696  0.32377  0.61042  Biso   1.000  N
  N58      1.0000 0.80947  0.40164  0.08678  Biso   1.000  N
  N59      1.0000 0.08091  0.27480  0.71108  Biso   1.000  N
  N60      1.0000 0.29653  0.16329  0.62346  Biso   1.000  N
  C309     1.0000 0.94990  0.34592  0.64810  Biso   1.000  C
  C310     1.0000 0.91827  0.36612  0.58050  Biso   1.000  C
  C311     1.0000 0.92587  0.36094  0.47520  Biso   1.000  C
  H197     1.0000 0.90550  0.37420  0.42780  Biso   1.000  H
  C312     1.0000 0.96241  0.33688  0.43810  Biso   1.000  C
  H198     1.0000 0.96660  0.33290  0.36640  Biso   1.000  H
  C313     1.0000 0.99244  0.31897  0.50910  Biso   1.000  C
  H199     1.0000 0.01790  0.30260  0.48510  Biso   1.000  H
  C314     1.0000 0.87796  0.39289  0.61640  Biso   1.000  C
  C315     1.0000 0.84714  0.38381  0.03470  Biso   1.000  C
  C316     1.0000 0.88169  0.36155  0.09220  Biso   1.000  C
  C317     1.0000 0.87471  0.35817  0.19750  Biso   1.000  C
  H200     1.0000 0.89820  0.34430  0.23680  Biso   1.000  H
  C318     1.0000 0.83413  0.37457  0.24660  Biso   1.000  C
  H201     1.0000 0.82820  0.37090  0.31790  Biso   1.000  H
  C319     1.0000 0.80269  0.39643  0.18770  Biso   1.000  C
  H202     1.0000 0.77500  0.40830  0.22020  Biso   1.000  H
  C320     1.0000 0.92475  0.34005  0.04580  Biso   1.000  C
  C321     1.0000 0.10565  0.27642  0.62100  Biso   1.000  C
  H203     1.0000 0.09380  0.29300  0.56940  Biso   1.000  H
  C322     1.0000 0.14746  0.25505  0.60070  Biso   1.000  C
  H204     1.0000 0.16330  0.25640  0.53530  Biso   1.000  H
  C323     1.0000 0.16649  0.23138  0.67630  Biso   1.000  C
  C324     1.0000 0.14076  0.22982  0.76920  Biso   1.000  C
  H205     1.0000 0.15230  0.21410  0.82290  Biso   1.000  H
  C325     1.0000 0.09819  0.25136  0.78290  Biso   1.000  C
  H206     1.0000 0.08050  0.24940  0.84610  Biso   1.000  H
  C326     1.0000 0.26578  0.17333  0.54670  Biso   1.000  C
  H207     1.0000 0.27300  0.16460  0.47940  Biso   1.000  H
  C327     1.0000 0.22416  0.19574  0.56020  Biso   1.000  C
  H208     1.0000 0.20370  0.20220  0.50310  Biso   1.000  H
  C328     1.0000 0.21248  0.20875  0.65800  Biso   1.000  C
  C329     1.0000 0.24488  0.19922  0.73810  Biso   1.000  C
  H209     1.0000 0.23880  0.20790  0.80590  Biso   1.000  H
  C330     1.0000 0.28611  0.17680  0.71710  Biso   1.000  C
  H210     1.0000 0.30810  0.17070  0.77210  Biso   1.000  H
  Zn31     1.0000 0.39531  0.36894  0.33537  Biso   1.000  Zn
  Zn32     1.0000 0.52311  0.31110  0.24499  Biso   1.000  Zn
  O91      1.0000 0.44886  0.34629  0.24685  Biso   1.000  O
  O92      1.0000 0.37174  0.39921  0.21058  Biso   1.000  O
  O93      1.0000 0.35295  0.40815  0.04710  Biso   1.000  O
  O94      1.0000 0.34783  0.38996  0.43827  Biso   1.000  O
  O95      1.0000 0.42470  0.33368  0.44962  Biso   1.000  O
  O96      1.0000 0.45826  0.32871  0.60503  Biso   1.000  O
  N61      1.0000 0.48696  0.32377  0.11042  Biso   1.000  N
  N62      1.0000 0.30947  0.40164  0.58678  Biso   1.000  N
  N63      1.0000 0.58091  0.27480  0.21108  Biso   1.000  N
  N64      1.0000 0.79653  0.16329  0.12346  Biso   1.000  N
  C331     1.0000 0.44990  0.34592  0.14810  Biso   1.000  C
  C332     1.0000 0.41827  0.36612  0.08050  Biso   1.000  C
  C333     1.0000 0.42587  0.36094  0.97520  Biso   1.000  C
  H211     1.0000 0.40550  0.37420  0.92780  Biso   1.000  H
  C334     1.0000 0.46241  0.33688  0.93810  Biso   1.000  C
  H212     1.0000 0.46660  0.33290  0.86640  Biso   1.000  H
  C335     1.0000 0.49244  0.31897  0.00910  Biso   1.000  C
  H213     1.0000 0.51790  0.30260  0.98510  Biso   1.000  H
  C336     1.0000 0.37796  0.39289  0.11640  Biso   1.000  C
  C337     1.0000 0.34714  0.38381  0.53470  Biso   1.000  C
  C338     1.0000 0.38169  0.36155  0.59220  Biso   1.000  C
  C339     1.0000 0.37471  0.35817  0.69750  Biso   1.000  C
  H214     1.0000 0.39820  0.34430  0.73680  Biso   1.000  H
  C340     1.0000 0.33413  0.37457  0.74660  Biso   1.000  C
  H215     1.0000 0.32820  0.37090  0.81790  Biso   1.000  H
  C341     1.0000 0.30269  0.39643  0.68770  Biso   1.000  C
  H216     1.0000 0.27500  0.40830  0.72020  Biso   1.000  H
  C342     1.0000 0.42475  0.34005  0.54580  Biso   1.000  C
  C343     1.0000 0.60565  0.27642  0.12100  Biso   1.000  C
  H217     1.0000 0.59380  0.29300  0.06940  Biso   1.000  H
  C344     1.0000 0.64746  0.25505  0.10070  Biso   1.000  C
  H218     1.0000 0.66330  0.25640  0.03530  Biso   1.000  H
  C345     1.0000 0.66649  0.23138  0.17630  Biso   1.000  C
  C346     1.0000 0.64076  0.22982  0.26920  Biso   1.000  C
  H219     1.0000 0.65230  0.21410  0.32290  Biso   1.000  H
  C347     1.0000 0.59819  0.25136  0.28290  Biso   1.000  C
  H220     1.0000 0.58050  0.24940  0.34610  Biso   1.000  H
  C348     1.0000 0.76578  0.17333  0.04670  Biso   1.000  C
  H221     1.0000 0.77300  0.16460  0.97940  Biso   1.000  H
  C349     1.0000 0.72416  0.19574  0.06020  Biso   1.000  C
  H222     1.0000 0.70370  0.20220  0.00310  Biso   1.000  H
  C350     1.0000 0.71248  0.20875  0.15800  Biso   1.000  C
  C351     1.0000 0.74488  0.19922  0.23810  Biso   1.000  C
  H223     1.0000 0.73880  0.20790  0.30590  Biso   1.000  H
  C352     1.0000 0.78611  0.17680  0.21710  Biso   1.000  C
  H224     1.0000 0.80810  0.17070  0.27210  Biso   1.000  H
