data_image0
_cell_length_a       41.4694
_cell_length_b       41.4694
_cell_length_c       41.4694
_cell_angle_alpha    90
_cell_angle_beta     90
_cell_angle_gamma    90

_symmetry_space_group_name_H-M    "P 1"
_symmetry_int_tables_number       1

loop_
  _symmetry_equiv_pos_as_xyz
  'x, y, z'

loop_
  _atom_site_label
  _atom_site_occupancy
  _atom_site_fract_x
  _atom_site_fract_y
  _atom_site_fract_z
  _atom_site_thermal_displace_type
  _atom_site_B_iso_or_equiv
  _atom_site_type_symbol
  O1       1.0000 0.17005  0.13208  0.08337  Biso   1.000  O
  C1       1.0000 0.16968  0.12819  0.01677  Biso   1.000  C
  H1       1.0000 0.18300  0.11410  0.02800  Biso   1.000  H
  O2       1.0000 0.20980  0.12406  0.17264  Biso   1.000  O
  C2       1.0000 0.21820  0.12330  0.25770  Biso   1.000  C
  H2       1.0000 0.19650  0.12370  0.26370  Biso   1.000  H
  O3       1.0000 0.17005  0.63208  0.58337  Biso   1.000  O
  C3       1.0000 0.16968  0.62819  0.51677  Biso   1.000  C
  H3       1.0000 0.18300  0.61410  0.52800  Biso   1.000  H
  O4       1.0000 0.20980  0.62406  0.67264  Biso   1.000  O
  C4       1.0000 0.21820  0.62330  0.75770  Biso   1.000  C
  H4       1.0000 0.19650  0.62370  0.76370  Biso   1.000  H
  O5       1.0000 0.67005  0.13208  0.58337  Biso   1.000  O
  C5       1.0000 0.66968  0.12819  0.51677  Biso   1.000  C
  H5       1.0000 0.68300  0.11410  0.52800  Biso   1.000  H
  O6       1.0000 0.70980  0.12406  0.67264  Biso   1.000  O
  C6       1.0000 0.71820  0.12330  0.75770  Biso   1.000  C
  H6       1.0000 0.69650  0.12370  0.76370  Biso   1.000  H
  O7       1.0000 0.67005  0.63208  0.08337  Biso   1.000  O
  C7       1.0000 0.66968  0.62819  0.01677  Biso   1.000  C
  H7       1.0000 0.68300  0.61410  0.02800  Biso   1.000  H
  O8       1.0000 0.70980  0.62406  0.17264  Biso   1.000  O
  C8       1.0000 0.71820  0.62330  0.25770  Biso   1.000  C
  H8       1.0000 0.69650  0.62370  0.26370  Biso   1.000  H
  O9       1.0000 0.82995  0.86792  0.08337  Biso   1.000  O
  C9       1.0000 0.83032  0.87181  0.01677  Biso   1.000  C
  H9       1.0000 0.81700  0.88590  0.02800  Biso   1.000  H
  O10      1.0000 0.79020  0.87594  0.17264  Biso   1.000  O
  C10      1.0000 0.78180  0.87670  0.25770  Biso   1.000  C
  H10      1.0000 0.80350  0.87630  0.26370  Biso   1.000  H
  O11      1.0000 0.82995  0.36792  0.58337  Biso   1.000  O
  C11      1.0000 0.83032  0.37181  0.51677  Biso   1.000  C
  H11      1.0000 0.81700  0.38590  0.52800  Biso   1.000  H
  O12      1.0000 0.79020  0.37594  0.67264  Biso   1.000  O
  C12      1.0000 0.78180  0.37670  0.75770  Biso   1.000  C
  H12      1.0000 0.80350  0.37630  0.76370  Biso   1.000  H
  O13      1.0000 0.32995  0.86792  0.58337  Biso   1.000  O
  C13      1.0000 0.33032  0.87181  0.51677  Biso   1.000  C
  H13      1.0000 0.31700  0.88590  0.52800  Biso   1.000  H
  O14      1.0000 0.29020  0.87594  0.67264  Biso   1.000  O
  C14      1.0000 0.28180  0.87670  0.75770  Biso   1.000  C
  H14      1.0000 0.30350  0.87630  0.76370  Biso   1.000  H
  O15      1.0000 0.32995  0.36792  0.08337  Biso   1.000  O
  C15      1.0000 0.33032  0.37181  0.01677  Biso   1.000  C
  H15      1.0000 0.31700  0.38590  0.02800  Biso   1.000  H
  O16      1.0000 0.29020  0.37594  0.17264  Biso   1.000  O
  C16      1.0000 0.28180  0.37670  0.25770  Biso   1.000  C
  H16      1.0000 0.30350  0.37630  0.26370  Biso   1.000  H
  O17      1.0000 0.82995  0.13208  0.91663  Biso   1.000  O
  C17      1.0000 0.83032  0.12819  0.98323  Biso   1.000  C
  H17      1.0000 0.81700  0.11410  0.97200  Biso   1.000  H
  O18      1.0000 0.79020  0.12406  0.82736  Biso   1.000  O
  C18      1.0000 0.78180  0.12330  0.74230  Biso   1.000  C
  H18      1.0000 0.80350  0.12370  0.73630  Biso   1.000  H
  O19      1.0000 0.82995  0.63208  0.41663  Biso   1.000  O
  C19      1.0000 0.83032  0.62819  0.48323  Biso   1.000  C
  H19      1.0000 0.81700  0.61410  0.47200  Biso   1.000  H
  O20      1.0000 0.79020  0.62406  0.32736  Biso   1.000  O
  C20      1.0000 0.78180  0.62330  0.24230  Biso   1.000  C
  H20      1.0000 0.80350  0.62370  0.23630  Biso   1.000  H
  O21      1.0000 0.32995  0.13208  0.41663  Biso   1.000  O
  C21      1.0000 0.33032  0.12819  0.48323  Biso   1.000  C
  H21      1.0000 0.31700  0.11410  0.47200  Biso   1.000  H
  O22      1.0000 0.29020  0.12406  0.32736  Biso   1.000  O
  C22      1.0000 0.28180  0.12330  0.24230  Biso   1.000  C
  H22      1.0000 0.30350  0.12370  0.23630  Biso   1.000  H
  O23      1.0000 0.32995  0.63208  0.91663  Biso   1.000  O
  C23      1.0000 0.33032  0.62819  0.98323  Biso   1.000  C
  H23      1.0000 0.31700  0.61410  0.97200  Biso   1.000  H
  O24      1.0000 0.29020  0.62406  0.82736  Biso   1.000  O
  C24      1.0000 0.28180  0.62330  0.74230  Biso   1.000  C
  H24      1.0000 0.30350  0.62370  0.73630  Biso   1.000  H
  O25      1.0000 0.17005  0.86792  0.91663  Biso   1.000  O
  C25      1.0000 0.16968  0.87181  0.98323  Biso   1.000  C
  H25      1.0000 0.18300  0.88590  0.97200  Biso   1.000  H
  O26      1.0000 0.20980  0.87594  0.82736  Biso   1.000  O
  C26      1.0000 0.21820  0.87670  0.74230  Biso   1.000  C
  H26      1.0000 0.19650  0.87630  0.73630  Biso   1.000  H
  O27      1.0000 0.17005  0.36792  0.41663  Biso   1.000  O
  C27      1.0000 0.16968  0.37181  0.48323  Biso   1.000  C
  H27      1.0000 0.18300  0.38590  0.47200  Biso   1.000  H
  O28      1.0000 0.20980  0.37594  0.32736  Biso   1.000  O
  C28      1.0000 0.21820  0.37670  0.24230  Biso   1.000  C
  H28      1.0000 0.19650  0.37630  0.23630  Biso   1.000  H
  O29      1.0000 0.67005  0.86792  0.41663  Biso   1.000  O
  C29      1.0000 0.66968  0.87181  0.48323  Biso   1.000  C
  H29      1.0000 0.68300  0.88590  0.47200  Biso   1.000  H
  O30      1.0000 0.70980  0.87594  0.32736  Biso   1.000  O
  C30      1.0000 0.71820  0.87670  0.24230  Biso   1.000  C
  H30      1.0000 0.69650  0.87630  0.23630  Biso   1.000  H
  O31      1.0000 0.67005  0.36792  0.91663  Biso   1.000  O
  C31      1.0000 0.66968  0.37181  0.98323  Biso   1.000  C
  H31      1.0000 0.68300  0.38590  0.97200  Biso   1.000  H
  O32      1.0000 0.70980  0.37594  0.82736  Biso   1.000  O
  C32      1.0000 0.71820  0.37670  0.74230  Biso   1.000  C
  H32      1.0000 0.69650  0.37630  0.73630  Biso   1.000  H
  O33      1.0000 0.08337  0.17005  0.13208  Biso   1.000  O
  C33      1.0000 0.01677  0.16968  0.12819  Biso   1.000  C
  H33      1.0000 0.02800  0.18300  0.11410  Biso   1.000  H
  O34      1.0000 0.17264  0.20980  0.12406  Biso   1.000  O
  C34      1.0000 0.25770  0.21820  0.12330  Biso   1.000  C
  H34      1.0000 0.26370  0.19650  0.12370  Biso   1.000  H
  O35      1.0000 0.08337  0.67005  0.63208  Biso   1.000  O
  C35      1.0000 0.01677  0.66968  0.62819  Biso   1.000  C
  H35      1.0000 0.02800  0.68300  0.61410  Biso   1.000  H
  O36      1.0000 0.17264  0.70980  0.62406  Biso   1.000  O
  C36      1.0000 0.25770  0.71820  0.62330  Biso   1.000  C
  H36      1.0000 0.26370  0.69650  0.62370  Biso   1.000  H
  O37      1.0000 0.58337  0.17005  0.63208  Biso   1.000  O
  C37      1.0000 0.51677  0.16968  0.62819  Biso   1.000  C
  H37      1.0000 0.52800  0.18300  0.61410  Biso   1.000  H
  O38      1.0000 0.67264  0.20980  0.62406  Biso   1.000  O
  C38      1.0000 0.75770  0.21820  0.62330  Biso   1.000  C
  H38      1.0000 0.76370  0.19650  0.62370  Biso   1.000  H
  O39      1.0000 0.58337  0.67005  0.13208  Biso   1.000  O
  C39      1.0000 0.51677  0.66968  0.12819  Biso   1.000  C
  H39      1.0000 0.52800  0.68300  0.11410  Biso   1.000  H
  O40      1.0000 0.67264  0.70980  0.12406  Biso   1.000  O
  C40      1.0000 0.75770  0.71820  0.12330  Biso   1.000  C
  H40      1.0000 0.76370  0.69650  0.12370  Biso   1.000  H
  O41      1.0000 0.08337  0.82995  0.86792  Biso   1.000  O
  C41      1.0000 0.01677  0.83032  0.87181  Biso   1.000  C
  H41      1.0000 0.02800  0.81700  0.88590  Biso   1.000  H
  O42      1.0000 0.17264  0.79020  0.87594  Biso   1.000  O
  C42      1.0000 0.25770  0.78180  0.87670  Biso   1.000  C
  H42      1.0000 0.26370  0.80350  0.87630  Biso   1.000  H
  O43      1.0000 0.08337  0.32995  0.36792  Biso   1.000  O
  C43      1.0000 0.01677  0.33032  0.37181  Biso   1.000  C
  H43      1.0000 0.02800  0.31700  0.38590  Biso   1.000  H
  O44      1.0000 0.17264  0.29020  0.37594  Biso   1.000  O
  C44      1.0000 0.25770  0.28180  0.37670  Biso   1.000  C
  H44      1.0000 0.26370  0.30350  0.37630  Biso   1.000  H
  O45      1.0000 0.58337  0.82995  0.36792  Biso   1.000  O
  C45      1.0000 0.51677  0.83032  0.37181  Biso   1.000  C
  H45      1.0000 0.52800  0.81700  0.38590  Biso   1.000  H
  O46      1.0000 0.67264  0.79020  0.37594  Biso   1.000  O
  C46      1.0000 0.75770  0.78180  0.37670  Biso   1.000  C
  H46      1.0000 0.76370  0.80350  0.37630  Biso   1.000  H
  O47      1.0000 0.58337  0.32995  0.86792  Biso   1.000  O
  C47      1.0000 0.51677  0.33032  0.87181  Biso   1.000  C
  H47      1.0000 0.52800  0.31700  0.88590  Biso   1.000  H
  O48      1.0000 0.67264  0.29020  0.87594  Biso   1.000  O
  C48      1.0000 0.75770  0.28180  0.87670  Biso   1.000  C
  H48      1.0000 0.76370  0.30350  0.87630  Biso   1.000  H
  O49      1.0000 0.91663  0.82995  0.13208  Biso   1.000  O
  C49      1.0000 0.98323  0.83032  0.12819  Biso   1.000  C
  H49      1.0000 0.97200  0.81700  0.11410  Biso   1.000  H
  O50      1.0000 0.82736  0.79020  0.12406  Biso   1.000  O
  C50      1.0000 0.74230  0.78180  0.12330  Biso   1.000  C
  H50      1.0000 0.73630  0.80350  0.12370  Biso   1.000  H
  O51      1.0000 0.91663  0.32995  0.63208  Biso   1.000  O
  C51      1.0000 0.98323  0.33032  0.62819  Biso   1.000  C
  H51      1.0000 0.97200  0.31700  0.61410  Biso   1.000  H
  O52      1.0000 0.82736  0.29020  0.62406  Biso   1.000  O
  C52      1.0000 0.74230  0.28180  0.62330  Biso   1.000  C
  H52      1.0000 0.73630  0.30350  0.62370  Biso   1.000  H
  O53      1.0000 0.41663  0.82995  0.63208  Biso   1.000  O
  C53      1.0000 0.48323  0.83032  0.62819  Biso   1.000  C
  H53      1.0000 0.47200  0.81700  0.61410  Biso   1.000  H
  O54      1.0000 0.32736  0.79020  0.62406  Biso   1.000  O
  C54      1.0000 0.24230  0.78180  0.62330  Biso   1.000  C
  H54      1.0000 0.23630  0.80350  0.62370  Biso   1.000  H
  O55      1.0000 0.41663  0.32995  0.13208  Biso   1.000  O
  C55      1.0000 0.48323  0.33032  0.12819  Biso   1.000  C
  H55      1.0000 0.47200  0.31700  0.11410  Biso   1.000  H
  O56      1.0000 0.32736  0.29020  0.12406  Biso   1.000  O
  C56      1.0000 0.24230  0.28180  0.12330  Biso   1.000  C
  H56      1.0000 0.23630  0.30350  0.12370  Biso   1.000  H
  O57      1.0000 0.91663  0.17005  0.86792  Biso   1.000  O
  C57      1.0000 0.98323  0.16968  0.87181  Biso   1.000  C
  H57      1.0000 0.97200  0.18300  0.88590  Biso   1.000  H
  O58      1.0000 0.82736  0.20980  0.87594  Biso   1.000  O
  C58      1.0000 0.74230  0.21820  0.87670  Biso   1.000  C
  H58      1.0000 0.73630  0.19650  0.87630  Biso   1.000  H
  O59      1.0000 0.91663  0.67005  0.36792  Biso   1.000  O
  C59      1.0000 0.98323  0.66968  0.37181  Biso   1.000  C
  H59      1.0000 0.97200  0.68300  0.38590  Biso   1.000  H
  O60      1.0000 0.82736  0.70980  0.37594  Biso   1.000  O
  C60      1.0000 0.74230  0.71820  0.37670  Biso   1.000  C
  H60      1.0000 0.73630  0.69650  0.37630  Biso   1.000  H
  O61      1.0000 0.41663  0.17005  0.36792  Biso   1.000  O
  C61      1.0000 0.48323  0.16968  0.37181  Biso   1.000  C
  H61      1.0000 0.47200  0.18300  0.38590  Biso   1.000  H
  O62      1.0000 0.32736  0.20980  0.37594  Biso   1.000  O
  C62      1.0000 0.24230  0.21820  0.37670  Biso   1.000  C
  H62      1.0000 0.23630  0.19650  0.37630  Biso   1.000  H
  O63      1.0000 0.41663  0.67005  0.86792  Biso   1.000  O
  C63      1.0000 0.48323  0.66968  0.87181  Biso   1.000  C
  H63      1.0000 0.47200  0.68300  0.88590  Biso   1.000  H
  O64      1.0000 0.32736  0.70980  0.87594  Biso   1.000  O
  C64      1.0000 0.24230  0.71820  0.87670  Biso   1.000  C
  H64      1.0000 0.23630  0.69650  0.87630  Biso   1.000  H
  O65      1.0000 0.13208  0.08337  0.17005  Biso   1.000  O
  C65      1.0000 0.12819  0.01677  0.16968  Biso   1.000  C
  H65      1.0000 0.11410  0.02800  0.18300  Biso   1.000  H
  O66      1.0000 0.12406  0.17264  0.20980  Biso   1.000  O
  C66      1.0000 0.12330  0.25770  0.21820  Biso   1.000  C
  H66      1.0000 0.12370  0.26370  0.19650  Biso   1.000  H
  O67      1.0000 0.13208  0.58337  0.67005  Biso   1.000  O
  C67      1.0000 0.12819  0.51677  0.66968  Biso   1.000  C
  H67      1.0000 0.11410  0.52800  0.68300  Biso   1.000  H
  O68      1.0000 0.12406  0.67264  0.70980  Biso   1.000  O
  C68      1.0000 0.12330  0.75770  0.71820  Biso   1.000  C
  H68      1.0000 0.12370  0.76370  0.69650  Biso   1.000  H
  O69      1.0000 0.63208  0.08337  0.67005  Biso   1.000  O
  C69      1.0000 0.62819  0.01677  0.66968  Biso   1.000  C
  H69      1.0000 0.61410  0.02800  0.68300  Biso   1.000  H
  O70      1.0000 0.62406  0.17264  0.70980  Biso   1.000  O
  C70      1.0000 0.62330  0.25770  0.71820  Biso   1.000  C
  H70      1.0000 0.62370  0.26370  0.69650  Biso   1.000  H
  O71      1.0000 0.63208  0.58337  0.17005  Biso   1.000  O
  C71      1.0000 0.62819  0.51677  0.16968  Biso   1.000  C
  H71      1.0000 0.61410  0.52800  0.18300  Biso   1.000  H
  O72      1.0000 0.62406  0.67264  0.20980  Biso   1.000  O
  C72      1.0000 0.62330  0.75770  0.21820  Biso   1.000  C
  H72      1.0000 0.62370  0.76370  0.19650  Biso   1.000  H
  O73      1.0000 0.86792  0.08337  0.82995  Biso   1.000  O
  C73      1.0000 0.87181  0.01677  0.83032  Biso   1.000  C
  H73      1.0000 0.88590  0.02800  0.81700  Biso   1.000  H
  O74      1.0000 0.87594  0.17264  0.79020  Biso   1.000  O
  C74      1.0000 0.87670  0.25770  0.78180  Biso   1.000  C
  H74      1.0000 0.87630  0.26370  0.80350  Biso   1.000  H
  O75      1.0000 0.86792  0.58337  0.32995  Biso   1.000  O
  C75      1.0000 0.87181  0.51677  0.33032  Biso   1.000  C
  H75      1.0000 0.88590  0.52800  0.31700  Biso   1.000  H
  O76      1.0000 0.87594  0.67264  0.29020  Biso   1.000  O
  C76      1.0000 0.87670  0.75770  0.28180  Biso   1.000  C
  H76      1.0000 0.87630  0.76370  0.30350  Biso   1.000  H
  O77      1.0000 0.36792  0.08337  0.32995  Biso   1.000  O
  C77      1.0000 0.37181  0.01677  0.33032  Biso   1.000  C
  H77      1.0000 0.38590  0.02800  0.31700  Biso   1.000  H
  O78      1.0000 0.37594  0.17264  0.29020  Biso   1.000  O
  C78      1.0000 0.37670  0.25770  0.28180  Biso   1.000  C
  H78      1.0000 0.37630  0.26370  0.30350  Biso   1.000  H
  O79      1.0000 0.36792  0.58337  0.82995  Biso   1.000  O
  C79      1.0000 0.37181  0.51677  0.83032  Biso   1.000  C
  H79      1.0000 0.38590  0.52800  0.81700  Biso   1.000  H
  O80      1.0000 0.37594  0.67264  0.79020  Biso   1.000  O
  C80      1.0000 0.37670  0.75770  0.78180  Biso   1.000  C
  H80      1.0000 0.37630  0.76370  0.80350  Biso   1.000  H
  O81      1.0000 0.13208  0.91663  0.82995  Biso   1.000  O
  C81      1.0000 0.12819  0.98323  0.83032  Biso   1.000  C
  H81      1.0000 0.11410  0.97200  0.81700  Biso   1.000  H
  O82      1.0000 0.12406  0.82736  0.79020  Biso   1.000  O
  C82      1.0000 0.12330  0.74230  0.78180  Biso   1.000  C
  H82      1.0000 0.12370  0.73630  0.80350  Biso   1.000  H
  O83      1.0000 0.13208  0.41663  0.32995  Biso   1.000  O
  C83      1.0000 0.12819  0.48323  0.33032  Biso   1.000  C
  H83      1.0000 0.11410  0.47200  0.31700  Biso   1.000  H
  O84      1.0000 0.12406  0.32736  0.29020  Biso   1.000  O
  C84      1.0000 0.12330  0.24230  0.28180  Biso   1.000  C
  H84      1.0000 0.12370  0.23630  0.30350  Biso   1.000  H
  O85      1.0000 0.63208  0.91663  0.32995  Biso   1.000  O
  C85      1.0000 0.62819  0.98323  0.33032  Biso   1.000  C
  H85      1.0000 0.61410  0.97200  0.31700  Biso   1.000  H
  O86      1.0000 0.62406  0.82736  0.29020  Biso   1.000  O
  C86      1.0000 0.62330  0.74230  0.28180  Biso   1.000  C
  H86      1.0000 0.62370  0.73630  0.30350  Biso   1.000  H
  O87      1.0000 0.63208  0.41663  0.82995  Biso   1.000  O
  C87      1.0000 0.62819  0.48323  0.83032  Biso   1.000  C
  H87      1.0000 0.61410  0.47200  0.81700  Biso   1.000  H
  O88      1.0000 0.62406  0.32736  0.79020  Biso   1.000  O
  C88      1.0000 0.62330  0.24230  0.78180  Biso   1.000  C
  H88      1.0000 0.62370  0.23630  0.80350  Biso   1.000  H
  O89      1.0000 0.86792  0.91663  0.17005  Biso   1.000  O
  C89      1.0000 0.87181  0.98323  0.16968  Biso   1.000  C
  H89      1.0000 0.88590  0.97200  0.18300  Biso   1.000  H
  O90      1.0000 0.87594  0.82736  0.20980  Biso   1.000  O
  C90      1.0000 0.87670  0.74230  0.21820  Biso   1.000  C
  H90      1.0000 0.87630  0.73630  0.19650  Biso   1.000  H
  O91      1.0000 0.86792  0.41663  0.67005  Biso   1.000  O
  C91      1.0000 0.87181  0.48323  0.66968  Biso   1.000  C
  H91      1.0000 0.88590  0.47200  0.68300  Biso   1.000  H
  O92      1.0000 0.87594  0.32736  0.70980  Biso   1.000  O
  C92      1.0000 0.87670  0.24230  0.71820  Biso   1.000  C
  H92      1.0000 0.87630  0.23630  0.69650  Biso   1.000  H
  O93      1.0000 0.36792  0.91663  0.67005  Biso   1.000  O
  C93      1.0000 0.37181  0.98323  0.66968  Biso   1.000  C
  H93      1.0000 0.38590  0.97200  0.68300  Biso   1.000  H
  O94      1.0000 0.37594  0.82736  0.70980  Biso   1.000  O
  C94      1.0000 0.37670  0.74230  0.71820  Biso   1.000  C
  H94      1.0000 0.37630  0.73630  0.69650  Biso   1.000  H
  O95      1.0000 0.36792  0.41663  0.17005  Biso   1.000  O
  C95      1.0000 0.37181  0.48323  0.16968  Biso   1.000  C
  H95      1.0000 0.38590  0.47200  0.18300  Biso   1.000  H
  O96      1.0000 0.37594  0.32736  0.20980  Biso   1.000  O
  C96      1.0000 0.37670  0.24230  0.21820  Biso   1.000  C
  H96      1.0000 0.37630  0.23630  0.19650  Biso   1.000  H
  O97      1.0000 0.13208  0.17005  0.91663  Biso   1.000  O
  C97      1.0000 0.12819  0.16968  0.98323  Biso   1.000  C
  H97      1.0000 0.11410  0.18300  0.97200  Biso   1.000  H
  O98      1.0000 0.12406  0.20980  0.82736  Biso   1.000  O
  C98      1.0000 0.12330  0.21820  0.74230  Biso   1.000  C
  H98      1.0000 0.12370  0.19650  0.73630  Biso   1.000  H
  O99      1.0000 0.13208  0.67005  0.41663  Biso   1.000  O
  C99      1.0000 0.12819  0.66968  0.48323  Biso   1.000  C
  H99      1.0000 0.11410  0.68300  0.47200  Biso   1.000  H
  O100     1.0000 0.12406  0.70980  0.32736  Biso   1.000  O
  C100     1.0000 0.12330  0.71820  0.24230  Biso   1.000  C
  H100     1.0000 0.12370  0.69650  0.23630  Biso   1.000  H
  O101     1.0000 0.63208  0.17005  0.41663  Biso   1.000  O
  C101     1.0000 0.62819  0.16968  0.48323  Biso   1.000  C
  H101     1.0000 0.61410  0.18300  0.47200  Biso   1.000  H
  O102     1.0000 0.62406  0.20980  0.32736  Biso   1.000  O
  C102     1.0000 0.62330  0.21820  0.24230  Biso   1.000  C
  H102     1.0000 0.62370  0.19650  0.23630  Biso   1.000  H
  O103     1.0000 0.63208  0.67005  0.91663  Biso   1.000  O
  C103     1.0000 0.62819  0.66968  0.98323  Biso   1.000  C
  H103     1.0000 0.61410  0.68300  0.97200  Biso   1.000  H
  O104     1.0000 0.62406  0.70980  0.82736  Biso   1.000  O
  C104     1.0000 0.62330  0.71820  0.74230  Biso   1.000  C
  H104     1.0000 0.62370  0.69650  0.73630  Biso   1.000  H
  O105     1.0000 0.86792  0.82995  0.91663  Biso   1.000  O
  C105     1.0000 0.87181  0.83032  0.98323  Biso   1.000  C
  H105     1.0000 0.88590  0.81700  0.97200  Biso   1.000  H
  O106     1.0000 0.87594  0.79020  0.82736  Biso   1.000  O
  C106     1.0000 0.87670  0.78180  0.74230  Biso   1.000  C
  H106     1.0000 0.87630  0.80350  0.73630  Biso   1.000  H
  O107     1.0000 0.86792  0.32995  0.41663  Biso   1.000  O
  C107     1.0000 0.87181  0.33032  0.48323  Biso   1.000  C
  H107     1.0000 0.88590  0.31700  0.47200  Biso   1.000  H
  O108     1.0000 0.87594  0.29020  0.32736  Biso   1.000  O
  C108     1.0000 0.87670  0.28180  0.24230  Biso   1.000  C
  H108     1.0000 0.87630  0.30350  0.23630  Biso   1.000  H
  O109     1.0000 0.36792  0.82995  0.41663  Biso   1.000  O
  C109     1.0000 0.37181  0.83032  0.48323  Biso   1.000  C
  H109     1.0000 0.38590  0.81700  0.47200  Biso   1.000  H
  O110     1.0000 0.37594  0.79020  0.32736  Biso   1.000  O
  C110     1.0000 0.37670  0.78180  0.24230  Biso   1.000  C
  H110     1.0000 0.37630  0.80350  0.23630  Biso   1.000  H
  O111     1.0000 0.36792  0.32995  0.91663  Biso   1.000  O
  C111     1.0000 0.37181  0.33032  0.98323  Biso   1.000  C
  H111     1.0000 0.38590  0.31700  0.97200  Biso   1.000  H
  O112     1.0000 0.37594  0.29020  0.82736  Biso   1.000  O
  C112     1.0000 0.37670  0.28180  0.74230  Biso   1.000  C
  H112     1.0000 0.37630  0.30350  0.73630  Biso   1.000  H
  O113     1.0000 0.13208  0.82995  0.08337  Biso   1.000  O
  C113     1.0000 0.12819  0.83032  0.01677  Biso   1.000  C
  H113     1.0000 0.11410  0.81700  0.02800  Biso   1.000  H
  O114     1.0000 0.12406  0.79020  0.17264  Biso   1.000  O
  C114     1.0000 0.12330  0.78180  0.25770  Biso   1.000  C
  H114     1.0000 0.12370  0.80350  0.26370  Biso   1.000  H
  O115     1.0000 0.13208  0.32995  0.58337  Biso   1.000  O
  C115     1.0000 0.12819  0.33032  0.51677  Biso   1.000  C
  H115     1.0000 0.11410  0.31700  0.52800  Biso   1.000  H
  O116     1.0000 0.12406  0.29020  0.67264  Biso   1.000  O
  C116     1.0000 0.12330  0.28180  0.75770  Biso   1.000  C
  H116     1.0000 0.12370  0.30350  0.76370  Biso   1.000  H
  O117     1.0000 0.63208  0.82995  0.58337  Biso   1.000  O
  C117     1.0000 0.62819  0.83032  0.51677  Biso   1.000  C
  H117     1.0000 0.61410  0.81700  0.52800  Biso   1.000  H
  O118     1.0000 0.62406  0.79020  0.67264  Biso   1.000  O
  C118     1.0000 0.62330  0.78180  0.75770  Biso   1.000  C
  H118     1.0000 0.62370  0.80350  0.76370  Biso   1.000  H
  O119     1.0000 0.63208  0.32995  0.08337  Biso   1.000  O
  C119     1.0000 0.62819  0.33032  0.01677  Biso   1.000  C
  H119     1.0000 0.61410  0.31700  0.02800  Biso   1.000  H
  O120     1.0000 0.62406  0.29020  0.17264  Biso   1.000  O
  C120     1.0000 0.62330  0.28180  0.25770  Biso   1.000  C
  H120     1.0000 0.62370  0.30350  0.26370  Biso   1.000  H
  O121     1.0000 0.86792  0.17005  0.08337  Biso   1.000  O
  C121     1.0000 0.87181  0.16968  0.01677  Biso   1.000  C
  H121     1.0000 0.88590  0.18300  0.02800  Biso   1.000  H
  O122     1.0000 0.87594  0.20980  0.17264  Biso   1.000  O
  C122     1.0000 0.87670  0.21820  0.25770  Biso   1.000  C
  H122     1.0000 0.87630  0.19650  0.26370  Biso   1.000  H
  O123     1.0000 0.86792  0.67005  0.58337  Biso   1.000  O
  C123     1.0000 0.87181  0.66968  0.51677  Biso   1.000  C
  H123     1.0000 0.88590  0.68300  0.52800  Biso   1.000  H
  O124     1.0000 0.87594  0.70980  0.67264  Biso   1.000  O
  C124     1.0000 0.87670  0.71820  0.75770  Biso   1.000  C
  H124     1.0000 0.87630  0.69650  0.76370  Biso   1.000  H
  O125     1.0000 0.36792  0.17005  0.58337  Biso   1.000  O
  C125     1.0000 0.37181  0.16968  0.51677  Biso   1.000  C
  H125     1.0000 0.38590  0.18300  0.52800  Biso   1.000  H
  O126     1.0000 0.37594  0.20980  0.67264  Biso   1.000  O
  C126     1.0000 0.37670  0.21820  0.75770  Biso   1.000  C
  H126     1.0000 0.37630  0.19650  0.76370  Biso   1.000  H
  O127     1.0000 0.36792  0.67005  0.08337  Biso   1.000  O
  C127     1.0000 0.37181  0.66968  0.01677  Biso   1.000  C
  H127     1.0000 0.38590  0.68300  0.02800  Biso   1.000  H
  O128     1.0000 0.37594  0.70980  0.17264  Biso   1.000  O
  C128     1.0000 0.37670  0.71820  0.25770  Biso   1.000  C
  H128     1.0000 0.37630  0.69650  0.26370  Biso   1.000  H
  O129     1.0000 0.17005  0.08337  0.86792  Biso   1.000  O
  C129     1.0000 0.16968  0.01677  0.87181  Biso   1.000  C
  H129     1.0000 0.18300  0.02800  0.88590  Biso   1.000  H
  O130     1.0000 0.20980  0.17264  0.87594  Biso   1.000  O
  C130     1.0000 0.21820  0.25770  0.87670  Biso   1.000  C
  H130     1.0000 0.19650  0.26370  0.87630  Biso   1.000  H
  O131     1.0000 0.17005  0.58337  0.36792  Biso   1.000  O
  C131     1.0000 0.16968  0.51677  0.37181  Biso   1.000  C
  H131     1.0000 0.18300  0.52800  0.38590  Biso   1.000  H
  O132     1.0000 0.20980  0.67264  0.37594  Biso   1.000  O
  C132     1.0000 0.21820  0.75770  0.37670  Biso   1.000  C
  H132     1.0000 0.19650  0.76370  0.37630  Biso   1.000  H
  O133     1.0000 0.67005  0.08337  0.36792  Biso   1.000  O
  C133     1.0000 0.66968  0.01677  0.37181  Biso   1.000  C
  H133     1.0000 0.68300  0.02800  0.38590  Biso   1.000  H
  O134     1.0000 0.70980  0.17264  0.37594  Biso   1.000  O
  C134     1.0000 0.71820  0.25770  0.37670  Biso   1.000  C
  H134     1.0000 0.69650  0.26370  0.37630  Biso   1.000  H
  O135     1.0000 0.67005  0.58337  0.86792  Biso   1.000  O
  C135     1.0000 0.66968  0.51677  0.87181  Biso   1.000  C
  H135     1.0000 0.68300  0.52800  0.88590  Biso   1.000  H
  O136     1.0000 0.70980  0.67264  0.87594  Biso   1.000  O
  C136     1.0000 0.71820  0.75770  0.87670  Biso   1.000  C
  H136     1.0000 0.69650  0.76370  0.87630  Biso   1.000  H
  O137     1.0000 0.82995  0.08337  0.13208  Biso   1.000  O
  C137     1.0000 0.83032  0.01677  0.12819  Biso   1.000  C
  H137     1.0000 0.81700  0.02800  0.11410  Biso   1.000  H
  O138     1.0000 0.79020  0.17264  0.12406  Biso   1.000  O
  C138     1.0000 0.78180  0.25770  0.12330  Biso   1.000  C
  H138     1.0000 0.80350  0.26370  0.12370  Biso   1.000  H
  O139     1.0000 0.82995  0.58337  0.63208  Biso   1.000  O
  C139     1.0000 0.83032  0.51677  0.62819  Biso   1.000  C
  H139     1.0000 0.81700  0.52800  0.61410  Biso   1.000  H
  O140     1.0000 0.79020  0.67264  0.62406  Biso   1.000  O
  C140     1.0000 0.78180  0.75770  0.62330  Biso   1.000  C
  H140     1.0000 0.80350  0.76370  0.62370  Biso   1.000  H
  O141     1.0000 0.32995  0.08337  0.63208  Biso   1.000  O
  C141     1.0000 0.33032  0.01677  0.62819  Biso   1.000  C
  H141     1.0000 0.31700  0.02800  0.61410  Biso   1.000  H
  O142     1.0000 0.29020  0.17264  0.62406  Biso   1.000  O
  C142     1.0000 0.28180  0.25770  0.62330  Biso   1.000  C
  H142     1.0000 0.30350  0.26370  0.62370  Biso   1.000  H
  O143     1.0000 0.32995  0.58337  0.13208  Biso   1.000  O
  C143     1.0000 0.33032  0.51677  0.12819  Biso   1.000  C
  H143     1.0000 0.31700  0.52800  0.11410  Biso   1.000  H
  O144     1.0000 0.29020  0.67264  0.12406  Biso   1.000  O
  C144     1.0000 0.28180  0.75770  0.12330  Biso   1.000  C
  H144     1.0000 0.30350  0.76370  0.12370  Biso   1.000  H
  O145     1.0000 0.82995  0.91663  0.86792  Biso   1.000  O
  C145     1.0000 0.83032  0.98323  0.87181  Biso   1.000  C
  H145     1.0000 0.81700  0.97200  0.88590  Biso   1.000  H
  O146     1.0000 0.79020  0.82736  0.87594  Biso   1.000  O
  C146     1.0000 0.78180  0.74230  0.87670  Biso   1.000  C
  H146     1.0000 0.80350  0.73630  0.87630  Biso   1.000  H
  O147     1.0000 0.82995  0.41663  0.36792  Biso   1.000  O
  C147     1.0000 0.83032  0.48323  0.37181  Biso   1.000  C
  H147     1.0000 0.81700  0.47200  0.38590  Biso   1.000  H
  O148     1.0000 0.79020  0.32736  0.37594  Biso   1.000  O
  C148     1.0000 0.78180  0.24230  0.37670  Biso   1.000  C
  H148     1.0000 0.80350  0.23630  0.37630  Biso   1.000  H
  O149     1.0000 0.32995  0.91663  0.36792  Biso   1.000  O
  C149     1.0000 0.33032  0.98323  0.37181  Biso   1.000  C
  H149     1.0000 0.31700  0.97200  0.38590  Biso   1.000  H
  O150     1.0000 0.29020  0.82736  0.37594  Biso   1.000  O
  C150     1.0000 0.28180  0.74230  0.37670  Biso   1.000  C
  H150     1.0000 0.30350  0.73630  0.37630  Biso   1.000  H
  O151     1.0000 0.32995  0.41663  0.86792  Biso   1.000  O
  C151     1.0000 0.33032  0.48323  0.87181  Biso   1.000  C
  H151     1.0000 0.31700  0.47200  0.88590  Biso   1.000  H
  O152     1.0000 0.29020  0.32736  0.87594  Biso   1.000  O
  C152     1.0000 0.28180  0.24230  0.87670  Biso   1.000  C
  H152     1.0000 0.30350  0.23630  0.87630  Biso   1.000  H
  O153     1.0000 0.17005  0.91663  0.13208  Biso   1.000  O
  C153     1.0000 0.16968  0.98323  0.12819  Biso   1.000  C
  H153     1.0000 0.18300  0.97200  0.11410  Biso   1.000  H
  O154     1.0000 0.20980  0.82736  0.12406  Biso   1.000  O
  C154     1.0000 0.21820  0.74230  0.12330  Biso   1.000  C
  H154     1.0000 0.19650  0.73630  0.12370  Biso   1.000  H
  O155     1.0000 0.17005  0.41663  0.63208  Biso   1.000  O
  C155     1.0000 0.16968  0.48323  0.62819  Biso   1.000  C
  H155     1.0000 0.18300  0.47200  0.61410  Biso   1.000  H
  O156     1.0000 0.20980  0.32736  0.62406  Biso   1.000  O
  C156     1.0000 0.21820  0.24230  0.62330  Biso   1.000  C
  H156     1.0000 0.19650  0.23630  0.62370  Biso   1.000  H
  O157     1.0000 0.67005  0.91663  0.63208  Biso   1.000  O
  C157     1.0000 0.66968  0.98323  0.62819  Biso   1.000  C
  H157     1.0000 0.68300  0.97200  0.61410  Biso   1.000  H
  O158     1.0000 0.70980  0.82736  0.62406  Biso   1.000  O
  C158     1.0000 0.71820  0.74230  0.62330  Biso   1.000  C
  H158     1.0000 0.69650  0.73630  0.62370  Biso   1.000  H
  O159     1.0000 0.67005  0.41663  0.13208  Biso   1.000  O
  C159     1.0000 0.66968  0.48323  0.12819  Biso   1.000  C
  H159     1.0000 0.68300  0.47200  0.11410  Biso   1.000  H
  O160     1.0000 0.70980  0.32736  0.12406  Biso   1.000  O
  C160     1.0000 0.71820  0.24230  0.12330  Biso   1.000  C
  H160     1.0000 0.69650  0.23630  0.12370  Biso   1.000  H
  O161     1.0000 0.08337  0.13208  0.82995  Biso   1.000  O
  C161     1.0000 0.01677  0.12819  0.83032  Biso   1.000  C
  H161     1.0000 0.02800  0.11410  0.81700  Biso   1.000  H
  O162     1.0000 0.17264  0.12406  0.79020  Biso   1.000  O
  C162     1.0000 0.25770  0.12330  0.78180  Biso   1.000  C
  H162     1.0000 0.26370  0.12370  0.80350  Biso   1.000  H
  O163     1.0000 0.08337  0.63208  0.32995  Biso   1.000  O
  C163     1.0000 0.01677  0.62819  0.33032  Biso   1.000  C
  H163     1.0000 0.02800  0.61410  0.31700  Biso   1.000  H
  O164     1.0000 0.17264  0.62406  0.29020  Biso   1.000  O
  C164     1.0000 0.25770  0.62330  0.28180  Biso   1.000  C
  H164     1.0000 0.26370  0.62370  0.30350  Biso   1.000  H
  O165     1.0000 0.58337  0.13208  0.32995  Biso   1.000  O
  C165     1.0000 0.51677  0.12819  0.33032  Biso   1.000  C
  H165     1.0000 0.52800  0.11410  0.31700  Biso   1.000  H
  O166     1.0000 0.67264  0.12406  0.29020  Biso   1.000  O
  C166     1.0000 0.75770  0.12330  0.28180  Biso   1.000  C
  H166     1.0000 0.76370  0.12370  0.30350  Biso   1.000  H
  O167     1.0000 0.58337  0.63208  0.82995  Biso   1.000  O
  C167     1.0000 0.51677  0.62819  0.83032  Biso   1.000  C
  H167     1.0000 0.52800  0.61410  0.81700  Biso   1.000  H
  O168     1.0000 0.67264  0.62406  0.79020  Biso   1.000  O
  C168     1.0000 0.75770  0.62330  0.78180  Biso   1.000  C
  H168     1.0000 0.76370  0.62370  0.80350  Biso   1.000  H
  O169     1.0000 0.08337  0.86792  0.17005  Biso   1.000  O
  C169     1.0000 0.01677  0.87181  0.16968  Biso   1.000  C
  H169     1.0000 0.02800  0.88590  0.18300  Biso   1.000  H
  O170     1.0000 0.17264  0.87594  0.20980  Biso   1.000  O
  C170     1.0000 0.25770  0.87670  0.21820  Biso   1.000  C
  H170     1.0000 0.26370  0.87630  0.19650  Biso   1.000  H
  O171     1.0000 0.08337  0.36792  0.67005  Biso   1.000  O
  C171     1.0000 0.01677  0.37181  0.66968  Biso   1.000  C
  H171     1.0000 0.02800  0.38590  0.68300  Biso   1.000  H
  O172     1.0000 0.17264  0.37594  0.70980  Biso   1.000  O
  C172     1.0000 0.25770  0.37670  0.71820  Biso   1.000  C
  H172     1.0000 0.26370  0.37630  0.69650  Biso   1.000  H
  O173     1.0000 0.58337  0.86792  0.67005  Biso   1.000  O
  C173     1.0000 0.51677  0.87181  0.66968  Biso   1.000  C
  H173     1.0000 0.52800  0.88590  0.68300  Biso   1.000  H
  O174     1.0000 0.67264  0.87594  0.70980  Biso   1.000  O
  C174     1.0000 0.75770  0.87670  0.71820  Biso   1.000  C
  H174     1.0000 0.76370  0.87630  0.69650  Biso   1.000  H
  O175     1.0000 0.58337  0.36792  0.17005  Biso   1.000  O
  C175     1.0000 0.51677  0.37181  0.16968  Biso   1.000  C
  H175     1.0000 0.52800  0.38590  0.18300  Biso   1.000  H
  O176     1.0000 0.67264  0.37594  0.20980  Biso   1.000  O
  C176     1.0000 0.75770  0.37670  0.21820  Biso   1.000  C
  H176     1.0000 0.76370  0.37630  0.19650  Biso   1.000  H
  O177     1.0000 0.91663  0.13208  0.17005  Biso   1.000  O
  C177     1.0000 0.98323  0.12819  0.16968  Biso   1.000  C
  H177     1.0000 0.97200  0.11410  0.18300  Biso   1.000  H
  O178     1.0000 0.82736  0.12406  0.20980  Biso   1.000  O
  C178     1.0000 0.74230  0.12330  0.21820  Biso   1.000  C
  H178     1.0000 0.73630  0.12370  0.19650  Biso   1.000  H
  O179     1.0000 0.91663  0.63208  0.67005  Biso   1.000  O
  C179     1.0000 0.98323  0.62819  0.66968  Biso   1.000  C
  H179     1.0000 0.97200  0.61410  0.68300  Biso   1.000  H
  O180     1.0000 0.82736  0.62406  0.70980  Biso   1.000  O
  C180     1.0000 0.74230  0.62330  0.71820  Biso   1.000  C
  H180     1.0000 0.73630  0.62370  0.69650  Biso   1.000  H
  O181     1.0000 0.41663  0.13208  0.67005  Biso   1.000  O
  C181     1.0000 0.48323  0.12819  0.66968  Biso   1.000  C
  H181     1.0000 0.47200  0.11410  0.68300  Biso   1.000  H
  O182     1.0000 0.32736  0.12406  0.70980  Biso   1.000  O
  C182     1.0000 0.24230  0.12330  0.71820  Biso   1.000  C
  H182     1.0000 0.23630  0.12370  0.69650  Biso   1.000  H
  O183     1.0000 0.41663  0.63208  0.17005  Biso   1.000  O
  C183     1.0000 0.48323  0.62819  0.16968  Biso   1.000  C
  H183     1.0000 0.47200  0.61410  0.18300  Biso   1.000  H
  O184     1.0000 0.32736  0.62406  0.20980  Biso   1.000  O
  C184     1.0000 0.24230  0.62330  0.21820  Biso   1.000  C
  H184     1.0000 0.23630  0.62370  0.19650  Biso   1.000  H
  O185     1.0000 0.91663  0.86792  0.82995  Biso   1.000  O
  C185     1.0000 0.98323  0.87181  0.83032  Biso   1.000  C
  H185     1.0000 0.97200  0.88590  0.81700  Biso   1.000  H
  O186     1.0000 0.82736  0.87594  0.79020  Biso   1.000  O
  C186     1.0000 0.74230  0.87670  0.78180  Biso   1.000  C
  H186     1.0000 0.73630  0.87630  0.80350  Biso   1.000  H
  O187     1.0000 0.91663  0.36792  0.32995  Biso   1.000  O
  C187     1.0000 0.98323  0.37181  0.33032  Biso   1.000  C
  H187     1.0000 0.97200  0.38590  0.31700  Biso   1.000  H
  O188     1.0000 0.82736  0.37594  0.29020  Biso   1.000  O
  C188     1.0000 0.74230  0.37670  0.28180  Biso   1.000  C
  H188     1.0000 0.73630  0.37630  0.30350  Biso   1.000  H
  O189     1.0000 0.41663  0.86792  0.32995  Biso   1.000  O
  C189     1.0000 0.48323  0.87181  0.33032  Biso   1.000  C
  H189     1.0000 0.47200  0.88590  0.31700  Biso   1.000  H
  O190     1.0000 0.32736  0.87594  0.29020  Biso   1.000  O
  C190     1.0000 0.24230  0.87670  0.28180  Biso   1.000  C
  H190     1.0000 0.23630  0.87630  0.30350  Biso   1.000  H
  O191     1.0000 0.41663  0.36792  0.82995  Biso   1.000  O
  C191     1.0000 0.48323  0.37181  0.83032  Biso   1.000  C
  H191     1.0000 0.47200  0.38590  0.81700  Biso   1.000  H
  O192     1.0000 0.32736  0.37594  0.79020  Biso   1.000  O
  C192     1.0000 0.24230  0.37670  0.78180  Biso   1.000  C
  H192     1.0000 0.23630  0.37630  0.80350  Biso   1.000  H
  O193     1.0000 0.82995  0.86792  0.91663  Biso   1.000  O
  C193     1.0000 0.83032  0.87181  0.98323  Biso   1.000  C
  H193     1.0000 0.81700  0.88590  0.97200  Biso   1.000  H
  O194     1.0000 0.79020  0.87594  0.82736  Biso   1.000  O
  C194     1.0000 0.78180  0.87670  0.74230  Biso   1.000  C
  H194     1.0000 0.80350  0.87630  0.73630  Biso   1.000  H
  O195     1.0000 0.82995  0.36792  0.41663  Biso   1.000  O
  C195     1.0000 0.83032  0.37181  0.48323  Biso   1.000  C
  H195     1.0000 0.81700  0.38590  0.47200  Biso   1.000  H
  O196     1.0000 0.79020  0.37594  0.32736  Biso   1.000  O
  C196     1.0000 0.78180  0.37670  0.24230  Biso   1.000  C
  H196     1.0000 0.80350  0.37630  0.23630  Biso   1.000  H
  O197     1.0000 0.32995  0.86792  0.41663  Biso   1.000  O
  C197     1.0000 0.33032  0.87181  0.48323  Biso   1.000  C
  H197     1.0000 0.31700  0.88590  0.47200  Biso   1.000  H
  O198     1.0000 0.29020  0.87594  0.32736  Biso   1.000  O
  C198     1.0000 0.28180  0.87670  0.24230  Biso   1.000  C
  H198     1.0000 0.30350  0.87630  0.23630  Biso   1.000  H
  O199     1.0000 0.32995  0.36792  0.91663  Biso   1.000  O
  C199     1.0000 0.33032  0.37181  0.98323  Biso   1.000  C
  H199     1.0000 0.31700  0.38590  0.97200  Biso   1.000  H
  O200     1.0000 0.29020  0.37594  0.82736  Biso   1.000  O
  C200     1.0000 0.28180  0.37670  0.74230  Biso   1.000  C
  H200     1.0000 0.30350  0.37630  0.73630  Biso   1.000  H
  O201     1.0000 0.17005  0.13208  0.91663  Biso   1.000  O
  C201     1.0000 0.16968  0.12819  0.98323  Biso   1.000  C
  H201     1.0000 0.18300  0.11410  0.97200  Biso   1.000  H
  O202     1.0000 0.20980  0.12406  0.82736  Biso   1.000  O
  C202     1.0000 0.21820  0.12330  0.74230  Biso   1.000  C
  H202     1.0000 0.19650  0.12370  0.73630  Biso   1.000  H
  O203     1.0000 0.17005  0.63208  0.41663  Biso   1.000  O
  C203     1.0000 0.16968  0.62819  0.48323  Biso   1.000  C
  H203     1.0000 0.18300  0.61410  0.47200  Biso   1.000  H
  O204     1.0000 0.20980  0.62406  0.32736  Biso   1.000  O
  C204     1.0000 0.21820  0.62330  0.24230  Biso   1.000  C
  H204     1.0000 0.19650  0.62370  0.23630  Biso   1.000  H
  O205     1.0000 0.67005  0.13208  0.41663  Biso   1.000  O
  C205     1.0000 0.66968  0.12819  0.48323  Biso   1.000  C
  H205     1.0000 0.68300  0.11410  0.47200  Biso   1.000  H
  O206     1.0000 0.70980  0.12406  0.32736  Biso   1.000  O
  C206     1.0000 0.71820  0.12330  0.24230  Biso   1.000  C
  H206     1.0000 0.69650  0.12370  0.23630  Biso   1.000  H
  O207     1.0000 0.67005  0.63208  0.91663  Biso   1.000  O
  C207     1.0000 0.66968  0.62819  0.98323  Biso   1.000  C
  H207     1.0000 0.68300  0.61410  0.97200  Biso   1.000  H
  O208     1.0000 0.70980  0.62406  0.82736  Biso   1.000  O
  C208     1.0000 0.71820  0.62330  0.74230  Biso   1.000  C
  H208     1.0000 0.69650  0.62370  0.73630  Biso   1.000  H
  O209     1.0000 0.17005  0.86792  0.08337  Biso   1.000  O
  C209     1.0000 0.16968  0.87181  0.01677  Biso   1.000  C
  H209     1.0000 0.18300  0.88590  0.02800  Biso   1.000  H
  O210     1.0000 0.20980  0.87594  0.17264  Biso   1.000  O
  C210     1.0000 0.21820  0.87670  0.25770  Biso   1.000  C
  H210     1.0000 0.19650  0.87630  0.26370  Biso   1.000  H
  O211     1.0000 0.17005  0.36792  0.58337  Biso   1.000  O
  C211     1.0000 0.16968  0.37181  0.51677  Biso   1.000  C
  H211     1.0000 0.18300  0.38590  0.52800  Biso   1.000  H
  O212     1.0000 0.20980  0.37594  0.67264  Biso   1.000  O
  C212     1.0000 0.21820  0.37670  0.75770  Biso   1.000  C
  H212     1.0000 0.19650  0.37630  0.76370  Biso   1.000  H
  O213     1.0000 0.67005  0.86792  0.58337  Biso   1.000  O
  C213     1.0000 0.66968  0.87181  0.51677  Biso   1.000  C
  H213     1.0000 0.68300  0.88590  0.52800  Biso   1.000  H
  O214     1.0000 0.70980  0.87594  0.67264  Biso   1.000  O
  C214     1.0000 0.71820  0.87670  0.75770  Biso   1.000  C
  H214     1.0000 0.69650  0.87630  0.76370  Biso   1.000  H
  O215     1.0000 0.67005  0.36792  0.08337  Biso   1.000  O
  C215     1.0000 0.66968  0.37181  0.01677  Biso   1.000  C
  H215     1.0000 0.68300  0.38590  0.02800  Biso   1.000  H
  O216     1.0000 0.70980  0.37594  0.17264  Biso   1.000  O
  C216     1.0000 0.71820  0.37670  0.25770  Biso   1.000  C
  H216     1.0000 0.69650  0.37630  0.26370  Biso   1.000  H
  O217     1.0000 0.82995  0.13208  0.08337  Biso   1.000  O
  C217     1.0000 0.83032  0.12819  0.01677  Biso   1.000  C
  H217     1.0000 0.81700  0.11410  0.02800  Biso   1.000  H
  O218     1.0000 0.79020  0.12406  0.17264  Biso   1.000  O
  C218     1.0000 0.78180  0.12330  0.25770  Biso   1.000  C
  H218     1.0000 0.80350  0.12370  0.26370  Biso   1.000  H
  O219     1.0000 0.82995  0.63208  0.58337  Biso   1.000  O
  C219     1.0000 0.83032  0.62819  0.51677  Biso   1.000  C
  H219     1.0000 0.81700  0.61410  0.52800  Biso   1.000  H
  O220     1.0000 0.79020  0.62406  0.67264  Biso   1.000  O
  C220     1.0000 0.78180  0.62330  0.75770  Biso   1.000  C
  H220     1.0000 0.80350  0.62370  0.76370  Biso   1.000  H
  O221     1.0000 0.32995  0.13208  0.58337  Biso   1.000  O
  C221     1.0000 0.33032  0.12819  0.51677  Biso   1.000  C
  H221     1.0000 0.31700  0.11410  0.52800  Biso   1.000  H
  O222     1.0000 0.29020  0.12406  0.67264  Biso   1.000  O
  C222     1.0000 0.28180  0.12330  0.75770  Biso   1.000  C
  H222     1.0000 0.30350  0.12370  0.76370  Biso   1.000  H
  O223     1.0000 0.32995  0.63208  0.08337  Biso   1.000  O
  C223     1.0000 0.33032  0.62819  0.01677  Biso   1.000  C
  H223     1.0000 0.31700  0.61410  0.02800  Biso   1.000  H
  O224     1.0000 0.29020  0.62406  0.17264  Biso   1.000  O
  C224     1.0000 0.28180  0.62330  0.25770  Biso   1.000  C
  H224     1.0000 0.30350  0.62370  0.26370  Biso   1.000  H
  O225     1.0000 0.91663  0.82995  0.86792  Biso   1.000  O
  C225     1.0000 0.98323  0.83032  0.87181  Biso   1.000  C
  H225     1.0000 0.97200  0.81700  0.88590  Biso   1.000  H
  O226     1.0000 0.82736  0.79020  0.87594  Biso   1.000  O
  C226     1.0000 0.74230  0.78180  0.87670  Biso   1.000  C
  H226     1.0000 0.73630  0.80350  0.87630  Biso   1.000  H
  O227     1.0000 0.91663  0.32995  0.36792  Biso   1.000  O
  C227     1.0000 0.98323  0.33032  0.37181  Biso   1.000  C
  H227     1.0000 0.97200  0.31700  0.38590  Biso   1.000  H
  O228     1.0000 0.82736  0.29020  0.37594  Biso   1.000  O
  C228     1.0000 0.74230  0.28180  0.37670  Biso   1.000  C
  H228     1.0000 0.73630  0.30350  0.37630  Biso   1.000  H
  O229     1.0000 0.41663  0.82995  0.36792  Biso   1.000  O
  C229     1.0000 0.48323  0.83032  0.37181  Biso   1.000  C
  H229     1.0000 0.47200  0.81700  0.38590  Biso   1.000  H
  O230     1.0000 0.32736  0.79020  0.37594  Biso   1.000  O
  C230     1.0000 0.24230  0.78180  0.37670  Biso   1.000  C
  H230     1.0000 0.23630  0.80350  0.37630  Biso   1.000  H
  O231     1.0000 0.41663  0.32995  0.86792  Biso   1.000  O
  C231     1.0000 0.48323  0.33032  0.87181  Biso   1.000  C
  H231     1.0000 0.47200  0.31700  0.88590  Biso   1.000  H
  O232     1.0000 0.32736  0.29020  0.87594  Biso   1.000  O
  C232     1.0000 0.24230  0.28180  0.87670  Biso   1.000  C
  H232     1.0000 0.23630  0.30350  0.87630  Biso   1.000  H
  O233     1.0000 0.91663  0.17005  0.13208  Biso   1.000  O
  C233     1.0000 0.98323  0.16968  0.12819  Biso   1.000  C
  H233     1.0000 0.97200  0.18300  0.11410  Biso   1.000  H
  O234     1.0000 0.82736  0.20980  0.12406  Biso   1.000  O
  C234     1.0000 0.74230  0.21820  0.12330  Biso   1.000  C
  H234     1.0000 0.73630  0.19650  0.12370  Biso   1.000  H
  O235     1.0000 0.91663  0.67005  0.63208  Biso   1.000  O
  C235     1.0000 0.98323  0.66968  0.62819  Biso   1.000  C
  H235     1.0000 0.97200  0.68300  0.61410  Biso   1.000  H
  O236     1.0000 0.82736  0.70980  0.62406  Biso   1.000  O
  C236     1.0000 0.74230  0.71820  0.62330  Biso   1.000  C
  H236     1.0000 0.73630  0.69650  0.62370  Biso   1.000  H
  O237     1.0000 0.41663  0.17005  0.63208  Biso   1.000  O
  C237     1.0000 0.48323  0.16968  0.62819  Biso   1.000  C
  H237     1.0000 0.47200  0.18300  0.61410  Biso   1.000  H
  O238     1.0000 0.32736  0.20980  0.62406  Biso   1.000  O
  C238     1.0000 0.24230  0.21820  0.62330  Biso   1.000  C
  H238     1.0000 0.23630  0.19650  0.62370  Biso   1.000  H
  O239     1.0000 0.41663  0.67005  0.13208  Biso   1.000  O
  C239     1.0000 0.48323  0.66968  0.12819  Biso   1.000  C
  H239     1.0000 0.47200  0.68300  0.11410  Biso   1.000  H
  O240     1.0000 0.32736  0.70980  0.12406  Biso   1.000  O
  C240     1.0000 0.24230  0.71820  0.12330  Biso   1.000  C
  H240     1.0000 0.23630  0.69650  0.12370  Biso   1.000  H
  O241     1.0000 0.08337  0.17005  0.86792  Biso   1.000  O
  C241     1.0000 0.01677  0.16968  0.87181  Biso   1.000  C
  H241     1.0000 0.02800  0.18300  0.88590  Biso   1.000  H
  O242     1.0000 0.17264  0.20980  0.87594  Biso   1.000  O
  C242     1.0000 0.25770  0.21820  0.87670  Biso   1.000  C
  H242     1.0000 0.26370  0.19650  0.87630  Biso   1.000  H
  O243     1.0000 0.08337  0.67005  0.36792  Biso   1.000  O
  C243     1.0000 0.01677  0.66968  0.37181  Biso   1.000  C
  H243     1.0000 0.02800  0.68300  0.38590  Biso   1.000  H
  O244     1.0000 0.17264  0.70980  0.37594  Biso   1.000  O
  C244     1.0000 0.25770  0.71820  0.37670  Biso   1.000  C
  H244     1.0000 0.26370  0.69650  0.37630  Biso   1.000  H
  O245     1.0000 0.58337  0.17005  0.36792  Biso   1.000  O
  C245     1.0000 0.51677  0.16968  0.37181  Biso   1.000  C
  H245     1.0000 0.52800  0.18300  0.38590  Biso   1.000  H
  O246     1.0000 0.67264  0.20980  0.37594  Biso   1.000  O
  C246     1.0000 0.75770  0.21820  0.37670  Biso   1.000  C
  H246     1.0000 0.76370  0.19650  0.37630  Biso   1.000  H
  O247     1.0000 0.58337  0.67005  0.86792  Biso   1.000  O
  C247     1.0000 0.51677  0.66968  0.87181  Biso   1.000  C
  H247     1.0000 0.52800  0.68300  0.88590  Biso   1.000  H
  O248     1.0000 0.67264  0.70980  0.87594  Biso   1.000  O
  C248     1.0000 0.75770  0.71820  0.87670  Biso   1.000  C
  H248     1.0000 0.76370  0.69650  0.87630  Biso   1.000  H
  O249     1.0000 0.08337  0.82995  0.13208  Biso   1.000  O
  C249     1.0000 0.01677  0.83032  0.12819  Biso   1.000  C
  H249     1.0000 0.02800  0.81700  0.11410  Biso   1.000  H
  O250     1.0000 0.17264  0.79020  0.12406  Biso   1.000  O
  C250     1.0000 0.25770  0.78180  0.12330  Biso   1.000  C
  H250     1.0000 0.26370  0.80350  0.12370  Biso   1.000  H
  O251     1.0000 0.08337  0.32995  0.63208  Biso   1.000  O
  C251     1.0000 0.01677  0.33032  0.62819  Biso   1.000  C
  H251     1.0000 0.02800  0.31700  0.61410  Biso   1.000  H
  O252     1.0000 0.17264  0.29020  0.62406  Biso   1.000  O
  C252     1.0000 0.25770  0.28180  0.62330  Biso   1.000  C
  H252     1.0000 0.26370  0.30350  0.62370  Biso   1.000  H
  O253     1.0000 0.58337  0.82995  0.63208  Biso   1.000  O
  C253     1.0000 0.51677  0.83032  0.62819  Biso   1.000  C
  H253     1.0000 0.52800  0.81700  0.61410  Biso   1.000  H
  O254     1.0000 0.67264  0.79020  0.62406  Biso   1.000  O
  C254     1.0000 0.75770  0.78180  0.62330  Biso   1.000  C
  H254     1.0000 0.76370  0.80350  0.62370  Biso   1.000  H
  O255     1.0000 0.58337  0.32995  0.13208  Biso   1.000  O
  C255     1.0000 0.51677  0.33032  0.12819  Biso   1.000  C
  H255     1.0000 0.52800  0.31700  0.11410  Biso   1.000  H
  O256     1.0000 0.67264  0.29020  0.12406  Biso   1.000  O
  C256     1.0000 0.75770  0.28180  0.12330  Biso   1.000  C
  H256     1.0000 0.76370  0.30350  0.12370  Biso   1.000  H
  O257     1.0000 0.86792  0.91663  0.82995  Biso   1.000  O
  C257     1.0000 0.87181  0.98323  0.83032  Biso   1.000  C
  H257     1.0000 0.88590  0.97200  0.81700  Biso   1.000  H
  O258     1.0000 0.87594  0.82736  0.79020  Biso   1.000  O
  C258     1.0000 0.87670  0.74230  0.78180  Biso   1.000  C
  H258     1.0000 0.87630  0.73630  0.80350  Biso   1.000  H
  O259     1.0000 0.86792  0.41663  0.32995  Biso   1.000  O
  C259     1.0000 0.87181  0.48323  0.33032  Biso   1.000  C
  H259     1.0000 0.88590  0.47200  0.31700  Biso   1.000  H
  O260     1.0000 0.87594  0.32736  0.29020  Biso   1.000  O
  C260     1.0000 0.87670  0.24230  0.28180  Biso   1.000  C
  H260     1.0000 0.87630  0.23630  0.30350  Biso   1.000  H
  O261     1.0000 0.36792  0.91663  0.32995  Biso   1.000  O
  C261     1.0000 0.37181  0.98323  0.33032  Biso   1.000  C
  H261     1.0000 0.38590  0.97200  0.31700  Biso   1.000  H
  O262     1.0000 0.37594  0.82736  0.29020  Biso   1.000  O
  C262     1.0000 0.37670  0.74230  0.28180  Biso   1.000  C
  H262     1.0000 0.37630  0.73630  0.30350  Biso   1.000  H
  O263     1.0000 0.36792  0.41663  0.82995  Biso   1.000  O
  C263     1.0000 0.37181  0.48323  0.83032  Biso   1.000  C
  H263     1.0000 0.38590  0.47200  0.81700  Biso   1.000  H
  O264     1.0000 0.37594  0.32736  0.79020  Biso   1.000  O
  C264     1.0000 0.37670  0.24230  0.78180  Biso   1.000  C
  H264     1.0000 0.37630  0.23630  0.80350  Biso   1.000  H
  O265     1.0000 0.13208  0.91663  0.17005  Biso   1.000  O
  C265     1.0000 0.12819  0.98323  0.16968  Biso   1.000  C
  H265     1.0000 0.11410  0.97200  0.18300  Biso   1.000  H
  O266     1.0000 0.12406  0.82736  0.20980  Biso   1.000  O
  C266     1.0000 0.12330  0.74230  0.21820  Biso   1.000  C
  H266     1.0000 0.12370  0.73630  0.19650  Biso   1.000  H
  O267     1.0000 0.13208  0.41663  0.67005  Biso   1.000  O
  C267     1.0000 0.12819  0.48323  0.66968  Biso   1.000  C
  H267     1.0000 0.11410  0.47200  0.68300  Biso   1.000  H
  O268     1.0000 0.12406  0.32736  0.70980  Biso   1.000  O
  C268     1.0000 0.12330  0.24230  0.71820  Biso   1.000  C
  H268     1.0000 0.12370  0.23630  0.69650  Biso   1.000  H
  O269     1.0000 0.63208  0.91663  0.67005  Biso   1.000  O
  C269     1.0000 0.62819  0.98323  0.66968  Biso   1.000  C
  H269     1.0000 0.61410  0.97200  0.68300  Biso   1.000  H
  O270     1.0000 0.62406  0.82736  0.70980  Biso   1.000  O
  C270     1.0000 0.62330  0.74230  0.71820  Biso   1.000  C
  H270     1.0000 0.62370  0.73630  0.69650  Biso   1.000  H
  O271     1.0000 0.63208  0.41663  0.17005  Biso   1.000  O
  C271     1.0000 0.62819  0.48323  0.16968  Biso   1.000  C
  H271     1.0000 0.61410  0.47200  0.18300  Biso   1.000  H
  O272     1.0000 0.62406  0.32736  0.20980  Biso   1.000  O
  C272     1.0000 0.62330  0.24230  0.21820  Biso   1.000  C
  H272     1.0000 0.62370  0.23630  0.19650  Biso   1.000  H
  O273     1.0000 0.86792  0.08337  0.17005  Biso   1.000  O
  C273     1.0000 0.87181  0.01677  0.16968  Biso   1.000  C
  H273     1.0000 0.88590  0.02800  0.18300  Biso   1.000  H
  O274     1.0000 0.87594  0.17264  0.20980  Biso   1.000  O
  C274     1.0000 0.87670  0.25770  0.21820  Biso   1.000  C
  H274     1.0000 0.87630  0.26370  0.19650  Biso   1.000  H
  O275     1.0000 0.86792  0.58337  0.67005  Biso   1.000  O
  C275     1.0000 0.87181  0.51677  0.66968  Biso   1.000  C
  H275     1.0000 0.88590  0.52800  0.68300  Biso   1.000  H
  O276     1.0000 0.87594  0.67264  0.70980  Biso   1.000  O
  C276     1.0000 0.87670  0.75770  0.71820  Biso   1.000  C
  H276     1.0000 0.87630  0.76370  0.69650  Biso   1.000  H
  O277     1.0000 0.36792  0.08337  0.67005  Biso   1.000  O
  C277     1.0000 0.37181  0.01677  0.66968  Biso   1.000  C
  H277     1.0000 0.38590  0.02800  0.68300  Biso   1.000  H
  O278     1.0000 0.37594  0.17264  0.70980  Biso   1.000  O
  C278     1.0000 0.37670  0.25770  0.71820  Biso   1.000  C
  H278     1.0000 0.37630  0.26370  0.69650  Biso   1.000  H
  O279     1.0000 0.36792  0.58337  0.17005  Biso   1.000  O
  C279     1.0000 0.37181  0.51677  0.16968  Biso   1.000  C
  H279     1.0000 0.38590  0.52800  0.18300  Biso   1.000  H
  O280     1.0000 0.37594  0.67264  0.20980  Biso   1.000  O
  C280     1.0000 0.37670  0.75770  0.21820  Biso   1.000  C
  H280     1.0000 0.37630  0.76370  0.19650  Biso   1.000  H
  O281     1.0000 0.13208  0.08337  0.82995  Biso   1.000  O
  C281     1.0000 0.12819  0.01677  0.83032  Biso   1.000  C
  H281     1.0000 0.11410  0.02800  0.81700  Biso   1.000  H
  O282     1.0000 0.12406  0.17264  0.79020  Biso   1.000  O
  C282     1.0000 0.12330  0.25770  0.78180  Biso   1.000  C
  H282     1.0000 0.12370  0.26370  0.80350  Biso   1.000  H
  O283     1.0000 0.13208  0.58337  0.32995  Biso   1.000  O
  C283     1.0000 0.12819  0.51677  0.33032  Biso   1.000  C
  H283     1.0000 0.11410  0.52800  0.31700  Biso   1.000  H
  O284     1.0000 0.12406  0.67264  0.29020  Biso   1.000  O
  C284     1.0000 0.12330  0.75770  0.28180  Biso   1.000  C
  H284     1.0000 0.12370  0.76370  0.30350  Biso   1.000  H
  O285     1.0000 0.63208  0.08337  0.32995  Biso   1.000  O
  C285     1.0000 0.62819  0.01677  0.33032  Biso   1.000  C
  H285     1.0000 0.61410  0.02800  0.31700  Biso   1.000  H
  O286     1.0000 0.62406  0.17264  0.29020  Biso   1.000  O
  C286     1.0000 0.62330  0.25770  0.28180  Biso   1.000  C
  H286     1.0000 0.62370  0.26370  0.30350  Biso   1.000  H
  O287     1.0000 0.63208  0.58337  0.82995  Biso   1.000  O
  C287     1.0000 0.62819  0.51677  0.83032  Biso   1.000  C
  H287     1.0000 0.61410  0.52800  0.81700  Biso   1.000  H
  O288     1.0000 0.62406  0.67264  0.79020  Biso   1.000  O
  C288     1.0000 0.62330  0.75770  0.78180  Biso   1.000  C
  H288     1.0000 0.62370  0.76370  0.80350  Biso   1.000  H
  O289     1.0000 0.86792  0.82995  0.08337  Biso   1.000  O
  C289     1.0000 0.87181  0.83032  0.01677  Biso   1.000  C
  H289     1.0000 0.88590  0.81700  0.02800  Biso   1.000  H
  O290     1.0000 0.87594  0.79020  0.17264  Biso   1.000  O
  C290     1.0000 0.87670  0.78180  0.25770  Biso   1.000  C
  H290     1.0000 0.87630  0.80350  0.26370  Biso   1.000  H
  O291     1.0000 0.86792  0.32995  0.58337  Biso   1.000  O
  C291     1.0000 0.87181  0.33032  0.51677  Biso   1.000  C
  H291     1.0000 0.88590  0.31700  0.52800  Biso   1.000  H
  O292     1.0000 0.87594  0.29020  0.67264  Biso   1.000  O
  C292     1.0000 0.87670  0.28180  0.75770  Biso   1.000  C
  H292     1.0000 0.87630  0.30350  0.76370  Biso   1.000  H
  O293     1.0000 0.36792  0.82995  0.58337  Biso   1.000  O
  C293     1.0000 0.37181  0.83032  0.51677  Biso   1.000  C
  H293     1.0000 0.38590  0.81700  0.52800  Biso   1.000  H
  O294     1.0000 0.37594  0.79020  0.67264  Biso   1.000  O
  C294     1.0000 0.37670  0.78180  0.75770  Biso   1.000  C
  H294     1.0000 0.37630  0.80350  0.76370  Biso   1.000  H
  O295     1.0000 0.36792  0.32995  0.08337  Biso   1.000  O
  C295     1.0000 0.37181  0.33032  0.01677  Biso   1.000  C
  H295     1.0000 0.38590  0.31700  0.02800  Biso   1.000  H
  O296     1.0000 0.37594  0.29020  0.17264  Biso   1.000  O
  C296     1.0000 0.37670  0.28180  0.25770  Biso   1.000  C
  H296     1.0000 0.37630  0.30350  0.26370  Biso   1.000  H
  O297     1.0000 0.13208  0.17005  0.08337  Biso   1.000  O
  C297     1.0000 0.12819  0.16968  0.01677  Biso   1.000  C
  H297     1.0000 0.11410  0.18300  0.02800  Biso   1.000  H
  O298     1.0000 0.12406  0.20980  0.17264  Biso   1.000  O
  C298     1.0000 0.12330  0.21820  0.25770  Biso   1.000  C
  H298     1.0000 0.12370  0.19650  0.26370  Biso   1.000  H
  O299     1.0000 0.13208  0.67005  0.58337  Biso   1.000  O
  C299     1.0000 0.12819  0.66968  0.51677  Biso   1.000  C
  H299     1.0000 0.11410  0.68300  0.52800  Biso   1.000  H
  O300     1.0000 0.12406  0.70980  0.67264  Biso   1.000  O
  C300     1.0000 0.12330  0.71820  0.75770  Biso   1.000  C
  H300     1.0000 0.12370  0.69650  0.76370  Biso   1.000  H
  O301     1.0000 0.63208  0.17005  0.58337  Biso   1.000  O
  C301     1.0000 0.62819  0.16968  0.51677  Biso   1.000  C
  H301     1.0000 0.61410  0.18300  0.52800  Biso   1.000  H
  O302     1.0000 0.62406  0.20980  0.67264  Biso   1.000  O
  C302     1.0000 0.62330  0.21820  0.75770  Biso   1.000  C
  H302     1.0000 0.62370  0.19650  0.76370  Biso   1.000  H
  O303     1.0000 0.63208  0.67005  0.08337  Biso   1.000  O
  C303     1.0000 0.62819  0.66968  0.01677  Biso   1.000  C
  H303     1.0000 0.61410  0.68300  0.02800  Biso   1.000  H
  O304     1.0000 0.62406  0.70980  0.17264  Biso   1.000  O
  C304     1.0000 0.62330  0.71820  0.25770  Biso   1.000  C
  H304     1.0000 0.62370  0.69650  0.26370  Biso   1.000  H
  O305     1.0000 0.86792  0.17005  0.91663  Biso   1.000  O
  C305     1.0000 0.87181  0.16968  0.98323  Biso   1.000  C
  H305     1.0000 0.88590  0.18300  0.97200  Biso   1.000  H
  O306     1.0000 0.87594  0.20980  0.82736  Biso   1.000  O
  C306     1.0000 0.87670  0.21820  0.74230  Biso   1.000  C
  H306     1.0000 0.87630  0.19650  0.73630  Biso   1.000  H
  O307     1.0000 0.86792  0.67005  0.41663  Biso   1.000  O
  C307     1.0000 0.87181  0.66968  0.48323  Biso   1.000  C
  H307     1.0000 0.88590  0.68300  0.47200  Biso   1.000  H
  O308     1.0000 0.87594  0.70980  0.32736  Biso   1.000  O
  C308     1.0000 0.87670  0.71820  0.24230  Biso   1.000  C
  H308     1.0000 0.87630  0.69650  0.23630  Biso   1.000  H
  O309     1.0000 0.36792  0.17005  0.41663  Biso   1.000  O
  C309     1.0000 0.37181  0.16968  0.48323  Biso   1.000  C
  H309     1.0000 0.38590  0.18300  0.47200  Biso   1.000  H
  O310     1.0000 0.37594  0.20980  0.32736  Biso   1.000  O
  C310     1.0000 0.37670  0.21820  0.24230  Biso   1.000  C
  H310     1.0000 0.37630  0.19650  0.23630  Biso   1.000  H
  O311     1.0000 0.36792  0.67005  0.91663  Biso   1.000  O
  C311     1.0000 0.37181  0.66968  0.98323  Biso   1.000  C
  H311     1.0000 0.38590  0.68300  0.97200  Biso   1.000  H
  O312     1.0000 0.37594  0.70980  0.82736  Biso   1.000  O
  C312     1.0000 0.37670  0.71820  0.74230  Biso   1.000  C
  H312     1.0000 0.37630  0.69650  0.73630  Biso   1.000  H
  O313     1.0000 0.13208  0.82995  0.91663  Biso   1.000  O
  C313     1.0000 0.12819  0.83032  0.98323  Biso   1.000  C
  H313     1.0000 0.11410  0.81700  0.97200  Biso   1.000  H
  O314     1.0000 0.12406  0.79020  0.82736  Biso   1.000  O
  C314     1.0000 0.12330  0.78180  0.74230  Biso   1.000  C
  H314     1.0000 0.12370  0.80350  0.73630  Biso   1.000  H
  O315     1.0000 0.13208  0.32995  0.41663  Biso   1.000  O
  C315     1.0000 0.12819  0.33032  0.48323  Biso   1.000  C
  H315     1.0000 0.11410  0.31700  0.47200  Biso   1.000  H
  O316     1.0000 0.12406  0.29020  0.32736  Biso   1.000  O
  C316     1.0000 0.12330  0.28180  0.24230  Biso   1.000  C
  H316     1.0000 0.12370  0.30350  0.23630  Biso   1.000  H
  O317     1.0000 0.63208  0.82995  0.41663  Biso   1.000  O
  C317     1.0000 0.62819  0.83032  0.48323  Biso   1.000  C
  H317     1.0000 0.61410  0.81700  0.47200  Biso   1.000  H
  O318     1.0000 0.62406  0.79020  0.32736  Biso   1.000  O
  C318     1.0000 0.62330  0.78180  0.24230  Biso   1.000  C
  H318     1.0000 0.62370  0.80350  0.23630  Biso   1.000  H
  O319     1.0000 0.63208  0.32995  0.91663  Biso   1.000  O
  C319     1.0000 0.62819  0.33032  0.98323  Biso   1.000  C
  H319     1.0000 0.61410  0.31700  0.97200  Biso   1.000  H
  O320     1.0000 0.62406  0.29020  0.82736  Biso   1.000  O
  C320     1.0000 0.62330  0.28180  0.74230  Biso   1.000  C
  H320     1.0000 0.62370  0.30350  0.73630  Biso   1.000  H
  O321     1.0000 0.82995  0.91663  0.13208  Biso   1.000  O
  C321     1.0000 0.83032  0.98323  0.12819  Biso   1.000  C
  H321     1.0000 0.81700  0.97200  0.11410  Biso   1.000  H
  O322     1.0000 0.79020  0.82736  0.12406  Biso   1.000  O
  C322     1.0000 0.78180  0.74230  0.12330  Biso   1.000  C
  H322     1.0000 0.80350  0.73630  0.12370  Biso   1.000  H
  O323     1.0000 0.82995  0.41663  0.63208  Biso   1.000  O
  C323     1.0000 0.83032  0.48323  0.62819  Biso   1.000  C
  H323     1.0000 0.81700  0.47200  0.61410  Biso   1.000  H
  O324     1.0000 0.79020  0.32736  0.62406  Biso   1.000  O
  C324     1.0000 0.78180  0.24230  0.62330  Biso   1.000  C
  H324     1.0000 0.80350  0.23630  0.62370  Biso   1.000  H
  O325     1.0000 0.32995  0.91663  0.63208  Biso   1.000  O
  C325     1.0000 0.33032  0.98323  0.62819  Biso   1.000  C
  H325     1.0000 0.31700  0.97200  0.61410  Biso   1.000  H
  O326     1.0000 0.29020  0.82736  0.62406  Biso   1.000  O
  C326     1.0000 0.28180  0.74230  0.62330  Biso   1.000  C
  H326     1.0000 0.30350  0.73630  0.62370  Biso   1.000  H
  O327     1.0000 0.32995  0.41663  0.13208  Biso   1.000  O
  C327     1.0000 0.33032  0.48323  0.12819  Biso   1.000  C
  H327     1.0000 0.31700  0.47200  0.11410  Biso   1.000  H
  O328     1.0000 0.29020  0.32736  0.12406  Biso   1.000  O
  C328     1.0000 0.28180  0.24230  0.12330  Biso   1.000  C
  H328     1.0000 0.30350  0.23630  0.12370  Biso   1.000  H
  O329     1.0000 0.17005  0.91663  0.86792  Biso   1.000  O
  C329     1.0000 0.16968  0.98323  0.87181  Biso   1.000  C
  H329     1.0000 0.18300  0.97200  0.88590  Biso   1.000  H
  O330     1.0000 0.20980  0.82736  0.87594  Biso   1.000  O
  C330     1.0000 0.21820  0.74230  0.87670  Biso   1.000  C
  H330     1.0000 0.19650  0.73630  0.87630  Biso   1.000  H
  O331     1.0000 0.17005  0.41663  0.36792  Biso   1.000  O
  C331     1.0000 0.16968  0.48323  0.37181  Biso   1.000  C
  H331     1.0000 0.18300  0.47200  0.38590  Biso   1.000  H
  O332     1.0000 0.20980  0.32736  0.37594  Biso   1.000  O
  C332     1.0000 0.21820  0.24230  0.37670  Biso   1.000  C
  H332     1.0000 0.19650  0.23630  0.37630  Biso   1.000  H
  O333     1.0000 0.67005  0.91663  0.36792  Biso   1.000  O
  C333     1.0000 0.66968  0.98323  0.37181  Biso   1.000  C
  H333     1.0000 0.68300  0.97200  0.38590  Biso   1.000  H
  O334     1.0000 0.70980  0.82736  0.37594  Biso   1.000  O
  C334     1.0000 0.71820  0.74230  0.37670  Biso   1.000  C
  H334     1.0000 0.69650  0.73630  0.37630  Biso   1.000  H
  O335     1.0000 0.67005  0.41663  0.86792  Biso   1.000  O
  C335     1.0000 0.66968  0.48323  0.87181  Biso   1.000  C
  H335     1.0000 0.68300  0.47200  0.88590  Biso   1.000  H
  O336     1.0000 0.70980  0.32736  0.87594  Biso   1.000  O
  C336     1.0000 0.71820  0.24230  0.87670  Biso   1.000  C
  H336     1.0000 0.69650  0.23630  0.87630  Biso   1.000  H
  O337     1.0000 0.17005  0.08337  0.13208  Biso   1.000  O
  C337     1.0000 0.16968  0.01677  0.12819  Biso   1.000  C
  H337     1.0000 0.18300  0.02800  0.11410  Biso   1.000  H
  O338     1.0000 0.20980  0.17264  0.12406  Biso   1.000  O
  C338     1.0000 0.21820  0.25770  0.12330  Biso   1.000  C
  H338     1.0000 0.19650  0.26370  0.12370  Biso   1.000  H
  O339     1.0000 0.17005  0.58337  0.63208  Biso   1.000  O
  C339     1.0000 0.16968  0.51677  0.62819  Biso   1.000  C
  H339     1.0000 0.18300  0.52800  0.61410  Biso   1.000  H
  O340     1.0000 0.20980  0.67264  0.62406  Biso   1.000  O
  C340     1.0000 0.21820  0.75770  0.62330  Biso   1.000  C
  H340     1.0000 0.19650  0.76370  0.62370  Biso   1.000  H
  O341     1.0000 0.67005  0.08337  0.63208  Biso   1.000  O
  C341     1.0000 0.66968  0.01677  0.62819  Biso   1.000  C
  H341     1.0000 0.68300  0.02800  0.61410  Biso   1.000  H
  O342     1.0000 0.70980  0.17264  0.62406  Biso   1.000  O
  C342     1.0000 0.71820  0.25770  0.62330  Biso   1.000  C
  H342     1.0000 0.69650  0.26370  0.62370  Biso   1.000  H
  O343     1.0000 0.67005  0.58337  0.13208  Biso   1.000  O
  C343     1.0000 0.66968  0.51677  0.12819  Biso   1.000  C
  H343     1.0000 0.68300  0.52800  0.11410  Biso   1.000  H
  O344     1.0000 0.70980  0.67264  0.12406  Biso   1.000  O
  C344     1.0000 0.71820  0.75770  0.12330  Biso   1.000  C
  H344     1.0000 0.69650  0.76370  0.12370  Biso   1.000  H
  O345     1.0000 0.82995  0.08337  0.86792  Biso   1.000  O
  C345     1.0000 0.83032  0.01677  0.87181  Biso   1.000  C
  H345     1.0000 0.81700  0.02800  0.88590  Biso   1.000  H
  O346     1.0000 0.79020  0.17264  0.87594  Biso   1.000  O
  C346     1.0000 0.78180  0.25770  0.87670  Biso   1.000  C
  H346     1.0000 0.80350  0.26370  0.87630  Biso   1.000  H
  O347     1.0000 0.82995  0.58337  0.36792  Biso   1.000  O
  C347     1.0000 0.83032  0.51677  0.37181  Biso   1.000  C
  H347     1.0000 0.81700  0.52800  0.38590  Biso   1.000  H
  O348     1.0000 0.79020  0.67264  0.37594  Biso   1.000  O
  C348     1.0000 0.78180  0.75770  0.37670  Biso   1.000  C
  H348     1.0000 0.80350  0.76370  0.37630  Biso   1.000  H
  O349     1.0000 0.32995  0.08337  0.36792  Biso   1.000  O
  C349     1.0000 0.33032  0.01677  0.37181  Biso   1.000  C
  H349     1.0000 0.31700  0.02800  0.38590  Biso   1.000  H
  O350     1.0000 0.29020  0.17264  0.37594  Biso   1.000  O
  C350     1.0000 0.28180  0.25770  0.37670  Biso   1.000  C
  H350     1.0000 0.30350  0.26370  0.37630  Biso   1.000  H
  O351     1.0000 0.32995  0.58337  0.86792  Biso   1.000  O
  C351     1.0000 0.33032  0.51677  0.87181  Biso   1.000  C
  H351     1.0000 0.31700  0.52800  0.88590  Biso   1.000  H
  O352     1.0000 0.29020  0.67264  0.87594  Biso   1.000  O
  C352     1.0000 0.28180  0.75770  0.87670  Biso   1.000  C
  H352     1.0000 0.30350  0.76370  0.87630  Biso   1.000  H
  O353     1.0000 0.91663  0.86792  0.17005  Biso   1.000  O
  C353     1.0000 0.98323  0.87181  0.16968  Biso   1.000  C
  H353     1.0000 0.97200  0.88590  0.18300  Biso   1.000  H
  O354     1.0000 0.82736  0.87594  0.20980  Biso   1.000  O
  C354     1.0000 0.74230  0.87670  0.21820  Biso   1.000  C
  H354     1.0000 0.73630  0.87630  0.19650  Biso   1.000  H
  O355     1.0000 0.91663  0.36792  0.67005  Biso   1.000  O
  C355     1.0000 0.98323  0.37181  0.66968  Biso   1.000  C
  H355     1.0000 0.97200  0.38590  0.68300  Biso   1.000  H
  O356     1.0000 0.82736  0.37594  0.70980  Biso   1.000  O
  C356     1.0000 0.74230  0.37670  0.71820  Biso   1.000  C
  H356     1.0000 0.73630  0.37630  0.69650  Biso   1.000  H
  O357     1.0000 0.41663  0.86792  0.67005  Biso   1.000  O
  C357     1.0000 0.48323  0.87181  0.66968  Biso   1.000  C
  H357     1.0000 0.47200  0.88590  0.68300  Biso   1.000  H
  O358     1.0000 0.32736  0.87594  0.70980  Biso   1.000  O
  C358     1.0000 0.24230  0.87670  0.71820  Biso   1.000  C
  H358     1.0000 0.23630  0.87630  0.69650  Biso   1.000  H
  O359     1.0000 0.41663  0.36792  0.17005  Biso   1.000  O
  C359     1.0000 0.48323  0.37181  0.16968  Biso   1.000  C
  H359     1.0000 0.47200  0.38590  0.18300  Biso   1.000  H
  O360     1.0000 0.32736  0.37594  0.20980  Biso   1.000  O
  C360     1.0000 0.24230  0.37670  0.21820  Biso   1.000  C
  H360     1.0000 0.23630  0.37630  0.19650  Biso   1.000  H
  O361     1.0000 0.91663  0.13208  0.82995  Biso   1.000  O
  C361     1.0000 0.98323  0.12819  0.83032  Biso   1.000  C
  H361     1.0000 0.97200  0.11410  0.81700  Biso   1.000  H
  O362     1.0000 0.82736  0.12406  0.79020  Biso   1.000  O
  C362     1.0000 0.74230  0.12330  0.78180  Biso   1.000  C
  H362     1.0000 0.73630  0.12370  0.80350  Biso   1.000  H
  O363     1.0000 0.91663  0.63208  0.32995  Biso   1.000  O
  C363     1.0000 0.98323  0.62819  0.33032  Biso   1.000  C
  H363     1.0000 0.97200  0.61410  0.31700  Biso   1.000  H
  O364     1.0000 0.82736  0.62406  0.29020  Biso   1.000  O
  C364     1.0000 0.74230  0.62330  0.28180  Biso   1.000  C
  H364     1.0000 0.73630  0.62370  0.30350  Biso   1.000  H
  O365     1.0000 0.41663  0.13208  0.32995  Biso   1.000  O
  C365     1.0000 0.48323  0.12819  0.33032  Biso   1.000  C
  H365     1.0000 0.47200  0.11410  0.31700  Biso   1.000  H
  O366     1.0000 0.32736  0.12406  0.29020  Biso   1.000  O
  C366     1.0000 0.24230  0.12330  0.28180  Biso   1.000  C
  H366     1.0000 0.23630  0.12370  0.30350  Biso   1.000  H
  O367     1.0000 0.41663  0.63208  0.82995  Biso   1.000  O
  C367     1.0000 0.48323  0.62819  0.83032  Biso   1.000  C
  H367     1.0000 0.47200  0.61410  0.81700  Biso   1.000  H
  O368     1.0000 0.32736  0.62406  0.79020  Biso   1.000  O
  C368     1.0000 0.24230  0.62330  0.78180  Biso   1.000  C
  H368     1.0000 0.23630  0.62370  0.80350  Biso   1.000  H
  O369     1.0000 0.08337  0.86792  0.82995  Biso   1.000  O
  C369     1.0000 0.01677  0.87181  0.83032  Biso   1.000  C
  H369     1.0000 0.02800  0.88590  0.81700  Biso   1.000  H
  O370     1.0000 0.17264  0.87594  0.79020  Biso   1.000  O
  C370     1.0000 0.25770  0.87670  0.78180  Biso   1.000  C
  H370     1.0000 0.26370  0.87630  0.80350  Biso   1.000  H
  O371     1.0000 0.08337  0.36792  0.32995  Biso   1.000  O
  C371     1.0000 0.01677  0.37181  0.33032  Biso   1.000  C
  H371     1.0000 0.02800  0.38590  0.31700  Biso   1.000  H
  O372     1.0000 0.17264  0.37594  0.29020  Biso   1.000  O
  C372     1.0000 0.25770  0.37670  0.28180  Biso   1.000  C
  H372     1.0000 0.26370  0.37630  0.30350  Biso   1.000  H
  O373     1.0000 0.58337  0.86792  0.32995  Biso   1.000  O
  C373     1.0000 0.51677  0.87181  0.33032  Biso   1.000  C
  H373     1.0000 0.52800  0.88590  0.31700  Biso   1.000  H
  O374     1.0000 0.67264  0.87594  0.29020  Biso   1.000  O
  C374     1.0000 0.75770  0.87670  0.28180  Biso   1.000  C
  H374     1.0000 0.76370  0.87630  0.30350  Biso   1.000  H
  O375     1.0000 0.58337  0.36792  0.82995  Biso   1.000  O
  C375     1.0000 0.51677  0.37181  0.83032  Biso   1.000  C
  H375     1.0000 0.52800  0.38590  0.81700  Biso   1.000  H
  O376     1.0000 0.67264  0.37594  0.79020  Biso   1.000  O
  C376     1.0000 0.75770  0.37670  0.78180  Biso   1.000  C
  H376     1.0000 0.76370  0.37630  0.80350  Biso   1.000  H
  O377     1.0000 0.08337  0.13208  0.17005  Biso   1.000  O
  C377     1.0000 0.01677  0.12819  0.16968  Biso   1.000  C
  H377     1.0000 0.02800  0.11410  0.18300  Biso   1.000  H
  O378     1.0000 0.17264  0.12406  0.20980  Biso   1.000  O
  C378     1.0000 0.25770  0.12330  0.21820  Biso   1.000  C
  H378     1.0000 0.26370  0.12370  0.19650  Biso   1.000  H
  O379     1.0000 0.08337  0.63208  0.67005  Biso   1.000  O
  C379     1.0000 0.01677  0.62819  0.66968  Biso   1.000  C
  H379     1.0000 0.02800  0.61410  0.68300  Biso   1.000  H
  O380     1.0000 0.17264  0.62406  0.70980  Biso   1.000  O
  C380     1.0000 0.25770  0.62330  0.71820  Biso   1.000  C
  H380     1.0000 0.26370  0.62370  0.69650  Biso   1.000  H
  O381     1.0000 0.58337  0.13208  0.67005  Biso   1.000  O
  C381     1.0000 0.51677  0.12819  0.66968  Biso   1.000  C
  H381     1.0000 0.52800  0.11410  0.68300  Biso   1.000  H
  O382     1.0000 0.67264  0.12406  0.70980  Biso   1.000  O
  C382     1.0000 0.75770  0.12330  0.71820  Biso   1.000  C
  H382     1.0000 0.76370  0.12370  0.69650  Biso   1.000  H
  O383     1.0000 0.58337  0.63208  0.17005  Biso   1.000  O
  C383     1.0000 0.51677  0.62819  0.16968  Biso   1.000  C
  H383     1.0000 0.52800  0.61410  0.18300  Biso   1.000  H
  O384     1.0000 0.67264  0.62406  0.20980  Biso   1.000  O
  C384     1.0000 0.75770  0.62330  0.21820  Biso   1.000  C
  H384     1.0000 0.76370  0.62370  0.19650  Biso   1.000  H
  Ni1      1.0000 0.18773  0.12899  0.12899  Biso   1.000  Ni
  N1       1.0000 0.22910  0.10840  0.10840  Biso   1.000  N
  O385     1.0000 0.22190  0.03780  0.03780  Biso   1.000  O
  C385     1.0000 0.28250  0.07960  0.07960  Biso   1.000  C
  H385     1.0000 0.30060  0.07020  0.07020  Biso   1.000  H
  C386     1.0000 0.22510  0.08450  0.08450  Biso   1.000  C
  H386     1.0000 0.20440  0.07830  0.07830  Biso   1.000  H
  C387     1.0000 0.25200  0.06990  0.06990  Biso   1.000  C
  O386     1.0000 0.26890  0.03300  0.03300  Biso   1.000  O
  C388     1.0000 0.24830  0.05000  0.05000  Biso   1.000  C
  C389     1.0000 0.28640  0.10290  0.10290  Biso   1.000  C
  H387     1.0000 0.30700  0.10910  0.10910  Biso   1.000  H
  C390     1.0000 0.25990  0.11710  0.11710  Biso   1.000  C
  H388     1.0000 0.26290  0.13290  0.13290  Biso   1.000  H
  Ni2      1.0000 0.18773  0.62899  0.62899  Biso   1.000  Ni
  N2       1.0000 0.22910  0.60840  0.60840  Biso   1.000  N
  O387     1.0000 0.22190  0.53780  0.53780  Biso   1.000  O
  C391     1.0000 0.28250  0.57960  0.57960  Biso   1.000  C
  H389     1.0000 0.30060  0.57020  0.57020  Biso   1.000  H
  C392     1.0000 0.22510  0.58450  0.58450  Biso   1.000  C
  H390     1.0000 0.20440  0.57830  0.57830  Biso   1.000  H
  C393     1.0000 0.25200  0.56990  0.56990  Biso   1.000  C
  O388     1.0000 0.26890  0.53300  0.53300  Biso   1.000  O
  C394     1.0000 0.24830  0.55000  0.55000  Biso   1.000  C
  C395     1.0000 0.28640  0.60290  0.60290  Biso   1.000  C
  H391     1.0000 0.30700  0.60910  0.60910  Biso   1.000  H
  C396     1.0000 0.25990  0.61710  0.61710  Biso   1.000  C
  H392     1.0000 0.26290  0.63290  0.63290  Biso   1.000  H
  Ni3      1.0000 0.68773  0.12899  0.62899  Biso   1.000  Ni
  N3       1.0000 0.72910  0.10840  0.60840  Biso   1.000  N
  O389     1.0000 0.72190  0.03780  0.53780  Biso   1.000  O
  C397     1.0000 0.78250  0.07960  0.57960  Biso   1.000  C
  H393     1.0000 0.80060  0.07020  0.57020  Biso   1.000  H
  C398     1.0000 0.72510  0.08450  0.58450  Biso   1.000  C
  H394     1.0000 0.70440  0.07830  0.57830  Biso   1.000  H
  C399     1.0000 0.75200  0.06990  0.56990  Biso   1.000  C
  O390     1.0000 0.76890  0.03300  0.53300  Biso   1.000  O
  C400     1.0000 0.74830  0.05000  0.55000  Biso   1.000  C
  C401     1.0000 0.78640  0.10290  0.60290  Biso   1.000  C
  H395     1.0000 0.80700  0.10910  0.60910  Biso   1.000  H
  C402     1.0000 0.75990  0.11710  0.61710  Biso   1.000  C
  H396     1.0000 0.76290  0.13290  0.63290  Biso   1.000  H
  Ni4      1.0000 0.68773  0.62899  0.12899  Biso   1.000  Ni
  N4       1.0000 0.72910  0.60840  0.10840  Biso   1.000  N
  O391     1.0000 0.72190  0.53780  0.03780  Biso   1.000  O
  C403     1.0000 0.78250  0.57960  0.07960  Biso   1.000  C
  H397     1.0000 0.80060  0.57020  0.07020  Biso   1.000  H
  C404     1.0000 0.72510  0.58450  0.08450  Biso   1.000  C
  H398     1.0000 0.70440  0.57830  0.07830  Biso   1.000  H
  C405     1.0000 0.75200  0.56990  0.06990  Biso   1.000  C
  O392     1.0000 0.76890  0.53300  0.03300  Biso   1.000  O
  C406     1.0000 0.74830  0.55000  0.05000  Biso   1.000  C
  C407     1.0000 0.78640  0.60290  0.10290  Biso   1.000  C
  H399     1.0000 0.80700  0.60910  0.10910  Biso   1.000  H
  C408     1.0000 0.75990  0.61710  0.11710  Biso   1.000  C
  H400     1.0000 0.76290  0.63290  0.13290  Biso   1.000  H
  Ni5      1.0000 0.81227  0.87101  0.12899  Biso   1.000  Ni
  N5       1.0000 0.77090  0.89160  0.10840  Biso   1.000  N
  O393     1.0000 0.77810  0.96220  0.03780  Biso   1.000  O
  C409     1.0000 0.71750  0.92040  0.07960  Biso   1.000  C
  H401     1.0000 0.69940  0.92980  0.07020  Biso   1.000  H
  C410     1.0000 0.77490  0.91550  0.08450  Biso   1.000  C
  H402     1.0000 0.79560  0.92170  0.07830  Biso   1.000  H
  C411     1.0000 0.74800  0.93010  0.06990  Biso   1.000  C
  O394     1.0000 0.73110  0.96700  0.03300  Biso   1.000  O
  C412     1.0000 0.75170  0.95000  0.05000  Biso   1.000  C
  C413     1.0000 0.71360  0.89710  0.10290  Biso   1.000  C
  H403     1.0000 0.69300  0.89090  0.10910  Biso   1.000  H
  C414     1.0000 0.74010  0.88290  0.11710  Biso   1.000  C
  H404     1.0000 0.73710  0.86710  0.13290  Biso   1.000  H
  Ni6      1.0000 0.81227  0.37101  0.62899  Biso   1.000  Ni
  N6       1.0000 0.77090  0.39160  0.60840  Biso   1.000  N
  O395     1.0000 0.77810  0.46220  0.53780  Biso   1.000  O
  C415     1.0000 0.71750  0.42040  0.57960  Biso   1.000  C
  H405     1.0000 0.69940  0.42980  0.57020  Biso   1.000  H
  C416     1.0000 0.77490  0.41550  0.58450  Biso   1.000  C
  H406     1.0000 0.79560  0.42170  0.57830  Biso   1.000  H
  C417     1.0000 0.74800  0.43010  0.56990  Biso   1.000  C
  O396     1.0000 0.73110  0.46700  0.53300  Biso   1.000  O
  C418     1.0000 0.75170  0.45000  0.55000  Biso   1.000  C
  C419     1.0000 0.71360  0.39710  0.60290  Biso   1.000  C
  H407     1.0000 0.69300  0.39090  0.60910  Biso   1.000  H
  C420     1.0000 0.74010  0.38290  0.61710  Biso   1.000  C
  H408     1.0000 0.73710  0.36710  0.63290  Biso   1.000  H
  Ni7      1.0000 0.31227  0.87101  0.62899  Biso   1.000  Ni
  N7       1.0000 0.27090  0.89160  0.60840  Biso   1.000  N
  O397     1.0000 0.27810  0.96220  0.53780  Biso   1.000  O
  C421     1.0000 0.21750  0.92040  0.57960  Biso   1.000  C
  H409     1.0000 0.19940  0.92980  0.57020  Biso   1.000  H
  C422     1.0000 0.27490  0.91550  0.58450  Biso   1.000  C
  H410     1.0000 0.29560  0.92170  0.57830  Biso   1.000  H
  C423     1.0000 0.24800  0.93010  0.56990  Biso   1.000  C
  O398     1.0000 0.23110  0.96700  0.53300  Biso   1.000  O
  C424     1.0000 0.25170  0.95000  0.55000  Biso   1.000  C
  C425     1.0000 0.21360  0.89710  0.60290  Biso   1.000  C
  H411     1.0000 0.19300  0.89090  0.60910  Biso   1.000  H
  C426     1.0000 0.24010  0.88290  0.61710  Biso   1.000  C
  H412     1.0000 0.23710  0.86710  0.63290  Biso   1.000  H
  Ni8      1.0000 0.31227  0.37101  0.12899  Biso   1.000  Ni
  N8       1.0000 0.27090  0.39160  0.10840  Biso   1.000  N
  O399     1.0000 0.27810  0.46220  0.03780  Biso   1.000  O
  C427     1.0000 0.21750  0.42040  0.07960  Biso   1.000  C
  H413     1.0000 0.19940  0.42980  0.07020  Biso   1.000  H
  C428     1.0000 0.27490  0.41550  0.08450  Biso   1.000  C
  H414     1.0000 0.29560  0.42170  0.07830  Biso   1.000  H
  C429     1.0000 0.24800  0.43010  0.06990  Biso   1.000  C
  O400     1.0000 0.23110  0.46700  0.03300  Biso   1.000  O
  C430     1.0000 0.25170  0.45000  0.05000  Biso   1.000  C
  C431     1.0000 0.21360  0.39710  0.10290  Biso   1.000  C
  H415     1.0000 0.19300  0.39090  0.10910  Biso   1.000  H
  C432     1.0000 0.24010  0.38290  0.11710  Biso   1.000  C
  H416     1.0000 0.23710  0.36710  0.13290  Biso   1.000  H
  Ni9      1.0000 0.81227  0.12899  0.87101  Biso   1.000  Ni
  N9       1.0000 0.77090  0.10840  0.89160  Biso   1.000  N
  O401     1.0000 0.77810  0.03780  0.96220  Biso   1.000  O
  C433     1.0000 0.71750  0.07960  0.92040  Biso   1.000  C
  H417     1.0000 0.69940  0.07020  0.92980  Biso   1.000  H
  C434     1.0000 0.77490  0.08450  0.91550  Biso   1.000  C
  H418     1.0000 0.79560  0.07830  0.92170  Biso   1.000  H
  C435     1.0000 0.74800  0.06990  0.93010  Biso   1.000  C
  O402     1.0000 0.73110  0.03300  0.96700  Biso   1.000  O
  C436     1.0000 0.75170  0.05000  0.95000  Biso   1.000  C
  C437     1.0000 0.71360  0.10290  0.89710  Biso   1.000  C
  H419     1.0000 0.69300  0.10910  0.89090  Biso   1.000  H
  C438     1.0000 0.74010  0.11710  0.88290  Biso   1.000  C
  H420     1.0000 0.73710  0.13290  0.86710  Biso   1.000  H
  Ni10     1.0000 0.81227  0.62899  0.37101  Biso   1.000  Ni
  N10      1.0000 0.77090  0.60840  0.39160  Biso   1.000  N
  O403     1.0000 0.77810  0.53780  0.46220  Biso   1.000  O
  C439     1.0000 0.71750  0.57960  0.42040  Biso   1.000  C
  H421     1.0000 0.69940  0.57020  0.42980  Biso   1.000  H
  C440     1.0000 0.77490  0.58450  0.41550  Biso   1.000  C
  H422     1.0000 0.79560  0.57830  0.42170  Biso   1.000  H
  C441     1.0000 0.74800  0.56990  0.43010  Biso   1.000  C
  O404     1.0000 0.73110  0.53300  0.46700  Biso   1.000  O
  C442     1.0000 0.75170  0.55000  0.45000  Biso   1.000  C
  C443     1.0000 0.71360  0.60290  0.39710  Biso   1.000  C
  H423     1.0000 0.69300  0.60910  0.39090  Biso   1.000  H
  C444     1.0000 0.74010  0.61710  0.38290  Biso   1.000  C
  H424     1.0000 0.73710  0.63290  0.36710  Biso   1.000  H
  Ni11     1.0000 0.31227  0.12899  0.37101  Biso   1.000  Ni
  N11      1.0000 0.27090  0.10840  0.39160  Biso   1.000  N
  O405     1.0000 0.27810  0.03780  0.46220  Biso   1.000  O
  C445     1.0000 0.21750  0.07960  0.42040  Biso   1.000  C
  H425     1.0000 0.19940  0.07020  0.42980  Biso   1.000  H
  C446     1.0000 0.27490  0.08450  0.41550  Biso   1.000  C
  H426     1.0000 0.29560  0.07830  0.42170  Biso   1.000  H
  C447     1.0000 0.24800  0.06990  0.43010  Biso   1.000  C
  O406     1.0000 0.23110  0.03300  0.46700  Biso   1.000  O
  C448     1.0000 0.25170  0.05000  0.45000  Biso   1.000  C
  C449     1.0000 0.21360  0.10290  0.39710  Biso   1.000  C
  H427     1.0000 0.19300  0.10910  0.39090  Biso   1.000  H
  C450     1.0000 0.24010  0.11710  0.38290  Biso   1.000  C
  H428     1.0000 0.23710  0.13290  0.36710  Biso   1.000  H
  Ni12     1.0000 0.31227  0.62899  0.87101  Biso   1.000  Ni
  N12      1.0000 0.27090  0.60840  0.89160  Biso   1.000  N
  O407     1.0000 0.27810  0.53780  0.96220  Biso   1.000  O
  C451     1.0000 0.21750  0.57960  0.92040  Biso   1.000  C
  H429     1.0000 0.19940  0.57020  0.92980  Biso   1.000  H
  C452     1.0000 0.27490  0.58450  0.91550  Biso   1.000  C
  H430     1.0000 0.29560  0.57830  0.92170  Biso   1.000  H
  C453     1.0000 0.24800  0.56990  0.93010  Biso   1.000  C
  O408     1.0000 0.23110  0.53300  0.96700  Biso   1.000  O
  C454     1.0000 0.25170  0.55000  0.95000  Biso   1.000  C
  C455     1.0000 0.21360  0.60290  0.89710  Biso   1.000  C
  H431     1.0000 0.19300  0.60910  0.89090  Biso   1.000  H
  C456     1.0000 0.24010  0.61710  0.88290  Biso   1.000  C
  H432     1.0000 0.23710  0.63290  0.86710  Biso   1.000  H
  Ni13     1.0000 0.18773  0.87101  0.87101  Biso   1.000  Ni
  N13      1.0000 0.22910  0.89160  0.89160  Biso   1.000  N
  O409     1.0000 0.22190  0.96220  0.96220  Biso   1.000  O
  C457     1.0000 0.28250  0.92040  0.92040  Biso   1.000  C
  H433     1.0000 0.30060  0.92980  0.92980  Biso   1.000  H
  C458     1.0000 0.22510  0.91550  0.91550  Biso   1.000  C
  H434     1.0000 0.20440  0.92170  0.92170  Biso   1.000  H
  C459     1.0000 0.25200  0.93010  0.93010  Biso   1.000  C
  O410     1.0000 0.26890  0.96700  0.96700  Biso   1.000  O
  C460     1.0000 0.24830  0.95000  0.95000  Biso   1.000  C
  C461     1.0000 0.28640  0.89710  0.89710  Biso   1.000  C
  H435     1.0000 0.30700  0.89090  0.89090  Biso   1.000  H
  C462     1.0000 0.25990  0.88290  0.88290  Biso   1.000  C
  H436     1.0000 0.26290  0.86710  0.86710  Biso   1.000  H
  Ni14     1.0000 0.18773  0.37101  0.37101  Biso   1.000  Ni
  N14      1.0000 0.22910  0.39160  0.39160  Biso   1.000  N
  O411     1.0000 0.22190  0.46220  0.46220  Biso   1.000  O
  C463     1.0000 0.28250  0.42040  0.42040  Biso   1.000  C
  H437     1.0000 0.30060  0.42980  0.42980  Biso   1.000  H
  C464     1.0000 0.22510  0.41550  0.41550  Biso   1.000  C
  H438     1.0000 0.20440  0.42170  0.42170  Biso   1.000  H
  C465     1.0000 0.25200  0.43010  0.43010  Biso   1.000  C
  O412     1.0000 0.26890  0.46700  0.46700  Biso   1.000  O
  C466     1.0000 0.24830  0.45000  0.45000  Biso   1.000  C
  C467     1.0000 0.28640  0.39710  0.39710  Biso   1.000  C
  H439     1.0000 0.30700  0.39090  0.39090  Biso   1.000  H
  C468     1.0000 0.25990  0.38290  0.38290  Biso   1.000  C
  H440     1.0000 0.26290  0.36710  0.36710  Biso   1.000  H
  Ni15     1.0000 0.68773  0.87101  0.37101  Biso   1.000  Ni
  N15      1.0000 0.72910  0.89160  0.39160  Biso   1.000  N
  O413     1.0000 0.72190  0.96220  0.46220  Biso   1.000  O
  C469     1.0000 0.78250  0.92040  0.42040  Biso   1.000  C
  H441     1.0000 0.80060  0.92980  0.42980  Biso   1.000  H
  C470     1.0000 0.72510  0.91550  0.41550  Biso   1.000  C
  H442     1.0000 0.70440  0.92170  0.42170  Biso   1.000  H
  C471     1.0000 0.75200  0.93010  0.43010  Biso   1.000  C
  O414     1.0000 0.76890  0.96700  0.46700  Biso   1.000  O
  C472     1.0000 0.74830  0.95000  0.45000  Biso   1.000  C
  C473     1.0000 0.78640  0.89710  0.39710  Biso   1.000  C
  H443     1.0000 0.80700  0.89090  0.39090  Biso   1.000  H
  C474     1.0000 0.75990  0.88290  0.38290  Biso   1.000  C
  H444     1.0000 0.76290  0.86710  0.36710  Biso   1.000  H
  Ni16     1.0000 0.68773  0.37101  0.87101  Biso   1.000  Ni
  N16      1.0000 0.72910  0.39160  0.89160  Biso   1.000  N
  O415     1.0000 0.72190  0.46220  0.96220  Biso   1.000  O
  C475     1.0000 0.78250  0.42040  0.92040  Biso   1.000  C
  H445     1.0000 0.80060  0.42980  0.92980  Biso   1.000  H
  C476     1.0000 0.72510  0.41550  0.91550  Biso   1.000  C
  H446     1.0000 0.70440  0.42170  0.92170  Biso   1.000  H
  C477     1.0000 0.75200  0.43010  0.93010  Biso   1.000  C
  O416     1.0000 0.76890  0.46700  0.96700  Biso   1.000  O
  C478     1.0000 0.74830  0.45000  0.95000  Biso   1.000  C
  C479     1.0000 0.78640  0.39710  0.89710  Biso   1.000  C
  H447     1.0000 0.80700  0.39090  0.89090  Biso   1.000  H
  C480     1.0000 0.75990  0.38290  0.88290  Biso   1.000  C
  H448     1.0000 0.76290  0.36710  0.86710  Biso   1.000  H
  Ni17     1.0000 0.12899  0.18773  0.12899  Biso   1.000  Ni
  N17      1.0000 0.10840  0.22910  0.10840  Biso   1.000  N
  O417     1.0000 0.03780  0.22190  0.03780  Biso   1.000  O
  C481     1.0000 0.07960  0.28250  0.07960  Biso   1.000  C
  H449     1.0000 0.07020  0.30060  0.07020  Biso   1.000  H
  C482     1.0000 0.08450  0.22510  0.08450  Biso   1.000  C
  H450     1.0000 0.07830  0.20440  0.07830  Biso   1.000  H
  C483     1.0000 0.06990  0.25200  0.06990  Biso   1.000  C
  O418     1.0000 0.03300  0.26890  0.03300  Biso   1.000  O
  C484     1.0000 0.05000  0.24830  0.05000  Biso   1.000  C
  C485     1.0000 0.10290  0.28640  0.10290  Biso   1.000  C
  H451     1.0000 0.10910  0.30700  0.10910  Biso   1.000  H
  C486     1.0000 0.11710  0.25990  0.11710  Biso   1.000  C
  H452     1.0000 0.13290  0.26290  0.13290  Biso   1.000  H
  Ni18     1.0000 0.12899  0.68773  0.62899  Biso   1.000  Ni
  N18      1.0000 0.10840  0.72910  0.60840  Biso   1.000  N
  O419     1.0000 0.03780  0.72190  0.53780  Biso   1.000  O
  C487     1.0000 0.07960  0.78250  0.57960  Biso   1.000  C
  H453     1.0000 0.07020  0.80060  0.57020  Biso   1.000  H
  C488     1.0000 0.08450  0.72510  0.58450  Biso   1.000  C
  H454     1.0000 0.07830  0.70440  0.57830  Biso   1.000  H
  C489     1.0000 0.06990  0.75200  0.56990  Biso   1.000  C
  O420     1.0000 0.03300  0.76890  0.53300  Biso   1.000  O
  C490     1.0000 0.05000  0.74830  0.55000  Biso   1.000  C
  C491     1.0000 0.10290  0.78640  0.60290  Biso   1.000  C
  H455     1.0000 0.10910  0.80700  0.60910  Biso   1.000  H
  C492     1.0000 0.11710  0.75990  0.61710  Biso   1.000  C
  H456     1.0000 0.13290  0.76290  0.63290  Biso   1.000  H
  Ni19     1.0000 0.62899  0.18773  0.62899  Biso   1.000  Ni
  N19      1.0000 0.60840  0.22910  0.60840  Biso   1.000  N
  O421     1.0000 0.53780  0.22190  0.53780  Biso   1.000  O
  C493     1.0000 0.57960  0.28250  0.57960  Biso   1.000  C
  H457     1.0000 0.57020  0.30060  0.57020  Biso   1.000  H
  C494     1.0000 0.58450  0.22510  0.58450  Biso   1.000  C
  H458     1.0000 0.57830  0.20440  0.57830  Biso   1.000  H
  C495     1.0000 0.56990  0.25200  0.56990  Biso   1.000  C
  O422     1.0000 0.53300  0.26890  0.53300  Biso   1.000  O
  C496     1.0000 0.55000  0.24830  0.55000  Biso   1.000  C
  C497     1.0000 0.60290  0.28640  0.60290  Biso   1.000  C
  H459     1.0000 0.60910  0.30700  0.60910  Biso   1.000  H
  C498     1.0000 0.61710  0.25990  0.61710  Biso   1.000  C
  H460     1.0000 0.63290  0.26290  0.63290  Biso   1.000  H
  Ni20     1.0000 0.62899  0.68773  0.12899  Biso   1.000  Ni
  N20      1.0000 0.60840  0.72910  0.10840  Biso   1.000  N
  O423     1.0000 0.53780  0.72190  0.03780  Biso   1.000  O
  C499     1.0000 0.57960  0.78250  0.07960  Biso   1.000  C
  H461     1.0000 0.57020  0.80060  0.07020  Biso   1.000  H
  C500     1.0000 0.58450  0.72510  0.08450  Biso   1.000  C
  H462     1.0000 0.57830  0.70440  0.07830  Biso   1.000  H
  C501     1.0000 0.56990  0.75200  0.06990  Biso   1.000  C
  O424     1.0000 0.53300  0.76890  0.03300  Biso   1.000  O
  C502     1.0000 0.55000  0.74830  0.05000  Biso   1.000  C
  C503     1.0000 0.60290  0.78640  0.10290  Biso   1.000  C
  H463     1.0000 0.60910  0.80700  0.10910  Biso   1.000  H
  C504     1.0000 0.61710  0.75990  0.11710  Biso   1.000  C
  H464     1.0000 0.63290  0.76290  0.13290  Biso   1.000  H
  Ni21     1.0000 0.12899  0.81227  0.87101  Biso   1.000  Ni
  N21      1.0000 0.10840  0.77090  0.89160  Biso   1.000  N
  O425     1.0000 0.03780  0.77810  0.96220  Biso   1.000  O
  C505     1.0000 0.07960  0.71750  0.92040  Biso   1.000  C
  H465     1.0000 0.07020  0.69940  0.92980  Biso   1.000  H
  C506     1.0000 0.08450  0.77490  0.91550  Biso   1.000  C
  H466     1.0000 0.07830  0.79560  0.92170  Biso   1.000  H
  C507     1.0000 0.06990  0.74800  0.93010  Biso   1.000  C
  O426     1.0000 0.03300  0.73110  0.96700  Biso   1.000  O
  C508     1.0000 0.05000  0.75170  0.95000  Biso   1.000  C
  C509     1.0000 0.10290  0.71360  0.89710  Biso   1.000  C
  H467     1.0000 0.10910  0.69300  0.89090  Biso   1.000  H
  C510     1.0000 0.11710  0.74010  0.88290  Biso   1.000  C
  H468     1.0000 0.13290  0.73710  0.86710  Biso   1.000  H
  Ni22     1.0000 0.12899  0.31227  0.37101  Biso   1.000  Ni
  N22      1.0000 0.10840  0.27090  0.39160  Biso   1.000  N
  O427     1.0000 0.03780  0.27810  0.46220  Biso   1.000  O
  C511     1.0000 0.07960  0.21750  0.42040  Biso   1.000  C
  H469     1.0000 0.07020  0.19940  0.42980  Biso   1.000  H
  C512     1.0000 0.08450  0.27490  0.41550  Biso   1.000  C
  H470     1.0000 0.07830  0.29560  0.42170  Biso   1.000  H
  C513     1.0000 0.06990  0.24800  0.43010  Biso   1.000  C
  O428     1.0000 0.03300  0.23110  0.46700  Biso   1.000  O
  C514     1.0000 0.05000  0.25170  0.45000  Biso   1.000  C
  C515     1.0000 0.10290  0.21360  0.39710  Biso   1.000  C
  H471     1.0000 0.10910  0.19300  0.39090  Biso   1.000  H
  C516     1.0000 0.11710  0.24010  0.38290  Biso   1.000  C
  H472     1.0000 0.13290  0.23710  0.36710  Biso   1.000  H
  Ni23     1.0000 0.62899  0.81227  0.37101  Biso   1.000  Ni
  N23      1.0000 0.60840  0.77090  0.39160  Biso   1.000  N
  O429     1.0000 0.53780  0.77810  0.46220  Biso   1.000  O
  C517     1.0000 0.57960  0.71750  0.42040  Biso   1.000  C
  H473     1.0000 0.57020  0.69940  0.42980  Biso   1.000  H
  C518     1.0000 0.58450  0.77490  0.41550  Biso   1.000  C
  H474     1.0000 0.57830  0.79560  0.42170  Biso   1.000  H
  C519     1.0000 0.56990  0.74800  0.43010  Biso   1.000  C
  O430     1.0000 0.53300  0.73110  0.46700  Biso   1.000  O
  C520     1.0000 0.55000  0.75170  0.45000  Biso   1.000  C
  C521     1.0000 0.60290  0.71360  0.39710  Biso   1.000  C
  H475     1.0000 0.60910  0.69300  0.39090  Biso   1.000  H
  C522     1.0000 0.61710  0.74010  0.38290  Biso   1.000  C
  H476     1.0000 0.63290  0.73710  0.36710  Biso   1.000  H
  Ni24     1.0000 0.62899  0.31227  0.87101  Biso   1.000  Ni
  N24      1.0000 0.60840  0.27090  0.89160  Biso   1.000  N
  O431     1.0000 0.53780  0.27810  0.96220  Biso   1.000  O
  C523     1.0000 0.57960  0.21750  0.92040  Biso   1.000  C
  H477     1.0000 0.57020  0.19940  0.92980  Biso   1.000  H
  C524     1.0000 0.58450  0.27490  0.91550  Biso   1.000  C
  H478     1.0000 0.57830  0.29560  0.92170  Biso   1.000  H
  C525     1.0000 0.56990  0.24800  0.93010  Biso   1.000  C
  O432     1.0000 0.53300  0.23110  0.96700  Biso   1.000  O
  C526     1.0000 0.55000  0.25170  0.95000  Biso   1.000  C
  C527     1.0000 0.60290  0.21360  0.89710  Biso   1.000  C
  H479     1.0000 0.60910  0.19300  0.89090  Biso   1.000  H
  C528     1.0000 0.61710  0.24010  0.88290  Biso   1.000  C
  H480     1.0000 0.63290  0.23710  0.86710  Biso   1.000  H
  Ni25     1.0000 0.87101  0.81227  0.12899  Biso   1.000  Ni
  N25      1.0000 0.89160  0.77090  0.10840  Biso   1.000  N
  O433     1.0000 0.96220  0.77810  0.03780  Biso   1.000  O
  C529     1.0000 0.92040  0.71750  0.07960  Biso   1.000  C
  H481     1.0000 0.92980  0.69940  0.07020  Biso   1.000  H
  C530     1.0000 0.91550  0.77490  0.08450  Biso   1.000  C
  H482     1.0000 0.92170  0.79560  0.07830  Biso   1.000  H
  C531     1.0000 0.93010  0.74800  0.06990  Biso   1.000  C
  O434     1.0000 0.96700  0.73110  0.03300  Biso   1.000  O
  C532     1.0000 0.95000  0.75170  0.05000  Biso   1.000  C
  C533     1.0000 0.89710  0.71360  0.10290  Biso   1.000  C
  H483     1.0000 0.89090  0.69300  0.10910  Biso   1.000  H
  C534     1.0000 0.88290  0.74010  0.11710  Biso   1.000  C
  H484     1.0000 0.86710  0.73710  0.13290  Biso   1.000  H
  Ni26     1.0000 0.87101  0.31227  0.62899  Biso   1.000  Ni
  N26      1.0000 0.89160  0.27090  0.60840  Biso   1.000  N
  O435     1.0000 0.96220  0.27810  0.53780  Biso   1.000  O
  C535     1.0000 0.92040  0.21750  0.57960  Biso   1.000  C
  H485     1.0000 0.92980  0.19940  0.57020  Biso   1.000  H
  C536     1.0000 0.91550  0.27490  0.58450  Biso   1.000  C
  H486     1.0000 0.92170  0.29560  0.57830  Biso   1.000  H
  C537     1.0000 0.93010  0.24800  0.56990  Biso   1.000  C
  O436     1.0000 0.96700  0.23110  0.53300  Biso   1.000  O
  C538     1.0000 0.95000  0.25170  0.55000  Biso   1.000  C
  C539     1.0000 0.89710  0.21360  0.60290  Biso   1.000  C
  H487     1.0000 0.89090  0.19300  0.60910  Biso   1.000  H
  C540     1.0000 0.88290  0.24010  0.61710  Biso   1.000  C
  H488     1.0000 0.86710  0.23710  0.63290  Biso   1.000  H
  Ni27     1.0000 0.37101  0.81227  0.62899  Biso   1.000  Ni
  N27      1.0000 0.39160  0.77090  0.60840  Biso   1.000  N
  O437     1.0000 0.46220  0.77810  0.53780  Biso   1.000  O
  C541     1.0000 0.42040  0.71750  0.57960  Biso   1.000  C
  H489     1.0000 0.42980  0.69940  0.57020  Biso   1.000  H
  C542     1.0000 0.41550  0.77490  0.58450  Biso   1.000  C
  H490     1.0000 0.42170  0.79560  0.57830  Biso   1.000  H
  C543     1.0000 0.43010  0.74800  0.56990  Biso   1.000  C
  O438     1.0000 0.46700  0.73110  0.53300  Biso   1.000  O
  C544     1.0000 0.45000  0.75170  0.55000  Biso   1.000  C
  C545     1.0000 0.39710  0.71360  0.60290  Biso   1.000  C
  H491     1.0000 0.39090  0.69300  0.60910  Biso   1.000  H
  C546     1.0000 0.38290  0.74010  0.61710  Biso   1.000  C
  H492     1.0000 0.36710  0.73710  0.63290  Biso   1.000  H
  Ni28     1.0000 0.37101  0.31227  0.12899  Biso   1.000  Ni
  N28      1.0000 0.39160  0.27090  0.10840  Biso   1.000  N
  O439     1.0000 0.46220  0.27810  0.03780  Biso   1.000  O
  C547     1.0000 0.42040  0.21750  0.07960  Biso   1.000  C
  H493     1.0000 0.42980  0.19940  0.07020  Biso   1.000  H
  C548     1.0000 0.41550  0.27490  0.08450  Biso   1.000  C
  H494     1.0000 0.42170  0.29560  0.07830  Biso   1.000  H
  C549     1.0000 0.43010  0.24800  0.06990  Biso   1.000  C
  O440     1.0000 0.46700  0.23110  0.03300  Biso   1.000  O
  C550     1.0000 0.45000  0.25170  0.05000  Biso   1.000  C
  C551     1.0000 0.39710  0.21360  0.10290  Biso   1.000  C
  H495     1.0000 0.39090  0.19300  0.10910  Biso   1.000  H
  C552     1.0000 0.38290  0.24010  0.11710  Biso   1.000  C
  H496     1.0000 0.36710  0.23710  0.13290  Biso   1.000  H
  Ni29     1.0000 0.87101  0.18773  0.87101  Biso   1.000  Ni
  N29      1.0000 0.89160  0.22910  0.89160  Biso   1.000  N
  O441     1.0000 0.96220  0.22190  0.96220  Biso   1.000  O
  C553     1.0000 0.92040  0.28250  0.92040  Biso   1.000  C
  H497     1.0000 0.92980  0.30060  0.92980  Biso   1.000  H
  C554     1.0000 0.91550  0.22510  0.91550  Biso   1.000  C
  H498     1.0000 0.92170  0.20440  0.92170  Biso   1.000  H
  C555     1.0000 0.93010  0.25200  0.93010  Biso   1.000  C
  O442     1.0000 0.96700  0.26890  0.96700  Biso   1.000  O
  C556     1.0000 0.95000  0.24830  0.95000  Biso   1.000  C
  C557     1.0000 0.89710  0.28640  0.89710  Biso   1.000  C
  H499     1.0000 0.89090  0.30700  0.89090  Biso   1.000  H
  C558     1.0000 0.88290  0.25990  0.88290  Biso   1.000  C
  H500     1.0000 0.86710  0.26290  0.86710  Biso   1.000  H
  Ni30     1.0000 0.87101  0.68773  0.37101  Biso   1.000  Ni
  N30      1.0000 0.89160  0.72910  0.39160  Biso   1.000  N
  O443     1.0000 0.96220  0.72190  0.46220  Biso   1.000  O
  C559     1.0000 0.92040  0.78250  0.42040  Biso   1.000  C
  H501     1.0000 0.92980  0.80060  0.42980  Biso   1.000  H
  C560     1.0000 0.91550  0.72510  0.41550  Biso   1.000  C
  H502     1.0000 0.92170  0.70440  0.42170  Biso   1.000  H
  C561     1.0000 0.93010  0.75200  0.43010  Biso   1.000  C
  O444     1.0000 0.96700  0.76890  0.46700  Biso   1.000  O
  C562     1.0000 0.95000  0.74830  0.45000  Biso   1.000  C
  C563     1.0000 0.89710  0.78640  0.39710  Biso   1.000  C
  H503     1.0000 0.89090  0.80700  0.39090  Biso   1.000  H
  C564     1.0000 0.88290  0.75990  0.38290  Biso   1.000  C
  H504     1.0000 0.86710  0.76290  0.36710  Biso   1.000  H
  Ni31     1.0000 0.37101  0.18773  0.37101  Biso   1.000  Ni
  N31      1.0000 0.39160  0.22910  0.39160  Biso   1.000  N
  O445     1.0000 0.46220  0.22190  0.46220  Biso   1.000  O
  C565     1.0000 0.42040  0.28250  0.42040  Biso   1.000  C
  H505     1.0000 0.42980  0.30060  0.42980  Biso   1.000  H
  C566     1.0000 0.41550  0.22510  0.41550  Biso   1.000  C
  H506     1.0000 0.42170  0.20440  0.42170  Biso   1.000  H
  C567     1.0000 0.43010  0.25200  0.43010  Biso   1.000  C
  O446     1.0000 0.46700  0.26890  0.46700  Biso   1.000  O
  C568     1.0000 0.45000  0.24830  0.45000  Biso   1.000  C
  C569     1.0000 0.39710  0.28640  0.39710  Biso   1.000  C
  H507     1.0000 0.39090  0.30700  0.39090  Biso   1.000  H
  C570     1.0000 0.38290  0.25990  0.38290  Biso   1.000  C
  H508     1.0000 0.36710  0.26290  0.36710  Biso   1.000  H
  Ni32     1.0000 0.37101  0.68773  0.87101  Biso   1.000  Ni
  N32      1.0000 0.39160  0.72910  0.89160  Biso   1.000  N
  O447     1.0000 0.46220  0.72190  0.96220  Biso   1.000  O
  C571     1.0000 0.42040  0.78250  0.92040  Biso   1.000  C
  H509     1.0000 0.42980  0.80060  0.92980  Biso   1.000  H
  C572     1.0000 0.41550  0.72510  0.91550  Biso   1.000  C
  H510     1.0000 0.42170  0.70440  0.92170  Biso   1.000  H
  C573     1.0000 0.43010  0.75200  0.93010  Biso   1.000  C
  O448     1.0000 0.46700  0.76890  0.96700  Biso   1.000  O
  C574     1.0000 0.45000  0.74830  0.95000  Biso   1.000  C
  C575     1.0000 0.39710  0.78640  0.89710  Biso   1.000  C
  H511     1.0000 0.39090  0.80700  0.89090  Biso   1.000  H
  C576     1.0000 0.38290  0.75990  0.88290  Biso   1.000  C
  H512     1.0000 0.36710  0.76290  0.86710  Biso   1.000  H
  Ni33     1.0000 0.12899  0.12899  0.18773  Biso   1.000  Ni
  N33      1.0000 0.10840  0.10840  0.22910  Biso   1.000  N
  O449     1.0000 0.03780  0.03780  0.22190  Biso   1.000  O
  C577     1.0000 0.07960  0.07960  0.28250  Biso   1.000  C
  H513     1.0000 0.07020  0.07020  0.30060  Biso   1.000  H
  C578     1.0000 0.08450  0.08450  0.22510  Biso   1.000  C
  H514     1.0000 0.07830  0.07830  0.20440  Biso   1.000  H
  C579     1.0000 0.06990  0.06990  0.25200  Biso   1.000  C
  O450     1.0000 0.03300  0.03300  0.26890  Biso   1.000  O
  C580     1.0000 0.05000  0.05000  0.24830  Biso   1.000  C
  C581     1.0000 0.10290  0.10290  0.28640  Biso   1.000  C
  H515     1.0000 0.10910  0.10910  0.30700  Biso   1.000  H
  C582     1.0000 0.11710  0.11710  0.25990  Biso   1.000  C
  H516     1.0000 0.13290  0.13290  0.26290  Biso   1.000  H
  Ni34     1.0000 0.12899  0.62899  0.68773  Biso   1.000  Ni
  N34      1.0000 0.10840  0.60840  0.72910  Biso   1.000  N
  O451     1.0000 0.03780  0.53780  0.72190  Biso   1.000  O
  C583     1.0000 0.07960  0.57960  0.78250  Biso   1.000  C
  H517     1.0000 0.07020  0.57020  0.80060  Biso   1.000  H
  C584     1.0000 0.08450  0.58450  0.72510  Biso   1.000  C
  H518     1.0000 0.07830  0.57830  0.70440  Biso   1.000  H
  C585     1.0000 0.06990  0.56990  0.75200  Biso   1.000  C
  O452     1.0000 0.03300  0.53300  0.76890  Biso   1.000  O
  C586     1.0000 0.05000  0.55000  0.74830  Biso   1.000  C
  C587     1.0000 0.10290  0.60290  0.78640  Biso   1.000  C
  H519     1.0000 0.10910  0.60910  0.80700  Biso   1.000  H
  C588     1.0000 0.11710  0.61710  0.75990  Biso   1.000  C
  H520     1.0000 0.13290  0.63290  0.76290  Biso   1.000  H
  Ni35     1.0000 0.62899  0.12899  0.68773  Biso   1.000  Ni
  N35      1.0000 0.60840  0.10840  0.72910  Biso   1.000  N
  O453     1.0000 0.53780  0.03780  0.72190  Biso   1.000  O
  C589     1.0000 0.57960  0.07960  0.78250  Biso   1.000  C
  H521     1.0000 0.57020  0.07020  0.80060  Biso   1.000  H
  C590     1.0000 0.58450  0.08450  0.72510  Biso   1.000  C
  H522     1.0000 0.57830  0.07830  0.70440  Biso   1.000  H
  C591     1.0000 0.56990  0.06990  0.75200  Biso   1.000  C
  O454     1.0000 0.53300  0.03300  0.76890  Biso   1.000  O
  C592     1.0000 0.55000  0.05000  0.74830  Biso   1.000  C
  C593     1.0000 0.60290  0.10290  0.78640  Biso   1.000  C
  H523     1.0000 0.60910  0.10910  0.80700  Biso   1.000  H
  C594     1.0000 0.61710  0.11710  0.75990  Biso   1.000  C
  H524     1.0000 0.63290  0.13290  0.76290  Biso   1.000  H
  Ni36     1.0000 0.62899  0.62899  0.18773  Biso   1.000  Ni
  N36      1.0000 0.60840  0.60840  0.22910  Biso   1.000  N
  O455     1.0000 0.53780  0.53780  0.22190  Biso   1.000  O
  C595     1.0000 0.57960  0.57960  0.28250  Biso   1.000  C
  H525     1.0000 0.57020  0.57020  0.30060  Biso   1.000  H
  C596     1.0000 0.58450  0.58450  0.22510  Biso   1.000  C
  H526     1.0000 0.57830  0.57830  0.20440  Biso   1.000  H
  C597     1.0000 0.56990  0.56990  0.25200  Biso   1.000  C
  O456     1.0000 0.53300  0.53300  0.26890  Biso   1.000  O
  C598     1.0000 0.55000  0.55000  0.24830  Biso   1.000  C
  C599     1.0000 0.60290  0.60290  0.28640  Biso   1.000  C
  H527     1.0000 0.60910  0.60910  0.30700  Biso   1.000  H
  C600     1.0000 0.61710  0.61710  0.25990  Biso   1.000  C
  H528     1.0000 0.63290  0.63290  0.26290  Biso   1.000  H
  Ni37     1.0000 0.87101  0.12899  0.81227  Biso   1.000  Ni
  N37      1.0000 0.89160  0.10840  0.77090  Biso   1.000  N
  O457     1.0000 0.96220  0.03780  0.77810  Biso   1.000  O
  C601     1.0000 0.92040  0.07960  0.71750  Biso   1.000  C
  H529     1.0000 0.92980  0.07020  0.69940  Biso   1.000  H
  C602     1.0000 0.91550  0.08450  0.77490  Biso   1.000  C
  H530     1.0000 0.92170  0.07830  0.79560  Biso   1.000  H
  C603     1.0000 0.93010  0.06990  0.74800  Biso   1.000  C
  O458     1.0000 0.96700  0.03300  0.73110  Biso   1.000  O
  C604     1.0000 0.95000  0.05000  0.75170  Biso   1.000  C
  C605     1.0000 0.89710  0.10290  0.71360  Biso   1.000  C
  H531     1.0000 0.89090  0.10910  0.69300  Biso   1.000  H
  C606     1.0000 0.88290  0.11710  0.74010  Biso   1.000  C
  H532     1.0000 0.86710  0.13290  0.73710  Biso   1.000  H
  Ni38     1.0000 0.87101  0.62899  0.31227  Biso   1.000  Ni
  N38      1.0000 0.89160  0.60840  0.27090  Biso   1.000  N
  O459     1.0000 0.96220  0.53780  0.27810  Biso   1.000  O
  C607     1.0000 0.92040  0.57960  0.21750  Biso   1.000  C
  H533     1.0000 0.92980  0.57020  0.19940  Biso   1.000  H
  C608     1.0000 0.91550  0.58450  0.27490  Biso   1.000  C
  H534     1.0000 0.92170  0.57830  0.29560  Biso   1.000  H
  C609     1.0000 0.93010  0.56990  0.24800  Biso   1.000  C
  O460     1.0000 0.96700  0.53300  0.23110  Biso   1.000  O
  C610     1.0000 0.95000  0.55000  0.25170  Biso   1.000  C
  C611     1.0000 0.89710  0.60290  0.21360  Biso   1.000  C
  H535     1.0000 0.89090  0.60910  0.19300  Biso   1.000  H
  C612     1.0000 0.88290  0.61710  0.24010  Biso   1.000  C
  H536     1.0000 0.86710  0.63290  0.23710  Biso   1.000  H
  Ni39     1.0000 0.37101  0.12899  0.31227  Biso   1.000  Ni
  N39      1.0000 0.39160  0.10840  0.27090  Biso   1.000  N
  O461     1.0000 0.46220  0.03780  0.27810  Biso   1.000  O
  C613     1.0000 0.42040  0.07960  0.21750  Biso   1.000  C
  H537     1.0000 0.42980  0.07020  0.19940  Biso   1.000  H
  C614     1.0000 0.41550  0.08450  0.27490  Biso   1.000  C
  H538     1.0000 0.42170  0.07830  0.29560  Biso   1.000  H
  C615     1.0000 0.43010  0.06990  0.24800  Biso   1.000  C
  O462     1.0000 0.46700  0.03300  0.23110  Biso   1.000  O
  C616     1.0000 0.45000  0.05000  0.25170  Biso   1.000  C
  C617     1.0000 0.39710  0.10290  0.21360  Biso   1.000  C
  H539     1.0000 0.39090  0.10910  0.19300  Biso   1.000  H
  C618     1.0000 0.38290  0.11710  0.24010  Biso   1.000  C
  H540     1.0000 0.36710  0.13290  0.23710  Biso   1.000  H
  Ni40     1.0000 0.37101  0.62899  0.81227  Biso   1.000  Ni
  N40      1.0000 0.39160  0.60840  0.77090  Biso   1.000  N
  O463     1.0000 0.46220  0.53780  0.77810  Biso   1.000  O
  C619     1.0000 0.42040  0.57960  0.71750  Biso   1.000  C
  H541     1.0000 0.42980  0.57020  0.69940  Biso   1.000  H
  C620     1.0000 0.41550  0.58450  0.77490  Biso   1.000  C
  H542     1.0000 0.42170  0.57830  0.79560  Biso   1.000  H
  C621     1.0000 0.43010  0.56990  0.74800  Biso   1.000  C
  O464     1.0000 0.46700  0.53300  0.73110  Biso   1.000  O
  C622     1.0000 0.45000  0.55000  0.75170  Biso   1.000  C
  C623     1.0000 0.39710  0.60290  0.71360  Biso   1.000  C
  H543     1.0000 0.39090  0.60910  0.69300  Biso   1.000  H
  C624     1.0000 0.38290  0.61710  0.74010  Biso   1.000  C
  H544     1.0000 0.36710  0.63290  0.73710  Biso   1.000  H
  Ni41     1.0000 0.12899  0.87101  0.81227  Biso   1.000  Ni
  N41      1.0000 0.10840  0.89160  0.77090  Biso   1.000  N
  O465     1.0000 0.03780  0.96220  0.77810  Biso   1.000  O
  C625     1.0000 0.07960  0.92040  0.71750  Biso   1.000  C
  H545     1.0000 0.07020  0.92980  0.69940  Biso   1.000  H
  C626     1.0000 0.08450  0.91550  0.77490  Biso   1.000  C
  H546     1.0000 0.07830  0.92170  0.79560  Biso   1.000  H
  C627     1.0000 0.06990  0.93010  0.74800  Biso   1.000  C
  O466     1.0000 0.03300  0.96700  0.73110  Biso   1.000  O
  C628     1.0000 0.05000  0.95000  0.75170  Biso   1.000  C
  C629     1.0000 0.10290  0.89710  0.71360  Biso   1.000  C
  H547     1.0000 0.10910  0.89090  0.69300  Biso   1.000  H
  C630     1.0000 0.11710  0.88290  0.74010  Biso   1.000  C
  H548     1.0000 0.13290  0.86710  0.73710  Biso   1.000  H
  Ni42     1.0000 0.12899  0.37101  0.31227  Biso   1.000  Ni
  N42      1.0000 0.10840  0.39160  0.27090  Biso   1.000  N
  O467     1.0000 0.03780  0.46220  0.27810  Biso   1.000  O
  C631     1.0000 0.07960  0.42040  0.21750  Biso   1.000  C
  H549     1.0000 0.07020  0.42980  0.19940  Biso   1.000  H
  C632     1.0000 0.08450  0.41550  0.27490  Biso   1.000  C
  H550     1.0000 0.07830  0.42170  0.29560  Biso   1.000  H
  C633     1.0000 0.06990  0.43010  0.24800  Biso   1.000  C
  O468     1.0000 0.03300  0.46700  0.23110  Biso   1.000  O
  C634     1.0000 0.05000  0.45000  0.25170  Biso   1.000  C
  C635     1.0000 0.10290  0.39710  0.21360  Biso   1.000  C
  H551     1.0000 0.10910  0.39090  0.19300  Biso   1.000  H
  C636     1.0000 0.11710  0.38290  0.24010  Biso   1.000  C
  H552     1.0000 0.13290  0.36710  0.23710  Biso   1.000  H
  Ni43     1.0000 0.62899  0.87101  0.31227  Biso   1.000  Ni
  N43      1.0000 0.60840  0.89160  0.27090  Biso   1.000  N
  O469     1.0000 0.53780  0.96220  0.27810  Biso   1.000  O
  C637     1.0000 0.57960  0.92040  0.21750  Biso   1.000  C
  H553     1.0000 0.57020  0.92980  0.19940  Biso   1.000  H
  C638     1.0000 0.58450  0.91550  0.27490  Biso   1.000  C
  H554     1.0000 0.57830  0.92170  0.29560  Biso   1.000  H
  C639     1.0000 0.56990  0.93010  0.24800  Biso   1.000  C
  O470     1.0000 0.53300  0.96700  0.23110  Biso   1.000  O
  C640     1.0000 0.55000  0.95000  0.25170  Biso   1.000  C
  C641     1.0000 0.60290  0.89710  0.21360  Biso   1.000  C
  H555     1.0000 0.60910  0.89090  0.19300  Biso   1.000  H
  C642     1.0000 0.61710  0.88290  0.24010  Biso   1.000  C
  H556     1.0000 0.63290  0.86710  0.23710  Biso   1.000  H
  Ni44     1.0000 0.62899  0.37101  0.81227  Biso   1.000  Ni
  N44      1.0000 0.60840  0.39160  0.77090  Biso   1.000  N
  O471     1.0000 0.53780  0.46220  0.77810  Biso   1.000  O
  C643     1.0000 0.57960  0.42040  0.71750  Biso   1.000  C
  H557     1.0000 0.57020  0.42980  0.69940  Biso   1.000  H
  C644     1.0000 0.58450  0.41550  0.77490  Biso   1.000  C
  H558     1.0000 0.57830  0.42170  0.79560  Biso   1.000  H
  C645     1.0000 0.56990  0.43010  0.74800  Biso   1.000  C
  O472     1.0000 0.53300  0.46700  0.73110  Biso   1.000  O
  C646     1.0000 0.55000  0.45000  0.75170  Biso   1.000  C
  C647     1.0000 0.60290  0.39710  0.71360  Biso   1.000  C
  H559     1.0000 0.60910  0.39090  0.69300  Biso   1.000  H
  C648     1.0000 0.61710  0.38290  0.74010  Biso   1.000  C
  H560     1.0000 0.63290  0.36710  0.73710  Biso   1.000  H
  Ni45     1.0000 0.87101  0.87101  0.18773  Biso   1.000  Ni
  N45      1.0000 0.89160  0.89160  0.22910  Biso   1.000  N
  O473     1.0000 0.96220  0.96220  0.22190  Biso   1.000  O
  C649     1.0000 0.92040  0.92040  0.28250  Biso   1.000  C
  H561     1.0000 0.92980  0.92980  0.30060  Biso   1.000  H
  C650     1.0000 0.91550  0.91550  0.22510  Biso   1.000  C
  H562     1.0000 0.92170  0.92170  0.20440  Biso   1.000  H
  C651     1.0000 0.93010  0.93010  0.25200  Biso   1.000  C
  O474     1.0000 0.96700  0.96700  0.26890  Biso   1.000  O
  C652     1.0000 0.95000  0.95000  0.24830  Biso   1.000  C
  C653     1.0000 0.89710  0.89710  0.28640  Biso   1.000  C
  H563     1.0000 0.89090  0.89090  0.30700  Biso   1.000  H
  C654     1.0000 0.88290  0.88290  0.25990  Biso   1.000  C
  H564     1.0000 0.86710  0.86710  0.26290  Biso   1.000  H
  Ni46     1.0000 0.87101  0.37101  0.68773  Biso   1.000  Ni
  N46      1.0000 0.89160  0.39160  0.72910  Biso   1.000  N
  O475     1.0000 0.96220  0.46220  0.72190  Biso   1.000  O
  C655     1.0000 0.92040  0.42040  0.78250  Biso   1.000  C
  H565     1.0000 0.92980  0.42980  0.80060  Biso   1.000  H
  C656     1.0000 0.91550  0.41550  0.72510  Biso   1.000  C
  H566     1.0000 0.92170  0.42170  0.70440  Biso   1.000  H
  C657     1.0000 0.93010  0.43010  0.75200  Biso   1.000  C
  O476     1.0000 0.96700  0.46700  0.76890  Biso   1.000  O
  C658     1.0000 0.95000  0.45000  0.74830  Biso   1.000  C
  C659     1.0000 0.89710  0.39710  0.78640  Biso   1.000  C
  H567     1.0000 0.89090  0.39090  0.80700  Biso   1.000  H
  C660     1.0000 0.88290  0.38290  0.75990  Biso   1.000  C
  H568     1.0000 0.86710  0.36710  0.76290  Biso   1.000  H
  Ni47     1.0000 0.37101  0.87101  0.68773  Biso   1.000  Ni
  N47      1.0000 0.39160  0.89160  0.72910  Biso   1.000  N
  O477     1.0000 0.46220  0.96220  0.72190  Biso   1.000  O
  C661     1.0000 0.42040  0.92040  0.78250  Biso   1.000  C
  H569     1.0000 0.42980  0.92980  0.80060  Biso   1.000  H
  C662     1.0000 0.41550  0.91550  0.72510  Biso   1.000  C
  H570     1.0000 0.42170  0.92170  0.70440  Biso   1.000  H
  C663     1.0000 0.43010  0.93010  0.75200  Biso   1.000  C
  O478     1.0000 0.46700  0.96700  0.76890  Biso   1.000  O
  C664     1.0000 0.45000  0.95000  0.74830  Biso   1.000  C
  C665     1.0000 0.39710  0.89710  0.78640  Biso   1.000  C
  H571     1.0000 0.39090  0.89090  0.80700  Biso   1.000  H
  C666     1.0000 0.38290  0.88290  0.75990  Biso   1.000  C
  H572     1.0000 0.36710  0.86710  0.76290  Biso   1.000  H
  Ni48     1.0000 0.37101  0.37101  0.18773  Biso   1.000  Ni
  N48      1.0000 0.39160  0.39160  0.22910  Biso   1.000  N
  O479     1.0000 0.46220  0.46220  0.22190  Biso   1.000  O
  C667     1.0000 0.42040  0.42040  0.28250  Biso   1.000  C
  H573     1.0000 0.42980  0.42980  0.30060  Biso   1.000  H
  C668     1.0000 0.41550  0.41550  0.22510  Biso   1.000  C
  H574     1.0000 0.42170  0.42170  0.20440  Biso   1.000  H
  C669     1.0000 0.43010  0.43010  0.25200  Biso   1.000  C
  O480     1.0000 0.46700  0.46700  0.26890  Biso   1.000  O
  C670     1.0000 0.45000  0.45000  0.24830  Biso   1.000  C
  C671     1.0000 0.39710  0.39710  0.28640  Biso   1.000  C
  H575     1.0000 0.39090  0.39090  0.30700  Biso   1.000  H
  C672     1.0000 0.38290  0.38290  0.25990  Biso   1.000  C
  H576     1.0000 0.36710  0.36710  0.26290  Biso   1.000  H
  Ni49     1.0000 0.12899  0.18773  0.87101  Biso   1.000  Ni
  N49      1.0000 0.10840  0.22910  0.89160  Biso   1.000  N
  O481     1.0000 0.03780  0.22190  0.96220  Biso   1.000  O
  C673     1.0000 0.07960  0.28250  0.92040  Biso   1.000  C
  H577     1.0000 0.07020  0.30060  0.92980  Biso   1.000  H
  C674     1.0000 0.08450  0.22510  0.91550  Biso   1.000  C
  H578     1.0000 0.07830  0.20440  0.92170  Biso   1.000  H
  C675     1.0000 0.06990  0.25200  0.93010  Biso   1.000  C
  O482     1.0000 0.03300  0.26890  0.96700  Biso   1.000  O
  C676     1.0000 0.05000  0.24830  0.95000  Biso   1.000  C
  C677     1.0000 0.10290  0.28640  0.89710  Biso   1.000  C
  H579     1.0000 0.10910  0.30700  0.89090  Biso   1.000  H
  C678     1.0000 0.11710  0.25990  0.88290  Biso   1.000  C
  H580     1.0000 0.13290  0.26290  0.86710  Biso   1.000  H
  Ni50     1.0000 0.12899  0.68773  0.37101  Biso   1.000  Ni
  N50      1.0000 0.10840  0.72910  0.39160  Biso   1.000  N
  O483     1.0000 0.03780  0.72190  0.46220  Biso   1.000  O
  C679     1.0000 0.07960  0.78250  0.42040  Biso   1.000  C
  H581     1.0000 0.07020  0.80060  0.42980  Biso   1.000  H
  C680     1.0000 0.08450  0.72510  0.41550  Biso   1.000  C
  H582     1.0000 0.07830  0.70440  0.42170  Biso   1.000  H
  C681     1.0000 0.06990  0.75200  0.43010  Biso   1.000  C
  O484     1.0000 0.03300  0.76890  0.46700  Biso   1.000  O
  C682     1.0000 0.05000  0.74830  0.45000  Biso   1.000  C
  C683     1.0000 0.10290  0.78640  0.39710  Biso   1.000  C
  H583     1.0000 0.10910  0.80700  0.39090  Biso   1.000  H
  C684     1.0000 0.11710  0.75990  0.38290  Biso   1.000  C
  H584     1.0000 0.13290  0.76290  0.36710  Biso   1.000  H
  Ni51     1.0000 0.62899  0.18773  0.37101  Biso   1.000  Ni
  N51      1.0000 0.60840  0.22910  0.39160  Biso   1.000  N
  O485     1.0000 0.53780  0.22190  0.46220  Biso   1.000  O
  C685     1.0000 0.57960  0.28250  0.42040  Biso   1.000  C
  H585     1.0000 0.57020  0.30060  0.42980  Biso   1.000  H
  C686     1.0000 0.58450  0.22510  0.41550  Biso   1.000  C
  H586     1.0000 0.57830  0.20440  0.42170  Biso   1.000  H
  C687     1.0000 0.56990  0.25200  0.43010  Biso   1.000  C
  O486     1.0000 0.53300  0.26890  0.46700  Biso   1.000  O
  C688     1.0000 0.55000  0.24830  0.45000  Biso   1.000  C
  C689     1.0000 0.60290  0.28640  0.39710  Biso   1.000  C
  H587     1.0000 0.60910  0.30700  0.39090  Biso   1.000  H
  C690     1.0000 0.61710  0.25990  0.38290  Biso   1.000  C
  H588     1.0000 0.63290  0.26290  0.36710  Biso   1.000  H
  Ni52     1.0000 0.62899  0.68773  0.87101  Biso   1.000  Ni
  N52      1.0000 0.60840  0.72910  0.89160  Biso   1.000  N
  O487     1.0000 0.53780  0.72190  0.96220  Biso   1.000  O
  C691     1.0000 0.57960  0.78250  0.92040  Biso   1.000  C
  H589     1.0000 0.57020  0.80060  0.92980  Biso   1.000  H
  C692     1.0000 0.58450  0.72510  0.91550  Biso   1.000  C
  H590     1.0000 0.57830  0.70440  0.92170  Biso   1.000  H
  C693     1.0000 0.56990  0.75200  0.93010  Biso   1.000  C
  O488     1.0000 0.53300  0.76890  0.96700  Biso   1.000  O
  C694     1.0000 0.55000  0.74830  0.95000  Biso   1.000  C
  C695     1.0000 0.60290  0.78640  0.89710  Biso   1.000  C
  H591     1.0000 0.60910  0.80700  0.89090  Biso   1.000  H
  C696     1.0000 0.61710  0.75990  0.88290  Biso   1.000  C
  H592     1.0000 0.63290  0.76290  0.86710  Biso   1.000  H
  Ni53     1.0000 0.87101  0.81227  0.87101  Biso   1.000  Ni
  N53      1.0000 0.89160  0.77090  0.89160  Biso   1.000  N
  O489     1.0000 0.96220  0.77810  0.96220  Biso   1.000  O
  C697     1.0000 0.92040  0.71750  0.92040  Biso   1.000  C
  H593     1.0000 0.92980  0.69940  0.92980  Biso   1.000  H
  C698     1.0000 0.91550  0.77490  0.91550  Biso   1.000  C
  H594     1.0000 0.92170  0.79560  0.92170  Biso   1.000  H
  C699     1.0000 0.93010  0.74800  0.93010  Biso   1.000  C
  O490     1.0000 0.96700  0.73110  0.96700  Biso   1.000  O
  C700     1.0000 0.95000  0.75170  0.95000  Biso   1.000  C
  C701     1.0000 0.89710  0.71360  0.89710  Biso   1.000  C
  H595     1.0000 0.89090  0.69300  0.89090  Biso   1.000  H
  C702     1.0000 0.88290  0.74010  0.88290  Biso   1.000  C
  H596     1.0000 0.86710  0.73710  0.86710  Biso   1.000  H
  Ni54     1.0000 0.87101  0.31227  0.37101  Biso   1.000  Ni
  N54      1.0000 0.89160  0.27090  0.39160  Biso   1.000  N
  O491     1.0000 0.96220  0.27810  0.46220  Biso   1.000  O
  C703     1.0000 0.92040  0.21750  0.42040  Biso   1.000  C
  H597     1.0000 0.92980  0.19940  0.42980  Biso   1.000  H
  C704     1.0000 0.91550  0.27490  0.41550  Biso   1.000  C
  H598     1.0000 0.92170  0.29560  0.42170  Biso   1.000  H
  C705     1.0000 0.93010  0.24800  0.43010  Biso   1.000  C
  O492     1.0000 0.96700  0.23110  0.46700  Biso   1.000  O
  C706     1.0000 0.95000  0.25170  0.45000  Biso   1.000  C
  C707     1.0000 0.89710  0.21360  0.39710  Biso   1.000  C
  H599     1.0000 0.89090  0.19300  0.39090  Biso   1.000  H
  C708     1.0000 0.88290  0.24010  0.38290  Biso   1.000  C
  H600     1.0000 0.86710  0.23710  0.36710  Biso   1.000  H
  Ni55     1.0000 0.37101  0.81227  0.37101  Biso   1.000  Ni
  N55      1.0000 0.39160  0.77090  0.39160  Biso   1.000  N
  O493     1.0000 0.46220  0.77810  0.46220  Biso   1.000  O
  C709     1.0000 0.42040  0.71750  0.42040  Biso   1.000  C
  H601     1.0000 0.42980  0.69940  0.42980  Biso   1.000  H
  C710     1.0000 0.41550  0.77490  0.41550  Biso   1.000  C
  H602     1.0000 0.42170  0.79560  0.42170  Biso   1.000  H
  C711     1.0000 0.43010  0.74800  0.43010  Biso   1.000  C
  O494     1.0000 0.46700  0.73110  0.46700  Biso   1.000  O
  C712     1.0000 0.45000  0.75170  0.45000  Biso   1.000  C
  C713     1.0000 0.39710  0.71360  0.39710  Biso   1.000  C
  H603     1.0000 0.39090  0.69300  0.39090  Biso   1.000  H
  C714     1.0000 0.38290  0.74010  0.38290  Biso   1.000  C
  H604     1.0000 0.36710  0.73710  0.36710  Biso   1.000  H
  Ni56     1.0000 0.37101  0.31227  0.87101  Biso   1.000  Ni
  N56      1.0000 0.39160  0.27090  0.89160  Biso   1.000  N
  O495     1.0000 0.46220  0.27810  0.96220  Biso   1.000  O
  C715     1.0000 0.42040  0.21750  0.92040  Biso   1.000  C
  H605     1.0000 0.42980  0.19940  0.92980  Biso   1.000  H
  C716     1.0000 0.41550  0.27490  0.91550  Biso   1.000  C
  H606     1.0000 0.42170  0.29560  0.92170  Biso   1.000  H
  C717     1.0000 0.43010  0.24800  0.93010  Biso   1.000  C
  O496     1.0000 0.46700  0.23110  0.96700  Biso   1.000  O
  C718     1.0000 0.45000  0.25170  0.95000  Biso   1.000  C
  C719     1.0000 0.39710  0.21360  0.89710  Biso   1.000  C
  H607     1.0000 0.39090  0.19300  0.89090  Biso   1.000  H
  C720     1.0000 0.38290  0.24010  0.88290  Biso   1.000  C
  H608     1.0000 0.36710  0.23710  0.86710  Biso   1.000  H
  Ni57     1.0000 0.12899  0.81227  0.12899  Biso   1.000  Ni
  N57      1.0000 0.10840  0.77090  0.10840  Biso   1.000  N
  O497     1.0000 0.03780  0.77810  0.03780  Biso   1.000  O
  C721     1.0000 0.07960  0.71750  0.07960  Biso   1.000  C
  H609     1.0000 0.07020  0.69940  0.07020  Biso   1.000  H
  C722     1.0000 0.08450  0.77490  0.08450  Biso   1.000  C
  H610     1.0000 0.07830  0.79560  0.07830  Biso   1.000  H
  C723     1.0000 0.06990  0.74800  0.06990  Biso   1.000  C
  O498     1.0000 0.03300  0.73110  0.03300  Biso   1.000  O
  C724     1.0000 0.05000  0.75170  0.05000  Biso   1.000  C
  C725     1.0000 0.10290  0.71360  0.10290  Biso   1.000  C
  H611     1.0000 0.10910  0.69300  0.10910  Biso   1.000  H
  C726     1.0000 0.11710  0.74010  0.11710  Biso   1.000  C
  H612     1.0000 0.13290  0.73710  0.13290  Biso   1.000  H
  Ni58     1.0000 0.12899  0.31227  0.62899  Biso   1.000  Ni
  N58      1.0000 0.10840  0.27090  0.60840  Biso   1.000  N
  O499     1.0000 0.03780  0.27810  0.53780  Biso   1.000  O
  C727     1.0000 0.07960  0.21750  0.57960  Biso   1.000  C
  H613     1.0000 0.07020  0.19940  0.57020  Biso   1.000  H
  C728     1.0000 0.08450  0.27490  0.58450  Biso   1.000  C
  H614     1.0000 0.07830  0.29560  0.57830  Biso   1.000  H
  C729     1.0000 0.06990  0.24800  0.56990  Biso   1.000  C
  O500     1.0000 0.03300  0.23110  0.53300  Biso   1.000  O
  C730     1.0000 0.05000  0.25170  0.55000  Biso   1.000  C
  C731     1.0000 0.10290  0.21360  0.60290  Biso   1.000  C
  H615     1.0000 0.10910  0.19300  0.60910  Biso   1.000  H
  C732     1.0000 0.11710  0.24010  0.61710  Biso   1.000  C
  H616     1.0000 0.13290  0.23710  0.63290  Biso   1.000  H
  Ni59     1.0000 0.62899  0.81227  0.62899  Biso   1.000  Ni
  N59      1.0000 0.60840  0.77090  0.60840  Biso   1.000  N
  O501     1.0000 0.53780  0.77810  0.53780  Biso   1.000  O
  C733     1.0000 0.57960  0.71750  0.57960  Biso   1.000  C
  H617     1.0000 0.57020  0.69940  0.57020  Biso   1.000  H
  C734     1.0000 0.58450  0.77490  0.58450  Biso   1.000  C
  H618     1.0000 0.57830  0.79560  0.57830  Biso   1.000  H
  C735     1.0000 0.56990  0.74800  0.56990  Biso   1.000  C
  O502     1.0000 0.53300  0.73110  0.53300  Biso   1.000  O
  C736     1.0000 0.55000  0.75170  0.55000  Biso   1.000  C
  C737     1.0000 0.60290  0.71360  0.60290  Biso   1.000  C
  H619     1.0000 0.60910  0.69300  0.60910  Biso   1.000  H
  C738     1.0000 0.61710  0.74010  0.61710  Biso   1.000  C
  H620     1.0000 0.63290  0.73710  0.63290  Biso   1.000  H
  Ni60     1.0000 0.62899  0.31227  0.12899  Biso   1.000  Ni
  N60      1.0000 0.60840  0.27090  0.10840  Biso   1.000  N
  O503     1.0000 0.53780  0.27810  0.03780  Biso   1.000  O
  C739     1.0000 0.57960  0.21750  0.07960  Biso   1.000  C
  H621     1.0000 0.57020  0.19940  0.07020  Biso   1.000  H
  C740     1.0000 0.58450  0.27490  0.08450  Biso   1.000  C
  H622     1.0000 0.57830  0.29560  0.07830  Biso   1.000  H
  C741     1.0000 0.56990  0.24800  0.06990  Biso   1.000  C
  O504     1.0000 0.53300  0.23110  0.03300  Biso   1.000  O
  C742     1.0000 0.55000  0.25170  0.05000  Biso   1.000  C
  C743     1.0000 0.60290  0.21360  0.10290  Biso   1.000  C
  H623     1.0000 0.60910  0.19300  0.10910  Biso   1.000  H
  C744     1.0000 0.61710  0.24010  0.11710  Biso   1.000  C
  H624     1.0000 0.63290  0.23710  0.13290  Biso   1.000  H
  Ni61     1.0000 0.87101  0.18773  0.12899  Biso   1.000  Ni
  N61      1.0000 0.89160  0.22910  0.10840  Biso   1.000  N
  O505     1.0000 0.96220  0.22190  0.03780  Biso   1.000  O
  C745     1.0000 0.92040  0.28250  0.07960  Biso   1.000  C
  H625     1.0000 0.92980  0.30060  0.07020  Biso   1.000  H
  C746     1.0000 0.91550  0.22510  0.08450  Biso   1.000  C
  H626     1.0000 0.92170  0.20440  0.07830  Biso   1.000  H
  C747     1.0000 0.93010  0.25200  0.06990  Biso   1.000  C
  O506     1.0000 0.96700  0.26890  0.03300  Biso   1.000  O
  C748     1.0000 0.95000  0.24830  0.05000  Biso   1.000  C
  C749     1.0000 0.89710  0.28640  0.10290  Biso   1.000  C
  H627     1.0000 0.89090  0.30700  0.10910  Biso   1.000  H
  C750     1.0000 0.88290  0.25990  0.11710  Biso   1.000  C
  H628     1.0000 0.86710  0.26290  0.13290  Biso   1.000  H
  Ni62     1.0000 0.87101  0.68773  0.62899  Biso   1.000  Ni
  N62      1.0000 0.89160  0.72910  0.60840  Biso   1.000  N
  O507     1.0000 0.96220  0.72190  0.53780  Biso   1.000  O
  C751     1.0000 0.92040  0.78250  0.57960  Biso   1.000  C
  H629     1.0000 0.92980  0.80060  0.57020  Biso   1.000  H
  C752     1.0000 0.91550  0.72510  0.58450  Biso   1.000  C
  H630     1.0000 0.92170  0.70440  0.57830  Biso   1.000  H
  C753     1.0000 0.93010  0.75200  0.56990  Biso   1.000  C
  O508     1.0000 0.96700  0.76890  0.53300  Biso   1.000  O
  C754     1.0000 0.95000  0.74830  0.55000  Biso   1.000  C
  C755     1.0000 0.89710  0.78640  0.60290  Biso   1.000  C
  H631     1.0000 0.89090  0.80700  0.60910  Biso   1.000  H
  C756     1.0000 0.88290  0.75990  0.61710  Biso   1.000  C
  H632     1.0000 0.86710  0.76290  0.63290  Biso   1.000  H
  Ni63     1.0000 0.37101  0.18773  0.62899  Biso   1.000  Ni
  N63      1.0000 0.39160  0.22910  0.60840  Biso   1.000  N
  O509     1.0000 0.46220  0.22190  0.53780  Biso   1.000  O
  C757     1.0000 0.42040  0.28250  0.57960  Biso   1.000  C
  H633     1.0000 0.42980  0.30060  0.57020  Biso   1.000  H
  C758     1.0000 0.41550  0.22510  0.58450  Biso   1.000  C
  H634     1.0000 0.42170  0.20440  0.57830  Biso   1.000  H
  C759     1.0000 0.43010  0.25200  0.56990  Biso   1.000  C
  O510     1.0000 0.46700  0.26890  0.53300  Biso   1.000  O
  C760     1.0000 0.45000  0.24830  0.55000  Biso   1.000  C
  C761     1.0000 0.39710  0.28640  0.60290  Biso   1.000  C
  H635     1.0000 0.39090  0.30700  0.60910  Biso   1.000  H
  C762     1.0000 0.38290  0.25990  0.61710  Biso   1.000  C
  H636     1.0000 0.36710  0.26290  0.63290  Biso   1.000  H
  Ni64     1.0000 0.37101  0.68773  0.12899  Biso   1.000  Ni
  N64      1.0000 0.39160  0.72910  0.10840  Biso   1.000  N
  O511     1.0000 0.46220  0.72190  0.03780  Biso   1.000  O
  C763     1.0000 0.42040  0.78250  0.07960  Biso   1.000  C
  H637     1.0000 0.42980  0.80060  0.07020  Biso   1.000  H
  C764     1.0000 0.41550  0.72510  0.08450  Biso   1.000  C
  H638     1.0000 0.42170  0.70440  0.07830  Biso   1.000  H
  C765     1.0000 0.43010  0.75200  0.06990  Biso   1.000  C
  O512     1.0000 0.46700  0.76890  0.03300  Biso   1.000  O
  C766     1.0000 0.45000  0.74830  0.05000  Biso   1.000  C
  C767     1.0000 0.39710  0.78640  0.10290  Biso   1.000  C
  H639     1.0000 0.39090  0.80700  0.10910  Biso   1.000  H
  C768     1.0000 0.38290  0.75990  0.11710  Biso   1.000  C
  H640     1.0000 0.36710  0.76290  0.13290  Biso   1.000  H
  Ni65     1.0000 0.18773  0.12899  0.87101  Biso   1.000  Ni
  N65      1.0000 0.22910  0.10840  0.89160  Biso   1.000  N
  O513     1.0000 0.22190  0.03780  0.96220  Biso   1.000  O
  C769     1.0000 0.28250  0.07960  0.92040  Biso   1.000  C
  H641     1.0000 0.30060  0.07020  0.92980  Biso   1.000  H
  C770     1.0000 0.22510  0.08450  0.91550  Biso   1.000  C
  H642     1.0000 0.20440  0.07830  0.92170  Biso   1.000  H
  C771     1.0000 0.25200  0.06990  0.93010  Biso   1.000  C
  O514     1.0000 0.26890  0.03300  0.96700  Biso   1.000  O
  C772     1.0000 0.24830  0.05000  0.95000  Biso   1.000  C
  C773     1.0000 0.28640  0.10290  0.89710  Biso   1.000  C
  H643     1.0000 0.30700  0.10910  0.89090  Biso   1.000  H
  C774     1.0000 0.25990  0.11710  0.88290  Biso   1.000  C
  H644     1.0000 0.26290  0.13290  0.86710  Biso   1.000  H
  Ni66     1.0000 0.18773  0.62899  0.37101  Biso   1.000  Ni
  N66      1.0000 0.22910  0.60840  0.39160  Biso   1.000  N
  O515     1.0000 0.22190  0.53780  0.46220  Biso   1.000  O
  C775     1.0000 0.28250  0.57960  0.42040  Biso   1.000  C
  H645     1.0000 0.30060  0.57020  0.42980  Biso   1.000  H
  C776     1.0000 0.22510  0.58450  0.41550  Biso   1.000  C
  H646     1.0000 0.20440  0.57830  0.42170  Biso   1.000  H
  C777     1.0000 0.25200  0.56990  0.43010  Biso   1.000  C
  O516     1.0000 0.26890  0.53300  0.46700  Biso   1.000  O
  C778     1.0000 0.24830  0.55000  0.45000  Biso   1.000  C
  C779     1.0000 0.28640  0.60290  0.39710  Biso   1.000  C
  H647     1.0000 0.30700  0.60910  0.39090  Biso   1.000  H
  C780     1.0000 0.25990  0.61710  0.38290  Biso   1.000  C
  H648     1.0000 0.26290  0.63290  0.36710  Biso   1.000  H
  Ni67     1.0000 0.68773  0.12899  0.37101  Biso   1.000  Ni
  N67      1.0000 0.72910  0.10840  0.39160  Biso   1.000  N
  O517     1.0000 0.72190  0.03780  0.46220  Biso   1.000  O
  C781     1.0000 0.78250  0.07960  0.42040  Biso   1.000  C
  H649     1.0000 0.80060  0.07020  0.42980  Biso   1.000  H
  C782     1.0000 0.72510  0.08450  0.41550  Biso   1.000  C
  H650     1.0000 0.70440  0.07830  0.42170  Biso   1.000  H
  C783     1.0000 0.75200  0.06990  0.43010  Biso   1.000  C
  O518     1.0000 0.76890  0.03300  0.46700  Biso   1.000  O
  C784     1.0000 0.74830  0.05000  0.45000  Biso   1.000  C
  C785     1.0000 0.78640  0.10290  0.39710  Biso   1.000  C
  H651     1.0000 0.80700  0.10910  0.39090  Biso   1.000  H
  C786     1.0000 0.75990  0.11710  0.38290  Biso   1.000  C
  H652     1.0000 0.76290  0.13290  0.36710  Biso   1.000  H
  Ni68     1.0000 0.68773  0.62899  0.87101  Biso   1.000  Ni
  N68      1.0000 0.72910  0.60840  0.89160  Biso   1.000  N
  O519     1.0000 0.72190  0.53780  0.96220  Biso   1.000  O
  C787     1.0000 0.78250  0.57960  0.92040  Biso   1.000  C
  H653     1.0000 0.80060  0.57020  0.92980  Biso   1.000  H
  C788     1.0000 0.72510  0.58450  0.91550  Biso   1.000  C
  H654     1.0000 0.70440  0.57830  0.92170  Biso   1.000  H
  C789     1.0000 0.75200  0.56990  0.93010  Biso   1.000  C
  O520     1.0000 0.76890  0.53300  0.96700  Biso   1.000  O
  C790     1.0000 0.74830  0.55000  0.95000  Biso   1.000  C
  C791     1.0000 0.78640  0.60290  0.89710  Biso   1.000  C
  H655     1.0000 0.80700  0.60910  0.89090  Biso   1.000  H
  C792     1.0000 0.75990  0.61710  0.88290  Biso   1.000  C
  H656     1.0000 0.76290  0.63290  0.86710  Biso   1.000  H
  Ni69     1.0000 0.81227  0.12899  0.12899  Biso   1.000  Ni
  N69      1.0000 0.77090  0.10840  0.10840  Biso   1.000  N
  O521     1.0000 0.77810  0.03780  0.03780  Biso   1.000  O
  C793     1.0000 0.71750  0.07960  0.07960  Biso   1.000  C
  H657     1.0000 0.69940  0.07020  0.07020  Biso   1.000  H
  C794     1.0000 0.77490  0.08450  0.08450  Biso   1.000  C
  H658     1.0000 0.79560  0.07830  0.07830  Biso   1.000  H
  C795     1.0000 0.74800  0.06990  0.06990  Biso   1.000  C
  O522     1.0000 0.73110  0.03300  0.03300  Biso   1.000  O
  C796     1.0000 0.75170  0.05000  0.05000  Biso   1.000  C
  C797     1.0000 0.71360  0.10290  0.10290  Biso   1.000  C
  H659     1.0000 0.69300  0.10910  0.10910  Biso   1.000  H
  C798     1.0000 0.74010  0.11710  0.11710  Biso   1.000  C
  H660     1.0000 0.73710  0.13290  0.13290  Biso   1.000  H
  Ni70     1.0000 0.81227  0.62899  0.62899  Biso   1.000  Ni
  N70      1.0000 0.77090  0.60840  0.60840  Biso   1.000  N
  O523     1.0000 0.77810  0.53780  0.53780  Biso   1.000  O
  C799     1.0000 0.71750  0.57960  0.57960  Biso   1.000  C
  H661     1.0000 0.69940  0.57020  0.57020  Biso   1.000  H
  C800     1.0000 0.77490  0.58450  0.58450  Biso   1.000  C
  H662     1.0000 0.79560  0.57830  0.57830  Biso   1.000  H
  C801     1.0000 0.74800  0.56990  0.56990  Biso   1.000  C
  O524     1.0000 0.73110  0.53300  0.53300  Biso   1.000  O
  C802     1.0000 0.75170  0.55000  0.55000  Biso   1.000  C
  C803     1.0000 0.71360  0.60290  0.60290  Biso   1.000  C
  H663     1.0000 0.69300  0.60910  0.60910  Biso   1.000  H
  C804     1.0000 0.74010  0.61710  0.61710  Biso   1.000  C
  H664     1.0000 0.73710  0.63290  0.63290  Biso   1.000  H
  Ni71     1.0000 0.31227  0.12899  0.62899  Biso   1.000  Ni
  N71      1.0000 0.27090  0.10840  0.60840  Biso   1.000  N
  O525     1.0000 0.27810  0.03780  0.53780  Biso   1.000  O
  C805     1.0000 0.21750  0.07960  0.57960  Biso   1.000  C
  H665     1.0000 0.19940  0.07020  0.57020  Biso   1.000  H
  C806     1.0000 0.27490  0.08450  0.58450  Biso   1.000  C
  H666     1.0000 0.29560  0.07830  0.57830  Biso   1.000  H
  C807     1.0000 0.24800  0.06990  0.56990  Biso   1.000  C
  O526     1.0000 0.23110  0.03300  0.53300  Biso   1.000  O
  C808     1.0000 0.25170  0.05000  0.55000  Biso   1.000  C
  C809     1.0000 0.21360  0.10290  0.60290  Biso   1.000  C
  H667     1.0000 0.19300  0.10910  0.60910  Biso   1.000  H
  C810     1.0000 0.24010  0.11710  0.61710  Biso   1.000  C
  H668     1.0000 0.23710  0.13290  0.63290  Biso   1.000  H
  Ni72     1.0000 0.31227  0.62899  0.12899  Biso   1.000  Ni
  N72      1.0000 0.27090  0.60840  0.10840  Biso   1.000  N
  O527     1.0000 0.27810  0.53780  0.03780  Biso   1.000  O
  C811     1.0000 0.21750  0.57960  0.07960  Biso   1.000  C
  H669     1.0000 0.19940  0.57020  0.07020  Biso   1.000  H
  C812     1.0000 0.27490  0.58450  0.08450  Biso   1.000  C
  H670     1.0000 0.29560  0.57830  0.07830  Biso   1.000  H
  C813     1.0000 0.24800  0.56990  0.06990  Biso   1.000  C
  O528     1.0000 0.23110  0.53300  0.03300  Biso   1.000  O
  C814     1.0000 0.25170  0.55000  0.05000  Biso   1.000  C
  C815     1.0000 0.21360  0.60290  0.10290  Biso   1.000  C
  H671     1.0000 0.19300  0.60910  0.10910  Biso   1.000  H
  C816     1.0000 0.24010  0.61710  0.11710  Biso   1.000  C
  H672     1.0000 0.23710  0.63290  0.13290  Biso   1.000  H
  Ni73     1.0000 0.81227  0.87101  0.87101  Biso   1.000  Ni
  N73      1.0000 0.77090  0.89160  0.89160  Biso   1.000  N
  O529     1.0000 0.77810  0.96220  0.96220  Biso   1.000  O
  C817     1.0000 0.71750  0.92040  0.92040  Biso   1.000  C
  H673     1.0000 0.69940  0.92980  0.92980  Biso   1.000  H
  C818     1.0000 0.77490  0.91550  0.91550  Biso   1.000  C
  H674     1.0000 0.79560  0.92170  0.92170  Biso   1.000  H
  C819     1.0000 0.74800  0.93010  0.93010  Biso   1.000  C
  O530     1.0000 0.73110  0.96700  0.96700  Biso   1.000  O
  C820     1.0000 0.75170  0.95000  0.95000  Biso   1.000  C
  C821     1.0000 0.71360  0.89710  0.89710  Biso   1.000  C
  H675     1.0000 0.69300  0.89090  0.89090  Biso   1.000  H
  C822     1.0000 0.74010  0.88290  0.88290  Biso   1.000  C
  H676     1.0000 0.73710  0.86710  0.86710  Biso   1.000  H
  Ni74     1.0000 0.81227  0.37101  0.37101  Biso   1.000  Ni
  N74      1.0000 0.77090  0.39160  0.39160  Biso   1.000  N
  O531     1.0000 0.77810  0.46220  0.46220  Biso   1.000  O
  C823     1.0000 0.71750  0.42040  0.42040  Biso   1.000  C
  H677     1.0000 0.69940  0.42980  0.42980  Biso   1.000  H
  C824     1.0000 0.77490  0.41550  0.41550  Biso   1.000  C
  H678     1.0000 0.79560  0.42170  0.42170  Biso   1.000  H
  C825     1.0000 0.74800  0.43010  0.43010  Biso   1.000  C
  O532     1.0000 0.73110  0.46700  0.46700  Biso   1.000  O
  C826     1.0000 0.75170  0.45000  0.45000  Biso   1.000  C
  C827     1.0000 0.71360  0.39710  0.39710  Biso   1.000  C
  H679     1.0000 0.69300  0.39090  0.39090  Biso   1.000  H
  C828     1.0000 0.74010  0.38290  0.38290  Biso   1.000  C
  H680     1.0000 0.73710  0.36710  0.36710  Biso   1.000  H
  Ni75     1.0000 0.31227  0.87101  0.37101  Biso   1.000  Ni
  N75      1.0000 0.27090  0.89160  0.39160  Biso   1.000  N
  O533     1.0000 0.27810  0.96220  0.46220  Biso   1.000  O
  C829     1.0000 0.21750  0.92040  0.42040  Biso   1.000  C
  H681     1.0000 0.19940  0.92980  0.42980  Biso   1.000  H
  C830     1.0000 0.27490  0.91550  0.41550  Biso   1.000  C
  H682     1.0000 0.29560  0.92170  0.42170  Biso   1.000  H
  C831     1.0000 0.24800  0.93010  0.43010  Biso   1.000  C
  O534     1.0000 0.23110  0.96700  0.46700  Biso   1.000  O
  C832     1.0000 0.25170  0.95000  0.45000  Biso   1.000  C
  C833     1.0000 0.21360  0.89710  0.39710  Biso   1.000  C
  H683     1.0000 0.19300  0.89090  0.39090  Biso   1.000  H
  C834     1.0000 0.24010  0.88290  0.38290  Biso   1.000  C
  H684     1.0000 0.23710  0.86710  0.36710  Biso   1.000  H
  Ni76     1.0000 0.31227  0.37101  0.87101  Biso   1.000  Ni
  N76      1.0000 0.27090  0.39160  0.89160  Biso   1.000  N
  O535     1.0000 0.27810  0.46220  0.96220  Biso   1.000  O
  C835     1.0000 0.21750  0.42040  0.92040  Biso   1.000  C
  H685     1.0000 0.19940  0.42980  0.92980  Biso   1.000  H
  C836     1.0000 0.27490  0.41550  0.91550  Biso   1.000  C
  H686     1.0000 0.29560  0.42170  0.92170  Biso   1.000  H
  C837     1.0000 0.24800  0.43010  0.93010  Biso   1.000  C
  O536     1.0000 0.23110  0.46700  0.96700  Biso   1.000  O
  C838     1.0000 0.25170  0.45000  0.95000  Biso   1.000  C
  C839     1.0000 0.21360  0.39710  0.89710  Biso   1.000  C
  H687     1.0000 0.19300  0.39090  0.89090  Biso   1.000  H
  C840     1.0000 0.24010  0.38290  0.88290  Biso   1.000  C
  H688     1.0000 0.23710  0.36710  0.86710  Biso   1.000  H
  Ni77     1.0000 0.18773  0.87101  0.12899  Biso   1.000  Ni
  N77      1.0000 0.22910  0.89160  0.10840  Biso   1.000  N
  O537     1.0000 0.22190  0.96220  0.03780  Biso   1.000  O
  C841     1.0000 0.28250  0.92040  0.07960  Biso   1.000  C
  H689     1.0000 0.30060  0.92980  0.07020  Biso   1.000  H
  C842     1.0000 0.22510  0.91550  0.08450  Biso   1.000  C
  H690     1.0000 0.20440  0.92170  0.07830  Biso   1.000  H
  C843     1.0000 0.25200  0.93010  0.06990  Biso   1.000  C
  O538     1.0000 0.26890  0.96700  0.03300  Biso   1.000  O
  C844     1.0000 0.24830  0.95000  0.05000  Biso   1.000  C
  C845     1.0000 0.28640  0.89710  0.10290  Biso   1.000  C
  H691     1.0000 0.30700  0.89090  0.10910  Biso   1.000  H
  C846     1.0000 0.25990  0.88290  0.11710  Biso   1.000  C
  H692     1.0000 0.26290  0.86710  0.13290  Biso   1.000  H
  Ni78     1.0000 0.18773  0.37101  0.62899  Biso   1.000  Ni
  N78      1.0000 0.22910  0.39160  0.60840  Biso   1.000  N
  O539     1.0000 0.22190  0.46220  0.53780  Biso   1.000  O
  C847     1.0000 0.28250  0.42040  0.57960  Biso   1.000  C
  H693     1.0000 0.30060  0.42980  0.57020  Biso   1.000  H
  C848     1.0000 0.22510  0.41550  0.58450  Biso   1.000  C
  H694     1.0000 0.20440  0.42170  0.57830  Biso   1.000  H
  C849     1.0000 0.25200  0.43010  0.56990  Biso   1.000  C
  O540     1.0000 0.26890  0.46700  0.53300  Biso   1.000  O
  C850     1.0000 0.24830  0.45000  0.55000  Biso   1.000  C
  C851     1.0000 0.28640  0.39710  0.60290  Biso   1.000  C
  H695     1.0000 0.30700  0.39090  0.60910  Biso   1.000  H
  C852     1.0000 0.25990  0.38290  0.61710  Biso   1.000  C
  H696     1.0000 0.26290  0.36710  0.63290  Biso   1.000  H
  Ni79     1.0000 0.68773  0.87101  0.62899  Biso   1.000  Ni
  N79      1.0000 0.72910  0.89160  0.60840  Biso   1.000  N
  O541     1.0000 0.72190  0.96220  0.53780  Biso   1.000  O
  C853     1.0000 0.78250  0.92040  0.57960  Biso   1.000  C
  H697     1.0000 0.80060  0.92980  0.57020  Biso   1.000  H
  C854     1.0000 0.72510  0.91550  0.58450  Biso   1.000  C
  H698     1.0000 0.70440  0.92170  0.57830  Biso   1.000  H
  C855     1.0000 0.75200  0.93010  0.56990  Biso   1.000  C
  O542     1.0000 0.76890  0.96700  0.53300  Biso   1.000  O
  C856     1.0000 0.74830  0.95000  0.55000  Biso   1.000  C
  C857     1.0000 0.78640  0.89710  0.60290  Biso   1.000  C
  H699     1.0000 0.80700  0.89090  0.60910  Biso   1.000  H
  C858     1.0000 0.75990  0.88290  0.61710  Biso   1.000  C
  H700     1.0000 0.76290  0.86710  0.63290  Biso   1.000  H
  Ni80     1.0000 0.68773  0.37101  0.12899  Biso   1.000  Ni
  N80      1.0000 0.72910  0.39160  0.10840  Biso   1.000  N
  O543     1.0000 0.72190  0.46220  0.03780  Biso   1.000  O
  C859     1.0000 0.78250  0.42040  0.07960  Biso   1.000  C
  H701     1.0000 0.80060  0.42980  0.07020  Biso   1.000  H
  C860     1.0000 0.72510  0.41550  0.08450  Biso   1.000  C
  H702     1.0000 0.70440  0.42170  0.07830  Biso   1.000  H
  C861     1.0000 0.75200  0.43010  0.06990  Biso   1.000  C
  O544     1.0000 0.76890  0.46700  0.03300  Biso   1.000  O
  C862     1.0000 0.74830  0.45000  0.05000  Biso   1.000  C
  C863     1.0000 0.78640  0.39710  0.10290  Biso   1.000  C
  H703     1.0000 0.80700  0.39090  0.10910  Biso   1.000  H
  C864     1.0000 0.75990  0.38290  0.11710  Biso   1.000  C
  H704     1.0000 0.76290  0.36710  0.13290  Biso   1.000  H
  Ni81     1.0000 0.12899  0.12899  0.81227  Biso   1.000  Ni
  N81      1.0000 0.10840  0.10840  0.77090  Biso   1.000  N
  O545     1.0000 0.03780  0.03780  0.77810  Biso   1.000  O
  C865     1.0000 0.07960  0.07960  0.71750  Biso   1.000  C
  H705     1.0000 0.07020  0.07020  0.69940  Biso   1.000  H
  C866     1.0000 0.08450  0.08450  0.77490  Biso   1.000  C
  H706     1.0000 0.07830  0.07830  0.79560  Biso   1.000  H
  C867     1.0000 0.06990  0.06990  0.74800  Biso   1.000  C
  O546     1.0000 0.03300  0.03300  0.73110  Biso   1.000  O
  C868     1.0000 0.05000  0.05000  0.75170  Biso   1.000  C
  C869     1.0000 0.10290  0.10290  0.71360  Biso   1.000  C
  H707     1.0000 0.10910  0.10910  0.69300  Biso   1.000  H
  C870     1.0000 0.11710  0.11710  0.74010  Biso   1.000  C
  H708     1.0000 0.13290  0.13290  0.73710  Biso   1.000  H
  Ni82     1.0000 0.12899  0.62899  0.31227  Biso   1.000  Ni
  N82      1.0000 0.10840  0.60840  0.27090  Biso   1.000  N
  O547     1.0000 0.03780  0.53780  0.27810  Biso   1.000  O
  C871     1.0000 0.07960  0.57960  0.21750  Biso   1.000  C
  H709     1.0000 0.07020  0.57020  0.19940  Biso   1.000  H
  C872     1.0000 0.08450  0.58450  0.27490  Biso   1.000  C
  H710     1.0000 0.07830  0.57830  0.29560  Biso   1.000  H
  C873     1.0000 0.06990  0.56990  0.24800  Biso   1.000  C
  O548     1.0000 0.03300  0.53300  0.23110  Biso   1.000  O
  C874     1.0000 0.05000  0.55000  0.25170  Biso   1.000  C
  C875     1.0000 0.10290  0.60290  0.21360  Biso   1.000  C
  H711     1.0000 0.10910  0.60910  0.19300  Biso   1.000  H
  C876     1.0000 0.11710  0.61710  0.24010  Biso   1.000  C
  H712     1.0000 0.13290  0.63290  0.23710  Biso   1.000  H
  Ni83     1.0000 0.62899  0.12899  0.31227  Biso   1.000  Ni
  N83      1.0000 0.60840  0.10840  0.27090  Biso   1.000  N
  O549     1.0000 0.53780  0.03780  0.27810  Biso   1.000  O
  C877     1.0000 0.57960  0.07960  0.21750  Biso   1.000  C
  H713     1.0000 0.57020  0.07020  0.19940  Biso   1.000  H
  C878     1.0000 0.58450  0.08450  0.27490  Biso   1.000  C
  H714     1.0000 0.57830  0.07830  0.29560  Biso   1.000  H
  C879     1.0000 0.56990  0.06990  0.24800  Biso   1.000  C
  O550     1.0000 0.53300  0.03300  0.23110  Biso   1.000  O
  C880     1.0000 0.55000  0.05000  0.25170  Biso   1.000  C
  C881     1.0000 0.60290  0.10290  0.21360  Biso   1.000  C
  H715     1.0000 0.60910  0.10910  0.19300  Biso   1.000  H
  C882     1.0000 0.61710  0.11710  0.24010  Biso   1.000  C
  H716     1.0000 0.63290  0.13290  0.23710  Biso   1.000  H
  Ni84     1.0000 0.62899  0.62899  0.81227  Biso   1.000  Ni
  N84      1.0000 0.60840  0.60840  0.77090  Biso   1.000  N
  O551     1.0000 0.53780  0.53780  0.77810  Biso   1.000  O
  C883     1.0000 0.57960  0.57960  0.71750  Biso   1.000  C
  H717     1.0000 0.57020  0.57020  0.69940  Biso   1.000  H
  C884     1.0000 0.58450  0.58450  0.77490  Biso   1.000  C
  H718     1.0000 0.57830  0.57830  0.79560  Biso   1.000  H
  C885     1.0000 0.56990  0.56990  0.74800  Biso   1.000  C
  O552     1.0000 0.53300  0.53300  0.73110  Biso   1.000  O
  C886     1.0000 0.55000  0.55000  0.75170  Biso   1.000  C
  C887     1.0000 0.60290  0.60290  0.71360  Biso   1.000  C
  H719     1.0000 0.60910  0.60910  0.69300  Biso   1.000  H
  C888     1.0000 0.61710  0.61710  0.74010  Biso   1.000  C
  H720     1.0000 0.63290  0.63290  0.73710  Biso   1.000  H
  Ni85     1.0000 0.12899  0.87101  0.18773  Biso   1.000  Ni
  N85      1.0000 0.10840  0.89160  0.22910  Biso   1.000  N
  O553     1.0000 0.03780  0.96220  0.22190  Biso   1.000  O
  C889     1.0000 0.07960  0.92040  0.28250  Biso   1.000  C
  H721     1.0000 0.07020  0.92980  0.30060  Biso   1.000  H
  C890     1.0000 0.08450  0.91550  0.22510  Biso   1.000  C
  H722     1.0000 0.07830  0.92170  0.20440  Biso   1.000  H
  C891     1.0000 0.06990  0.93010  0.25200  Biso   1.000  C
  O554     1.0000 0.03300  0.96700  0.26890  Biso   1.000  O
  C892     1.0000 0.05000  0.95000  0.24830  Biso   1.000  C
  C893     1.0000 0.10290  0.89710  0.28640  Biso   1.000  C
  H723     1.0000 0.10910  0.89090  0.30700  Biso   1.000  H
  C894     1.0000 0.11710  0.88290  0.25990  Biso   1.000  C
  H724     1.0000 0.13290  0.86710  0.26290  Biso   1.000  H
  Ni86     1.0000 0.12899  0.37101  0.68773  Biso   1.000  Ni
  N86      1.0000 0.10840  0.39160  0.72910  Biso   1.000  N
  O555     1.0000 0.03780  0.46220  0.72190  Biso   1.000  O
  C895     1.0000 0.07960  0.42040  0.78250  Biso   1.000  C
  H725     1.0000 0.07020  0.42980  0.80060  Biso   1.000  H
  C896     1.0000 0.08450  0.41550  0.72510  Biso   1.000  C
  H726     1.0000 0.07830  0.42170  0.70440  Biso   1.000  H
  C897     1.0000 0.06990  0.43010  0.75200  Biso   1.000  C
  O556     1.0000 0.03300  0.46700  0.76890  Biso   1.000  O
  C898     1.0000 0.05000  0.45000  0.74830  Biso   1.000  C
  C899     1.0000 0.10290  0.39710  0.78640  Biso   1.000  C
  H727     1.0000 0.10910  0.39090  0.80700  Biso   1.000  H
  C900     1.0000 0.11710  0.38290  0.75990  Biso   1.000  C
  H728     1.0000 0.13290  0.36710  0.76290  Biso   1.000  H
  Ni87     1.0000 0.62899  0.87101  0.68773  Biso   1.000  Ni
  N87      1.0000 0.60840  0.89160  0.72910  Biso   1.000  N
  O557     1.0000 0.53780  0.96220  0.72190  Biso   1.000  O
  C901     1.0000 0.57960  0.92040  0.78250  Biso   1.000  C
  H729     1.0000 0.57020  0.92980  0.80060  Biso   1.000  H
  C902     1.0000 0.58450  0.91550  0.72510  Biso   1.000  C
  H730     1.0000 0.57830  0.92170  0.70440  Biso   1.000  H
  C903     1.0000 0.56990  0.93010  0.75200  Biso   1.000  C
  O558     1.0000 0.53300  0.96700  0.76890  Biso   1.000  O
  C904     1.0000 0.55000  0.95000  0.74830  Biso   1.000  C
  C905     1.0000 0.60290  0.89710  0.78640  Biso   1.000  C
  H731     1.0000 0.60910  0.89090  0.80700  Biso   1.000  H
  C906     1.0000 0.61710  0.88290  0.75990  Biso   1.000  C
  H732     1.0000 0.63290  0.86710  0.76290  Biso   1.000  H
  Ni88     1.0000 0.62899  0.37101  0.18773  Biso   1.000  Ni
  N88      1.0000 0.60840  0.39160  0.22910  Biso   1.000  N
  O559     1.0000 0.53780  0.46220  0.22190  Biso   1.000  O
  C907     1.0000 0.57960  0.42040  0.28250  Biso   1.000  C
  H733     1.0000 0.57020  0.42980  0.30060  Biso   1.000  H
  C908     1.0000 0.58450  0.41550  0.22510  Biso   1.000  C
  H734     1.0000 0.57830  0.42170  0.20440  Biso   1.000  H
  C909     1.0000 0.56990  0.43010  0.25200  Biso   1.000  C
  O560     1.0000 0.53300  0.46700  0.26890  Biso   1.000  O
  C910     1.0000 0.55000  0.45000  0.24830  Biso   1.000  C
  C911     1.0000 0.60290  0.39710  0.28640  Biso   1.000  C
  H735     1.0000 0.60910  0.39090  0.30700  Biso   1.000  H
  C912     1.0000 0.61710  0.38290  0.25990  Biso   1.000  C
  H736     1.0000 0.63290  0.36710  0.26290  Biso   1.000  H
  Ni89     1.0000 0.87101  0.12899  0.18773  Biso   1.000  Ni
  N89      1.0000 0.89160  0.10840  0.22910  Biso   1.000  N
  O561     1.0000 0.96220  0.03780  0.22190  Biso   1.000  O
  C913     1.0000 0.92040  0.07960  0.28250  Biso   1.000  C
  H737     1.0000 0.92980  0.07020  0.30060  Biso   1.000  H
  C914     1.0000 0.91550  0.08450  0.22510  Biso   1.000  C
  H738     1.0000 0.92170  0.07830  0.20440  Biso   1.000  H
  C915     1.0000 0.93010  0.06990  0.25200  Biso   1.000  C
  O562     1.0000 0.96700  0.03300  0.26890  Biso   1.000  O
  C916     1.0000 0.95000  0.05000  0.24830  Biso   1.000  C
  C917     1.0000 0.89710  0.10290  0.28640  Biso   1.000  C
  H739     1.0000 0.89090  0.10910  0.30700  Biso   1.000  H
  C918     1.0000 0.88290  0.11710  0.25990  Biso   1.000  C
  H740     1.0000 0.86710  0.13290  0.26290  Biso   1.000  H
  Ni90     1.0000 0.87101  0.62899  0.68773  Biso   1.000  Ni
  N90      1.0000 0.89160  0.60840  0.72910  Biso   1.000  N
  O563     1.0000 0.96220  0.53780  0.72190  Biso   1.000  O
  C919     1.0000 0.92040  0.57960  0.78250  Biso   1.000  C
  H741     1.0000 0.92980  0.57020  0.80060  Biso   1.000  H
  C920     1.0000 0.91550  0.58450  0.72510  Biso   1.000  C
  H742     1.0000 0.92170  0.57830  0.70440  Biso   1.000  H
  C921     1.0000 0.93010  0.56990  0.75200  Biso   1.000  C
  O564     1.0000 0.96700  0.53300  0.76890  Biso   1.000  O
  C922     1.0000 0.95000  0.55000  0.74830  Biso   1.000  C
  C923     1.0000 0.89710  0.60290  0.78640  Biso   1.000  C
  H743     1.0000 0.89090  0.60910  0.80700  Biso   1.000  H
  C924     1.0000 0.88290  0.61710  0.75990  Biso   1.000  C
  H744     1.0000 0.86710  0.63290  0.76290  Biso   1.000  H
  Ni91     1.0000 0.37101  0.12899  0.68773  Biso   1.000  Ni
  N91      1.0000 0.39160  0.10840  0.72910  Biso   1.000  N
  O565     1.0000 0.46220  0.03780  0.72190  Biso   1.000  O
  C925     1.0000 0.42040  0.07960  0.78250  Biso   1.000  C
  H745     1.0000 0.42980  0.07020  0.80060  Biso   1.000  H
  C926     1.0000 0.41550  0.08450  0.72510  Biso   1.000  C
  H746     1.0000 0.42170  0.07830  0.70440  Biso   1.000  H
  C927     1.0000 0.43010  0.06990  0.75200  Biso   1.000  C
  O566     1.0000 0.46700  0.03300  0.76890  Biso   1.000  O
  C928     1.0000 0.45000  0.05000  0.74830  Biso   1.000  C
  C929     1.0000 0.39710  0.10290  0.78640  Biso   1.000  C
  H747     1.0000 0.39090  0.10910  0.80700  Biso   1.000  H
  C930     1.0000 0.38290  0.11710  0.75990  Biso   1.000  C
  H748     1.0000 0.36710  0.13290  0.76290  Biso   1.000  H
  Ni92     1.0000 0.37101  0.62899  0.18773  Biso   1.000  Ni
  N92      1.0000 0.39160  0.60840  0.22910  Biso   1.000  N
  O567     1.0000 0.46220  0.53780  0.22190  Biso   1.000  O
  C931     1.0000 0.42040  0.57960  0.28250  Biso   1.000  C
  H749     1.0000 0.42980  0.57020  0.30060  Biso   1.000  H
  C932     1.0000 0.41550  0.58450  0.22510  Biso   1.000  C
  H750     1.0000 0.42170  0.57830  0.20440  Biso   1.000  H
  C933     1.0000 0.43010  0.56990  0.25200  Biso   1.000  C
  O568     1.0000 0.46700  0.53300  0.26890  Biso   1.000  O
  C934     1.0000 0.45000  0.55000  0.24830  Biso   1.000  C
  C935     1.0000 0.39710  0.60290  0.28640  Biso   1.000  C
  H751     1.0000 0.39090  0.60910  0.30700  Biso   1.000  H
  C936     1.0000 0.38290  0.61710  0.25990  Biso   1.000  C
  H752     1.0000 0.36710  0.63290  0.26290  Biso   1.000  H
  Ni93     1.0000 0.87101  0.87101  0.81227  Biso   1.000  Ni
  N93      1.0000 0.89160  0.89160  0.77090  Biso   1.000  N
  O569     1.0000 0.96220  0.96220  0.77810  Biso   1.000  O
  C937     1.0000 0.92040  0.92040  0.71750  Biso   1.000  C
  H753     1.0000 0.92980  0.92980  0.69940  Biso   1.000  H
  C938     1.0000 0.91550  0.91550  0.77490  Biso   1.000  C
  H754     1.0000 0.92170  0.92170  0.79560  Biso   1.000  H
  C939     1.0000 0.93010  0.93010  0.74800  Biso   1.000  C
  O570     1.0000 0.96700  0.96700  0.73110  Biso   1.000  O
  C940     1.0000 0.95000  0.95000  0.75170  Biso   1.000  C
  C941     1.0000 0.89710  0.89710  0.71360  Biso   1.000  C
  H755     1.0000 0.89090  0.89090  0.69300  Biso   1.000  H
  C942     1.0000 0.88290  0.88290  0.74010  Biso   1.000  C
  H756     1.0000 0.86710  0.86710  0.73710  Biso   1.000  H
  Ni94     1.0000 0.87101  0.37101  0.31227  Biso   1.000  Ni
  N94      1.0000 0.89160  0.39160  0.27090  Biso   1.000  N
  O571     1.0000 0.96220  0.46220  0.27810  Biso   1.000  O
  C943     1.0000 0.92040  0.42040  0.21750  Biso   1.000  C
  H757     1.0000 0.92980  0.42980  0.19940  Biso   1.000  H
  C944     1.0000 0.91550  0.41550  0.27490  Biso   1.000  C
  H758     1.0000 0.92170  0.42170  0.29560  Biso   1.000  H
  C945     1.0000 0.93010  0.43010  0.24800  Biso   1.000  C
  O572     1.0000 0.96700  0.46700  0.23110  Biso   1.000  O
  C946     1.0000 0.95000  0.45000  0.25170  Biso   1.000  C
  C947     1.0000 0.89710  0.39710  0.21360  Biso   1.000  C
  H759     1.0000 0.89090  0.39090  0.19300  Biso   1.000  H
  C948     1.0000 0.88290  0.38290  0.24010  Biso   1.000  C
  H760     1.0000 0.86710  0.36710  0.23710  Biso   1.000  H
  Ni95     1.0000 0.37101  0.87101  0.31227  Biso   1.000  Ni
  N95      1.0000 0.39160  0.89160  0.27090  Biso   1.000  N
  O573     1.0000 0.46220  0.96220  0.27810  Biso   1.000  O
  C949     1.0000 0.42040  0.92040  0.21750  Biso   1.000  C
  H761     1.0000 0.42980  0.92980  0.19940  Biso   1.000  H
  C950     1.0000 0.41550  0.91550  0.27490  Biso   1.000  C
  H762     1.0000 0.42170  0.92170  0.29560  Biso   1.000  H
  C951     1.0000 0.43010  0.93010  0.24800  Biso   1.000  C
  O574     1.0000 0.46700  0.96700  0.23110  Biso   1.000  O
  C952     1.0000 0.45000  0.95000  0.25170  Biso   1.000  C
  C953     1.0000 0.39710  0.89710  0.21360  Biso   1.000  C
  H763     1.0000 0.39090  0.89090  0.19300  Biso   1.000  H
  C954     1.0000 0.38290  0.88290  0.24010  Biso   1.000  C
  H764     1.0000 0.36710  0.86710  0.23710  Biso   1.000  H
  Ni96     1.0000 0.37101  0.37101  0.81227  Biso   1.000  Ni
  N96      1.0000 0.39160  0.39160  0.77090  Biso   1.000  N
  O575     1.0000 0.46220  0.46220  0.77810  Biso   1.000  O
  C955     1.0000 0.42040  0.42040  0.71750  Biso   1.000  C
  H765     1.0000 0.42980  0.42980  0.69940  Biso   1.000  H
  C956     1.0000 0.41550  0.41550  0.77490  Biso   1.000  C
  H766     1.0000 0.42170  0.42170  0.79560  Biso   1.000  H
  C957     1.0000 0.43010  0.43010  0.74800  Biso   1.000  C
  O576     1.0000 0.46700  0.46700  0.73110  Biso   1.000  O
  C958     1.0000 0.45000  0.45000  0.75170  Biso   1.000  C
  C959     1.0000 0.39710  0.39710  0.71360  Biso   1.000  C
  H767     1.0000 0.39090  0.39090  0.69300  Biso   1.000  H
  C960     1.0000 0.38290  0.38290  0.74010  Biso   1.000  C
  H768     1.0000 0.36710  0.36710  0.73710  Biso   1.000  H
  O577     1.0000 0.14659  0.14659  0.14659  Biso   1.000  O
  O578     1.0000 0.14659  0.64659  0.64659  Biso   1.000  O
  O579     1.0000 0.64659  0.14659  0.64659  Biso   1.000  O
  O580     1.0000 0.64659  0.64659  0.14659  Biso   1.000  O
  O581     1.0000 0.85341  0.85341  0.14659  Biso   1.000  O
  O582     1.0000 0.85341  0.35341  0.64659  Biso   1.000  O
  O583     1.0000 0.35341  0.85341  0.64659  Biso   1.000  O
  O584     1.0000 0.35341  0.35341  0.14659  Biso   1.000  O
  O585     1.0000 0.85341  0.14659  0.85341  Biso   1.000  O
  O586     1.0000 0.85341  0.64659  0.35341  Biso   1.000  O
  O587     1.0000 0.35341  0.14659  0.35341  Biso   1.000  O
  O588     1.0000 0.35341  0.64659  0.85341  Biso   1.000  O
  O589     1.0000 0.14659  0.85341  0.85341  Biso   1.000  O
  O590     1.0000 0.14659  0.35341  0.35341  Biso   1.000  O
  O591     1.0000 0.64659  0.85341  0.35341  Biso   1.000  O
  O592     1.0000 0.64659  0.35341  0.85341  Biso   1.000  O
  O593     1.0000 0.14659  0.14659  0.85341  Biso   1.000  O
  O594     1.0000 0.14659  0.64659  0.35341  Biso   1.000  O
  O595     1.0000 0.64659  0.14659  0.35341  Biso   1.000  O
  O596     1.0000 0.64659  0.64659  0.85341  Biso   1.000  O
  O597     1.0000 0.85341  0.85341  0.85341  Biso   1.000  O
  O598     1.0000 0.85341  0.35341  0.35341  Biso   1.000  O
  O599     1.0000 0.35341  0.85341  0.35341  Biso   1.000  O
  O600     1.0000 0.35341  0.35341  0.85341  Biso   1.000  O
  O601     1.0000 0.14659  0.85341  0.14659  Biso   1.000  O
  O602     1.0000 0.14659  0.35341  0.64659  Biso   1.000  O
  O603     1.0000 0.64659  0.85341  0.64659  Biso   1.000  O
  O604     1.0000 0.64659  0.35341  0.14659  Biso   1.000  O
  O605     1.0000 0.85341  0.14659  0.14659  Biso   1.000  O
  O606     1.0000 0.85341  0.64659  0.64659  Biso   1.000  O
  O607     1.0000 0.35341  0.14659  0.64659  Biso   1.000  O
  O608     1.0000 0.35341  0.64659  0.14659  Biso   1.000  O
  C961     1.0000 0.14949  0.14949  0.03349  Biso   1.000  C
  C962     1.0000 0.15034  0.15034  0.06983  Biso   1.000  C
  C963     1.0000 0.14949  0.64949  0.53349  Biso   1.000  C
  C964     1.0000 0.15034  0.65034  0.56983  Biso   1.000  C
  C965     1.0000 0.64949  0.14949  0.53349  Biso   1.000  C
  C966     1.0000 0.65034  0.15034  0.56983  Biso   1.000  C
  C967     1.0000 0.64949  0.64949  0.03349  Biso   1.000  C
  C968     1.0000 0.65034  0.65034  0.06983  Biso   1.000  C
  C969     1.0000 0.85051  0.85051  0.03349  Biso   1.000  C
  C970     1.0000 0.84966  0.84966  0.06983  Biso   1.000  C
  C971     1.0000 0.85051  0.35051  0.53349  Biso   1.000  C
  C972     1.0000 0.84966  0.34966  0.56983  Biso   1.000  C
  C973     1.0000 0.35051  0.85051  0.53349  Biso   1.000  C
  C974     1.0000 0.34966  0.84966  0.56983  Biso   1.000  C
  C975     1.0000 0.35051  0.35051  0.03349  Biso   1.000  C
  C976     1.0000 0.34966  0.34966  0.06983  Biso   1.000  C
  C977     1.0000 0.85051  0.14949  0.96651  Biso   1.000  C
  C978     1.0000 0.84966  0.15034  0.93017  Biso   1.000  C
  C979     1.0000 0.85051  0.64949  0.46651  Biso   1.000  C
  C980     1.0000 0.84966  0.65034  0.43017  Biso   1.000  C
  C981     1.0000 0.35051  0.14949  0.46651  Biso   1.000  C
  C982     1.0000 0.34966  0.15034  0.43017  Biso   1.000  C
  C983     1.0000 0.35051  0.64949  0.96651  Biso   1.000  C
  C984     1.0000 0.34966  0.65034  0.93017  Biso   1.000  C
  C985     1.0000 0.14949  0.85051  0.96651  Biso   1.000  C
  C986     1.0000 0.15034  0.84966  0.93017  Biso   1.000  C
  C987     1.0000 0.14949  0.35051  0.46651  Biso   1.000  C
  C988     1.0000 0.15034  0.34966  0.43017  Biso   1.000  C
  C989     1.0000 0.64949  0.85051  0.46651  Biso   1.000  C
  C990     1.0000 0.65034  0.84966  0.43017  Biso   1.000  C
  C991     1.0000 0.64949  0.35051  0.96651  Biso   1.000  C
  C992     1.0000 0.65034  0.34966  0.93017  Biso   1.000  C
  C993     1.0000 0.03349  0.14949  0.14949  Biso   1.000  C
  C994     1.0000 0.06983  0.15034  0.15034  Biso   1.000  C
  C995     1.0000 0.03349  0.64949  0.64949  Biso   1.000  C
  C996     1.0000 0.06983  0.65034  0.65034  Biso   1.000  C
  C997     1.0000 0.53349  0.14949  0.64949  Biso   1.000  C
  C998     1.0000 0.56983  0.15034  0.65034  Biso   1.000  C
  C999     1.0000 0.53349  0.64949  0.14949  Biso   1.000  C
  C1000    1.0000 0.56983  0.65034  0.15034  Biso   1.000  C
  C1001    1.0000 0.03349  0.85051  0.85051  Biso   1.000  C
  C1002    1.0000 0.06983  0.84966  0.84966  Biso   1.000  C
  C1003    1.0000 0.03349  0.35051  0.35051  Biso   1.000  C
  C1004    1.0000 0.06983  0.34966  0.34966  Biso   1.000  C
  C1005    1.0000 0.53349  0.85051  0.35051  Biso   1.000  C
  C1006    1.0000 0.56983  0.84966  0.34966  Biso   1.000  C
  C1007    1.0000 0.53349  0.35051  0.85051  Biso   1.000  C
  C1008    1.0000 0.56983  0.34966  0.84966  Biso   1.000  C
  C1009    1.0000 0.96651  0.85051  0.14949  Biso   1.000  C
  C1010    1.0000 0.93017  0.84966  0.15034  Biso   1.000  C
  C1011    1.0000 0.96651  0.35051  0.64949  Biso   1.000  C
  C1012    1.0000 0.93017  0.34966  0.65034  Biso   1.000  C
  C1013    1.0000 0.46651  0.85051  0.64949  Biso   1.000  C
  C1014    1.0000 0.43017  0.84966  0.65034  Biso   1.000  C
  C1015    1.0000 0.46651  0.35051  0.14949  Biso   1.000  C
  C1016    1.0000 0.43017  0.34966  0.15034  Biso   1.000  C
  C1017    1.0000 0.96651  0.14949  0.85051  Biso   1.000  C
  C1018    1.0000 0.93017  0.15034  0.84966  Biso   1.000  C
  C1019    1.0000 0.96651  0.64949  0.35051  Biso   1.000  C
  C1020    1.0000 0.93017  0.65034  0.34966  Biso   1.000  C
  C1021    1.0000 0.46651  0.14949  0.35051  Biso   1.000  C
  C1022    1.0000 0.43017  0.15034  0.34966  Biso   1.000  C
  C1023    1.0000 0.46651  0.64949  0.85051  Biso   1.000  C
  C1024    1.0000 0.43017  0.65034  0.84966  Biso   1.000  C
  C1025    1.0000 0.14949  0.03349  0.14949  Biso   1.000  C
  C1026    1.0000 0.15034  0.06983  0.15034  Biso   1.000  C
  C1027    1.0000 0.14949  0.53349  0.64949  Biso   1.000  C
  C1028    1.0000 0.15034  0.56983  0.65034  Biso   1.000  C
  C1029    1.0000 0.64949  0.03349  0.64949  Biso   1.000  C
  C1030    1.0000 0.65034  0.06983  0.65034  Biso   1.000  C
  C1031    1.0000 0.64949  0.53349  0.14949  Biso   1.000  C
  C1032    1.0000 0.65034  0.56983  0.15034  Biso   1.000  C
  C1033    1.0000 0.85051  0.03349  0.85051  Biso   1.000  C
  C1034    1.0000 0.84966  0.06983  0.84966  Biso   1.000  C
  C1035    1.0000 0.85051  0.53349  0.35051  Biso   1.000  C
  C1036    1.0000 0.84966  0.56983  0.34966  Biso   1.000  C
  C1037    1.0000 0.35051  0.03349  0.35051  Biso   1.000  C
  C1038    1.0000 0.34966  0.06983  0.34966  Biso   1.000  C
  C1039    1.0000 0.35051  0.53349  0.85051  Biso   1.000  C
  C1040    1.0000 0.34966  0.56983  0.84966  Biso   1.000  C
  C1041    1.0000 0.14949  0.96651  0.85051  Biso   1.000  C
  C1042    1.0000 0.15034  0.93017  0.84966  Biso   1.000  C
  C1043    1.0000 0.14949  0.46651  0.35051  Biso   1.000  C
  C1044    1.0000 0.15034  0.43017  0.34966  Biso   1.000  C
  C1045    1.0000 0.64949  0.96651  0.35051  Biso   1.000  C
  C1046    1.0000 0.65034  0.93017  0.34966  Biso   1.000  C
  C1047    1.0000 0.64949  0.46651  0.85051  Biso   1.000  C
  C1048    1.0000 0.65034  0.43017  0.84966  Biso   1.000  C
  C1049    1.0000 0.85051  0.96651  0.14949  Biso   1.000  C
  C1050    1.0000 0.84966  0.93017  0.15034  Biso   1.000  C
  C1051    1.0000 0.85051  0.46651  0.64949  Biso   1.000  C
  C1052    1.0000 0.84966  0.43017  0.65034  Biso   1.000  C
  C1053    1.0000 0.35051  0.96651  0.64949  Biso   1.000  C
  C1054    1.0000 0.34966  0.93017  0.65034  Biso   1.000  C
  C1055    1.0000 0.35051  0.46651  0.14949  Biso   1.000  C
  C1056    1.0000 0.34966  0.43017  0.15034  Biso   1.000  C
  C1057    1.0000 0.14949  0.14949  0.96651  Biso   1.000  C
  C1058    1.0000 0.15034  0.15034  0.93017  Biso   1.000  C
  C1059    1.0000 0.14949  0.64949  0.46651  Biso   1.000  C
  C1060    1.0000 0.15034  0.65034  0.43017  Biso   1.000  C
  C1061    1.0000 0.64949  0.14949  0.46651  Biso   1.000  C
  C1062    1.0000 0.65034  0.15034  0.43017  Biso   1.000  C
  C1063    1.0000 0.64949  0.64949  0.96651  Biso   1.000  C
  C1064    1.0000 0.65034  0.65034  0.93017  Biso   1.000  C
  C1065    1.0000 0.85051  0.85051  0.96651  Biso   1.000  C
  C1066    1.0000 0.84966  0.84966  0.93017  Biso   1.000  C
  C1067    1.0000 0.85051  0.35051  0.46651  Biso   1.000  C
  C1068    1.0000 0.84966  0.34966  0.43017  Biso   1.000  C
  C1069    1.0000 0.35051  0.85051  0.46651  Biso   1.000  C
  C1070    1.0000 0.34966  0.84966  0.43017  Biso   1.000  C
  C1071    1.0000 0.35051  0.35051  0.96651  Biso   1.000  C
  C1072    1.0000 0.34966  0.34966  0.93017  Biso   1.000  C
  C1073    1.0000 0.14949  0.85051  0.03349  Biso   1.000  C
  C1074    1.0000 0.15034  0.84966  0.06983  Biso   1.000  C
  C1075    1.0000 0.14949  0.35051  0.53349  Biso   1.000  C
  C1076    1.0000 0.15034  0.34966  0.56983  Biso   1.000  C
  C1077    1.0000 0.64949  0.85051  0.53349  Biso   1.000  C
  C1078    1.0000 0.65034  0.84966  0.56983  Biso   1.000  C
  C1079    1.0000 0.64949  0.35051  0.03349  Biso   1.000  C
  C1080    1.0000 0.65034  0.34966  0.06983  Biso   1.000  C
  C1081    1.0000 0.85051  0.14949  0.03349  Biso   1.000  C
  C1082    1.0000 0.84966  0.15034  0.06983  Biso   1.000  C
  C1083    1.0000 0.85051  0.64949  0.53349  Biso   1.000  C
  C1084    1.0000 0.84966  0.65034  0.56983  Biso   1.000  C
  C1085    1.0000 0.35051  0.14949  0.53349  Biso   1.000  C
  C1086    1.0000 0.34966  0.15034  0.56983  Biso   1.000  C
  C1087    1.0000 0.35051  0.64949  0.03349  Biso   1.000  C
  C1088    1.0000 0.34966  0.65034  0.06983  Biso   1.000  C
  C1089    1.0000 0.14949  0.03349  0.85051  Biso   1.000  C
  C1090    1.0000 0.15034  0.06983  0.84966  Biso   1.000  C
  C1091    1.0000 0.14949  0.53349  0.35051  Biso   1.000  C
  C1092    1.0000 0.15034  0.56983  0.34966  Biso   1.000  C
  C1093    1.0000 0.64949  0.03349  0.35051  Biso   1.000  C
  C1094    1.0000 0.65034  0.06983  0.34966  Biso   1.000  C
  C1095    1.0000 0.64949  0.53349  0.85051  Biso   1.000  C
  C1096    1.0000 0.65034  0.56983  0.84966  Biso   1.000  C
  C1097    1.0000 0.85051  0.03349  0.14949  Biso   1.000  C
  C1098    1.0000 0.84966  0.06983  0.15034  Biso   1.000  C
  C1099    1.0000 0.85051  0.53349  0.64949  Biso   1.000  C
  C1100    1.0000 0.84966  0.56983  0.65034  Biso   1.000  C
  C1101    1.0000 0.35051  0.03349  0.64949  Biso   1.000  C
  C1102    1.0000 0.34966  0.06983  0.65034  Biso   1.000  C
  C1103    1.0000 0.35051  0.53349  0.14949  Biso   1.000  C
  C1104    1.0000 0.34966  0.56983  0.15034  Biso   1.000  C
  C1105    1.0000 0.85051  0.96651  0.85051  Biso   1.000  C
  C1106    1.0000 0.84966  0.93017  0.84966  Biso   1.000  C
  C1107    1.0000 0.85051  0.46651  0.35051  Biso   1.000  C
  C1108    1.0000 0.84966  0.43017  0.34966  Biso   1.000  C
  C1109    1.0000 0.35051  0.96651  0.35051  Biso   1.000  C
  C1110    1.0000 0.34966  0.93017  0.34966  Biso   1.000  C
  C1111    1.0000 0.35051  0.46651  0.85051  Biso   1.000  C
  C1112    1.0000 0.34966  0.43017  0.84966  Biso   1.000  C
  C1113    1.0000 0.14949  0.96651  0.14949  Biso   1.000  C
  C1114    1.0000 0.15034  0.93017  0.15034  Biso   1.000  C
  C1115    1.0000 0.14949  0.46651  0.64949  Biso   1.000  C
  C1116    1.0000 0.15034  0.43017  0.65034  Biso   1.000  C
  C1117    1.0000 0.64949  0.96651  0.64949  Biso   1.000  C
  C1118    1.0000 0.65034  0.93017  0.65034  Biso   1.000  C
  C1119    1.0000 0.64949  0.46651  0.14949  Biso   1.000  C
  C1120    1.0000 0.65034  0.43017  0.15034  Biso   1.000  C
  C1121    1.0000 0.03349  0.14949  0.85051  Biso   1.000  C
  C1122    1.0000 0.06983  0.15034  0.84966  Biso   1.000  C
  C1123    1.0000 0.03349  0.64949  0.35051  Biso   1.000  C
  C1124    1.0000 0.06983  0.65034  0.34966  Biso   1.000  C
  C1125    1.0000 0.53349  0.14949  0.35051  Biso   1.000  C
  C1126    1.0000 0.56983  0.15034  0.34966  Biso   1.000  C
  C1127    1.0000 0.53349  0.64949  0.85051  Biso   1.000  C
  C1128    1.0000 0.56983  0.65034  0.84966  Biso   1.000  C
  C1129    1.0000 0.03349  0.85051  0.14949  Biso   1.000  C
  C1130    1.0000 0.06983  0.84966  0.15034  Biso   1.000  C
  C1131    1.0000 0.03349  0.35051  0.64949  Biso   1.000  C
  C1132    1.0000 0.06983  0.34966  0.65034  Biso   1.000  C
  C1133    1.0000 0.53349  0.85051  0.64949  Biso   1.000  C
  C1134    1.0000 0.56983  0.84966  0.65034  Biso   1.000  C
  C1135    1.0000 0.53349  0.35051  0.14949  Biso   1.000  C
  C1136    1.0000 0.56983  0.34966  0.15034  Biso   1.000  C
  C1137    1.0000 0.96651  0.14949  0.14949  Biso   1.000  C
  C1138    1.0000 0.93017  0.15034  0.15034  Biso   1.000  C
  C1139    1.0000 0.96651  0.64949  0.64949  Biso   1.000  C
  C1140    1.0000 0.93017  0.65034  0.65034  Biso   1.000  C
  C1141    1.0000 0.46651  0.14949  0.64949  Biso   1.000  C
  C1142    1.0000 0.43017  0.15034  0.65034  Biso   1.000  C
  C1143    1.0000 0.46651  0.64949  0.14949  Biso   1.000  C
  C1144    1.0000 0.43017  0.65034  0.15034  Biso   1.000  C
  C1145    1.0000 0.96651  0.85051  0.85051  Biso   1.000  C
  C1146    1.0000 0.93017  0.84966  0.84966  Biso   1.000  C
  C1147    1.0000 0.96651  0.35051  0.35051  Biso   1.000  C
  C1148    1.0000 0.93017  0.34966  0.34966  Biso   1.000  C
  C1149    1.0000 0.46651  0.85051  0.35051  Biso   1.000  C
  C1150    1.0000 0.43017  0.84966  0.34966  Biso   1.000  C
  C1151    1.0000 0.46651  0.35051  0.85051  Biso   1.000  C
  C1152    1.0000 0.43017  0.34966  0.84966  Biso   1.000  C
  C1153    1.0000 0.19954  0.12400  0.19954  Biso   1.000  C
  C1154    1.0000 0.22618  0.12270  0.22618  Biso   1.000  C
  C1155    1.0000 0.19954  0.62400  0.69954  Biso   1.000  C
  C1156    1.0000 0.22618  0.62270  0.72618  Biso   1.000  C
  C1157    1.0000 0.69954  0.12400  0.69954  Biso   1.000  C
  C1158    1.0000 0.72618  0.12270  0.72618  Biso   1.000  C
  C1159    1.0000 0.69954  0.62400  0.19954  Biso   1.000  C
  C1160    1.0000 0.72618  0.62270  0.22618  Biso   1.000  C
  C1161    1.0000 0.80046  0.87600  0.19954  Biso   1.000  C
  C1162    1.0000 0.77382  0.87730  0.22618  Biso   1.000  C
  C1163    1.0000 0.80046  0.37600  0.69954  Biso   1.000  C
  C1164    1.0000 0.77382  0.37730  0.72618  Biso   1.000  C
  C1165    1.0000 0.30046  0.87600  0.69954  Biso   1.000  C
  C1166    1.0000 0.27382  0.87730  0.72618  Biso   1.000  C
  C1167    1.0000 0.30046  0.37600  0.19954  Biso   1.000  C
  C1168    1.0000 0.27382  0.37730  0.22618  Biso   1.000  C
  C1169    1.0000 0.80046  0.12400  0.80046  Biso   1.000  C
  C1170    1.0000 0.77382  0.12270  0.77382  Biso   1.000  C
  C1171    1.0000 0.80046  0.62400  0.30046  Biso   1.000  C
  C1172    1.0000 0.77382  0.62270  0.27382  Biso   1.000  C
  C1173    1.0000 0.30046  0.12400  0.30046  Biso   1.000  C
  C1174    1.0000 0.27382  0.12270  0.27382  Biso   1.000  C
  C1175    1.0000 0.30046  0.62400  0.80046  Biso   1.000  C
  C1176    1.0000 0.27382  0.62270  0.77382  Biso   1.000  C
  C1177    1.0000 0.19954  0.87600  0.80046  Biso   1.000  C
  C1178    1.0000 0.22618  0.87730  0.77382  Biso   1.000  C
  C1179    1.0000 0.19954  0.37600  0.30046  Biso   1.000  C
  C1180    1.0000 0.22618  0.37730  0.27382  Biso   1.000  C
  C1181    1.0000 0.69954  0.87600  0.30046  Biso   1.000  C
  C1182    1.0000 0.72618  0.87730  0.27382  Biso   1.000  C
  C1183    1.0000 0.69954  0.37600  0.80046  Biso   1.000  C
  C1184    1.0000 0.72618  0.37730  0.77382  Biso   1.000  C
  C1185    1.0000 0.19954  0.19954  0.12400  Biso   1.000  C
  C1186    1.0000 0.22618  0.22618  0.12270  Biso   1.000  C
  C1187    1.0000 0.19954  0.69954  0.62400  Biso   1.000  C
  C1188    1.0000 0.22618  0.72618  0.62270  Biso   1.000  C
  C1189    1.0000 0.69954  0.19954  0.62400  Biso   1.000  C
  C1190    1.0000 0.72618  0.22618  0.62270  Biso   1.000  C
  C1191    1.0000 0.69954  0.69954  0.12400  Biso   1.000  C
  C1192    1.0000 0.72618  0.72618  0.12270  Biso   1.000  C
  C1193    1.0000 0.19954  0.80046  0.87600  Biso   1.000  C
  C1194    1.0000 0.22618  0.77382  0.87730  Biso   1.000  C
  C1195    1.0000 0.19954  0.30046  0.37600  Biso   1.000  C
  C1196    1.0000 0.22618  0.27382  0.37730  Biso   1.000  C
  C1197    1.0000 0.69954  0.80046  0.37600  Biso   1.000  C
  C1198    1.0000 0.72618  0.77382  0.37730  Biso   1.000  C
  C1199    1.0000 0.69954  0.30046  0.87600  Biso   1.000  C
  C1200    1.0000 0.72618  0.27382  0.87730  Biso   1.000  C
  C1201    1.0000 0.80046  0.80046  0.12400  Biso   1.000  C
  C1202    1.0000 0.77382  0.77382  0.12270  Biso   1.000  C
  C1203    1.0000 0.80046  0.30046  0.62400  Biso   1.000  C
  C1204    1.0000 0.77382  0.27382  0.62270  Biso   1.000  C
  C1205    1.0000 0.30046  0.80046  0.62400  Biso   1.000  C
  C1206    1.0000 0.27382  0.77382  0.62270  Biso   1.000  C
  C1207    1.0000 0.30046  0.30046  0.12400  Biso   1.000  C
  C1208    1.0000 0.27382  0.27382  0.12270  Biso   1.000  C
  C1209    1.0000 0.80046  0.19954  0.87600  Biso   1.000  C
  C1210    1.0000 0.77382  0.22618  0.87730  Biso   1.000  C
  C1211    1.0000 0.80046  0.69954  0.37600  Biso   1.000  C
  C1212    1.0000 0.77382  0.72618  0.37730  Biso   1.000  C
  C1213    1.0000 0.30046  0.19954  0.37600  Biso   1.000  C
  C1214    1.0000 0.27382  0.22618  0.37730  Biso   1.000  C
  C1215    1.0000 0.30046  0.69954  0.87600  Biso   1.000  C
  C1216    1.0000 0.27382  0.72618  0.87730  Biso   1.000  C
  C1217    1.0000 0.12400  0.19954  0.19954  Biso   1.000  C
  C1218    1.0000 0.12270  0.22618  0.22618  Biso   1.000  C
  C1219    1.0000 0.12400  0.69954  0.69954  Biso   1.000  C
  C1220    1.0000 0.12270  0.72618  0.72618  Biso   1.000  C
  C1221    1.0000 0.62400  0.19954  0.69954  Biso   1.000  C
  C1222    1.0000 0.62270  0.22618  0.72618  Biso   1.000  C
  C1223    1.0000 0.62400  0.69954  0.19954  Biso   1.000  C
  C1224    1.0000 0.62270  0.72618  0.22618  Biso   1.000  C
  C1225    1.0000 0.87600  0.19954  0.80046  Biso   1.000  C
  C1226    1.0000 0.87730  0.22618  0.77382  Biso   1.000  C
  C1227    1.0000 0.87600  0.69954  0.30046  Biso   1.000  C
  C1228    1.0000 0.87730  0.72618  0.27382  Biso   1.000  C
  C1229    1.0000 0.37600  0.19954  0.30046  Biso   1.000  C
  C1230    1.0000 0.37730  0.22618  0.27382  Biso   1.000  C
  C1231    1.0000 0.37600  0.69954  0.80046  Biso   1.000  C
  C1232    1.0000 0.37730  0.72618  0.77382  Biso   1.000  C
  C1233    1.0000 0.12400  0.80046  0.80046  Biso   1.000  C
  C1234    1.0000 0.12270  0.77382  0.77382  Biso   1.000  C
  C1235    1.0000 0.12400  0.30046  0.30046  Biso   1.000  C
  C1236    1.0000 0.12270  0.27382  0.27382  Biso   1.000  C
  C1237    1.0000 0.62400  0.80046  0.30046  Biso   1.000  C
  C1238    1.0000 0.62270  0.77382  0.27382  Biso   1.000  C
  C1239    1.0000 0.62400  0.30046  0.80046  Biso   1.000  C
  C1240    1.0000 0.62270  0.27382  0.77382  Biso   1.000  C
  C1241    1.0000 0.87600  0.80046  0.19954  Biso   1.000  C
  C1242    1.0000 0.87730  0.77382  0.22618  Biso   1.000  C
  C1243    1.0000 0.87600  0.30046  0.69954  Biso   1.000  C
  C1244    1.0000 0.87730  0.27382  0.72618  Biso   1.000  C
  C1245    1.0000 0.37600  0.80046  0.69954  Biso   1.000  C
  C1246    1.0000 0.37730  0.77382  0.72618  Biso   1.000  C
  C1247    1.0000 0.37600  0.30046  0.19954  Biso   1.000  C
  C1248    1.0000 0.37730  0.27382  0.22618  Biso   1.000  C
  C1249    1.0000 0.12400  0.19954  0.80046  Biso   1.000  C
  C1250    1.0000 0.12270  0.22618  0.77382  Biso   1.000  C
  C1251    1.0000 0.12400  0.69954  0.30046  Biso   1.000  C
  C1252    1.0000 0.12270  0.72618  0.27382  Biso   1.000  C
  C1253    1.0000 0.62400  0.19954  0.30046  Biso   1.000  C
  C1254    1.0000 0.62270  0.22618  0.27382  Biso   1.000  C
  C1255    1.0000 0.62400  0.69954  0.80046  Biso   1.000  C
  C1256    1.0000 0.62270  0.72618  0.77382  Biso   1.000  C
  C1257    1.0000 0.87600  0.80046  0.80046  Biso   1.000  C
  C1258    1.0000 0.87730  0.77382  0.77382  Biso   1.000  C
  C1259    1.0000 0.87600  0.30046  0.30046  Biso   1.000  C
  C1260    1.0000 0.87730  0.27382  0.27382  Biso   1.000  C
  C1261    1.0000 0.37600  0.80046  0.30046  Biso   1.000  C
  C1262    1.0000 0.37730  0.77382  0.27382  Biso   1.000  C
  C1263    1.0000 0.37600  0.30046  0.80046  Biso   1.000  C
  C1264    1.0000 0.37730  0.27382  0.77382  Biso   1.000  C
  C1265    1.0000 0.12400  0.80046  0.19954  Biso   1.000  C
  C1266    1.0000 0.12270  0.77382  0.22618  Biso   1.000  C
  C1267    1.0000 0.12400  0.30046  0.69954  Biso   1.000  C
  C1268    1.0000 0.12270  0.27382  0.72618  Biso   1.000  C
  C1269    1.0000 0.62400  0.80046  0.69954  Biso   1.000  C
  C1270    1.0000 0.62270  0.77382  0.72618  Biso   1.000  C
  C1271    1.0000 0.62400  0.30046  0.19954  Biso   1.000  C
  C1272    1.0000 0.62270  0.27382  0.22618  Biso   1.000  C
  C1273    1.0000 0.87600  0.19954  0.19954  Biso   1.000  C
  C1274    1.0000 0.87730  0.22618  0.22618  Biso   1.000  C
  C1275    1.0000 0.87600  0.69954  0.69954  Biso   1.000  C
  C1276    1.0000 0.87730  0.72618  0.72618  Biso   1.000  C
  C1277    1.0000 0.37600  0.19954  0.69954  Biso   1.000  C
  C1278    1.0000 0.37730  0.22618  0.72618  Biso   1.000  C
  C1279    1.0000 0.37600  0.69954  0.19954  Biso   1.000  C
  C1280    1.0000 0.37730  0.72618  0.22618  Biso   1.000  C
  C1281    1.0000 0.19954  0.19954  0.87600  Biso   1.000  C
  C1282    1.0000 0.22618  0.22618  0.87730  Biso   1.000  C
  C1283    1.0000 0.19954  0.69954  0.37600  Biso   1.000  C
  C1284    1.0000 0.22618  0.72618  0.37730  Biso   1.000  C
  C1285    1.0000 0.69954  0.19954  0.37600  Biso   1.000  C
  C1286    1.0000 0.72618  0.22618  0.37730  Biso   1.000  C
  C1287    1.0000 0.69954  0.69954  0.87600  Biso   1.000  C
  C1288    1.0000 0.72618  0.72618  0.87730  Biso   1.000  C
  C1289    1.0000 0.80046  0.19954  0.12400  Biso   1.000  C
  C1290    1.0000 0.77382  0.22618  0.12270  Biso   1.000  C
  C1291    1.0000 0.80046  0.69954  0.62400  Biso   1.000  C
  C1292    1.0000 0.77382  0.72618  0.62270  Biso   1.000  C
  C1293    1.0000 0.30046  0.19954  0.62400  Biso   1.000  C
  C1294    1.0000 0.27382  0.22618  0.62270  Biso   1.000  C
  C1295    1.0000 0.30046  0.69954  0.12400  Biso   1.000  C
  C1296    1.0000 0.27382  0.72618  0.12270  Biso   1.000  C
  C1297    1.0000 0.80046  0.80046  0.87600  Biso   1.000  C
  C1298    1.0000 0.77382  0.77382  0.87730  Biso   1.000  C
  C1299    1.0000 0.80046  0.30046  0.37600  Biso   1.000  C
  C1300    1.0000 0.77382  0.27382  0.37730  Biso   1.000  C
  C1301    1.0000 0.30046  0.80046  0.37600  Biso   1.000  C
  C1302    1.0000 0.27382  0.77382  0.37730  Biso   1.000  C
  C1303    1.0000 0.30046  0.30046  0.87600  Biso   1.000  C
  C1304    1.0000 0.27382  0.27382  0.87730  Biso   1.000  C
  C1305    1.0000 0.19954  0.80046  0.12400  Biso   1.000  C
  C1306    1.0000 0.22618  0.77382  0.12270  Biso   1.000  C
  C1307    1.0000 0.19954  0.30046  0.62400  Biso   1.000  C
  C1308    1.0000 0.22618  0.27382  0.62270  Biso   1.000  C
  C1309    1.0000 0.69954  0.80046  0.62400  Biso   1.000  C
  C1310    1.0000 0.72618  0.77382  0.62270  Biso   1.000  C
  C1311    1.0000 0.69954  0.30046  0.12400  Biso   1.000  C
  C1312    1.0000 0.72618  0.27382  0.12270  Biso   1.000  C
  C1313    1.0000 0.19954  0.12400  0.80046  Biso   1.000  C
  C1314    1.0000 0.22618  0.12270  0.77382  Biso   1.000  C
  C1315    1.0000 0.19954  0.62400  0.30046  Biso   1.000  C
  C1316    1.0000 0.22618  0.62270  0.27382  Biso   1.000  C
  C1317    1.0000 0.69954  0.12400  0.30046  Biso   1.000  C
  C1318    1.0000 0.72618  0.12270  0.27382  Biso   1.000  C
  C1319    1.0000 0.69954  0.62400  0.80046  Biso   1.000  C
  C1320    1.0000 0.72618  0.62270  0.77382  Biso   1.000  C
  C1321    1.0000 0.19954  0.87600  0.19954  Biso   1.000  C
  C1322    1.0000 0.22618  0.87730  0.22618  Biso   1.000  C
  C1323    1.0000 0.19954  0.37600  0.69954  Biso   1.000  C
  C1324    1.0000 0.22618  0.37730  0.72618  Biso   1.000  C
  C1325    1.0000 0.69954  0.87600  0.69954  Biso   1.000  C
  C1326    1.0000 0.72618  0.87730  0.72618  Biso   1.000  C
  C1327    1.0000 0.69954  0.37600  0.19954  Biso   1.000  C
  C1328    1.0000 0.72618  0.37730  0.22618  Biso   1.000  C
  C1329    1.0000 0.80046  0.12400  0.19954  Biso   1.000  C
  C1330    1.0000 0.77382  0.12270  0.22618  Biso   1.000  C
  C1331    1.0000 0.80046  0.62400  0.69954  Biso   1.000  C
  C1332    1.0000 0.77382  0.62270  0.72618  Biso   1.000  C
  C1333    1.0000 0.30046  0.12400  0.69954  Biso   1.000  C
  C1334    1.0000 0.27382  0.12270  0.72618  Biso   1.000  C
  C1335    1.0000 0.30046  0.62400  0.19954  Biso   1.000  C
  C1336    1.0000 0.27382  0.62270  0.22618  Biso   1.000  C
  C1337    1.0000 0.80046  0.87600  0.80046  Biso   1.000  C
  C1338    1.0000 0.77382  0.87730  0.77382  Biso   1.000  C
  C1339    1.0000 0.80046  0.37600  0.30046  Biso   1.000  C
  C1340    1.0000 0.77382  0.37730  0.27382  Biso   1.000  C
  C1341    1.0000 0.30046  0.87600  0.30046  Biso   1.000  C
  C1342    1.0000 0.27382  0.87730  0.27382  Biso   1.000  C
  C1343    1.0000 0.30046  0.37600  0.80046  Biso   1.000  C
  C1344    1.0000 0.27382  0.37730  0.77382  Biso   1.000  C
  Ni97     1.0000 0.27220  0.00000  0.00000  Biso   1.000  Ni
  Ni98     1.0000 0.27220  0.50000  0.50000  Biso   1.000  Ni
  Ni99     1.0000 0.77220  0.00000  0.50000  Biso   1.000  Ni
  Ni100    1.0000 0.77220  0.50000  0.00000  Biso   1.000  Ni
  Ni101    1.0000 0.72780  0.00000  0.00000  Biso   1.000  Ni
  Ni102    1.0000 0.72780  0.50000  0.50000  Biso   1.000  Ni
  Ni103    1.0000 0.22780  0.00000  0.50000  Biso   1.000  Ni
  Ni104    1.0000 0.22780  0.50000  0.00000  Biso   1.000  Ni
  Ni105    1.0000 0.00000  0.27220  0.00000  Biso   1.000  Ni
  Ni106    1.0000 0.00000  0.77220  0.50000  Biso   1.000  Ni
  Ni107    1.0000 0.50000  0.27220  0.50000  Biso   1.000  Ni
  Ni108    1.0000 0.50000  0.77220  0.00000  Biso   1.000  Ni
  Ni109    1.0000 0.00000  0.72780  0.00000  Biso   1.000  Ni
  Ni110    1.0000 0.00000  0.22780  0.50000  Biso   1.000  Ni
  Ni111    1.0000 0.50000  0.72780  0.50000  Biso   1.000  Ni
  Ni112    1.0000 0.50000  0.22780  0.00000  Biso   1.000  Ni
  Ni113    1.0000 0.00000  0.00000  0.27220  Biso   1.000  Ni
  Ni114    1.0000 0.00000  0.50000  0.77220  Biso   1.000  Ni
  Ni115    1.0000 0.50000  0.00000  0.77220  Biso   1.000  Ni
  Ni116    1.0000 0.50000  0.50000  0.27220  Biso   1.000  Ni
  Ni117    1.0000 0.00000  0.00000  0.72780  Biso   1.000  Ni
  Ni118    1.0000 0.00000  0.50000  0.22780  Biso   1.000  Ni
  Ni119    1.0000 0.50000  0.00000  0.22780  Biso   1.000  Ni
  Ni120    1.0000 0.50000  0.50000  0.72780  Biso   1.000  Ni
