data_image0
_cell_length_a       53.598
_cell_length_b       16.409
_cell_length_c       21.672
_cell_angle_alpha    90
_cell_angle_beta     113.85
_cell_angle_gamma    90

_symmetry_space_group_name_H-M    "P 1"
_symmetry_int_tables_number       1

loop_
  _symmetry_equiv_pos_as_xyz
  'x, y, z'

loop_
  _atom_site_label
  _atom_site_occupancy
  _atom_site_fract_x
  _atom_site_fract_y
  _atom_site_fract_z
  _atom_site_thermal_displace_type
  _atom_site_B_iso_or_equiv
  _atom_site_type_symbol
  Mg1      1.0000 0.05205  0.86230  0.80782  Biso   1.000  Mg
  Mg2      1.0000 0.05954  0.65511  0.79759  Biso   1.000  Mg
  Mg3      1.0000 0.19000  0.64364  0.42820  Biso   1.000  Mg
  C1       1.0000 0.11124  0.78840  0.72340  Biso   1.000  C
  C2       1.0000 0.00679  0.89530  0.67230  Biso   1.000  C
  C3       1.0000 0.09273  0.77540  0.76160  Biso   1.000  C
  C4       1.0000 0.99900  0.92940  0.60160  Biso   1.000  C
  C5       1.0000 0.15706  0.76840  0.32660  Biso   1.000  C
  C6       1.0000 0.15796  0.65570  0.60180  Biso   1.000  C
  H1       1.0000 0.16440  0.60800  0.59020  Biso   1.000  H
  C7       1.0000 0.13546  0.72030  0.66840  Biso   1.000  C
  C8       1.0000 0.17408  0.73430  0.52440  Biso   1.000  C
  C9       1.0000 0.15343  0.80320  0.59670  Biso   1.000  C
  H2       1.0000 0.15670  0.85340  0.58150  Biso   1.000  H
  C10      1.0000 0.16141  0.73230  0.57620  Biso   1.000  C
  C11      1.0000 0.13960  0.79860  0.64280  Biso   1.000  C
  C12      1.0000 0.14013  0.78210  0.24970  Biso   1.000  C
  C13      1.0000 0.12184  0.71790  0.70810  Biso   1.000  C
  H3       1.0000 0.11940  0.66830  0.72570  Biso   1.000  H
  C14      1.0000 0.13237  0.71340  0.21020  Biso   1.000  C
  H4       1.0000 0.13730  0.66230  0.23000  Biso   1.000  H
  C15      1.0000 0.11705  0.71940  0.14020  Biso   1.000  C
  C16      1.0000 0.11125  0.79980  0.11310  Biso   1.000  C
  C17      1.0000 0.12057  0.86840  0.15570  Biso   1.000  C
  H5       1.0000 0.11740  0.92070  0.13770  Biso   1.000  H
  C18      1.0000 0.07652  0.74630  0.92570  Biso   1.000  C
  C19      1.0000 0.09002  0.74080  0.00160  Biso   1.000  C
  C20      1.0000 0.09737  0.80750  0.04120  Biso   1.000  C
  H6       1.0000 0.09340  0.85900  0.02180  Biso   1.000  H
  C21      1.0000 0.09596  0.66550  0.03100  Biso   1.000  C
  H7       1.0000 0.09050  0.62000  0.00310  Biso   1.000  H
  C22      1.0000 0.01807  0.97240  0.59130  Biso   1.000  C
  H8       1.0000 0.03510  0.97940  0.62640  Biso   1.000  H
  C23      1.0000 0.01238  0.00840  0.52580  Biso   1.000  C
  C24      1.0000 0.97373  0.91080  0.55020  Biso   1.000  C
  H9       1.0000 0.96080  0.87930  0.55780  Biso   1.000  H
  C25      1.0000 0.96913  0.94190  0.48790  Biso   1.000  C
  H10      1.0000 0.95270  0.92930  0.45230  Biso   1.000  H
  C26      1.0000 0.14380  0.65470  0.64740  Biso   1.000  C
  H11      1.0000 0.14060  0.60440  0.66240  Biso   1.000  H
  C27      1.0000 0.13001  0.86850  0.66130  Biso   1.000  C
  H12      1.0000 0.13340  0.91900  0.64680  Biso   1.000  H
  C28      1.0000 0.11516  0.86430  0.70210  Biso   1.000  C
  H13      1.0000 0.10830  0.91090  0.71410  Biso   1.000  H
  C29      1.0000 0.13416  0.85680  0.22320  Biso   1.000  C
  H14      1.0000 0.13940  0.90180  0.25160  Biso   1.000  H
  C30      1.0000 0.10930  0.65310  0.09840  Biso   1.000  C
  H15      1.0000 0.11310  0.60060  0.11590  Biso   1.000  H
  C31      1.0000 0.99040  0.62450  0.83050  Biso   1.000  C
  C32      1.0000 0.99860  0.57640  0.89870  Biso   1.000  C
  C33      1.0000 0.01930  0.47550  0.09150  Biso   1.000  C
  H16      1.0000 0.03500  0.49270  0.12730  Biso   1.000  H
  C34      1.0000 0.01290  0.50300  0.02350  Biso   1.000  C
  C35      1.0000 0.02290  0.59990  0.94990  Biso   1.000  C
  H17      1.0000 0.03420  0.63630  0.94040  Biso   1.000  H
  C36      1.0000 0.03110  0.56990  0.01580  Biso   1.000  C
  H18      1.0000 0.04630  0.58940  0.05190  Biso   1.000  H
  O1       1.0000 0.00627  0.67050  0.82360  Biso   1.000  O
  O2       1.0000 0.08409  0.84460  0.77830  Biso   1.000  O
  O3       1.0000 0.96589  0.60430  0.78790  Biso   1.000  O
  O4       1.0000 0.07193  0.81790  0.90230  Biso   1.000  O
  O5       1.0000 0.08776  0.70550  0.77580  Biso   1.000  O
  O6       1.0000 0.07129  0.67910  0.89360  Biso   1.000  O
  O7       1.0000 0.98809  0.84910  0.67910  Biso   1.000  O
  O8       1.0000 0.02892  0.91060  0.71610  Biso   1.000  O
  O9       1.0000 0.03826  0.75620  0.77056  Biso   1.000  O
  O10      1.0000 0.16365  0.83120  0.36140  Biso   1.000  O
  O11      1.0000 0.16316  0.69420  0.34450  Biso   1.000  O
  O12      1.0000 0.17876  0.80590  0.50860  Biso   1.000  O
  O13      1.0000 0.17803  0.66800  0.50190  Biso   1.000  O
  Mg4      1.0000 0.19685  0.85188  0.44934  Biso   1.000  Mg
  C37      1.0000 0.26210  0.37060  0.11220  Biso   1.000  C
  C38      1.0000 0.28421  0.55020  0.31220  Biso   1.000  C
  H19      1.0000 0.29980  0.56840  0.30760  Biso   1.000  H
  C39      1.0000 0.27310  0.45960  0.21210  Biso   1.000  C
  H20      1.0000 0.28850  0.47690  0.20600  Biso   1.000  H
  C40      1.0000 0.27809  0.57820  0.36180  Biso   1.000  C
  H21      1.0000 0.29040  0.61370  0.39270  Biso   1.000  H
  C41      1.0000 0.23233  0.37980  0.17800  Biso   1.000  C
  H22      1.0000 0.21990  0.34400  0.14770  Biso   1.000  H
  C42      1.0000 0.24540  0.59980  0.41800  Biso   1.000  C
  C43      1.0000 0.23687  0.50300  0.32610  Biso   1.000  C
  H23      1.0000 0.22050  0.49000  0.32880  Biso   1.000  H
  C44      1.0000 0.26687  0.49250  0.26600  Biso   1.000  C
  C45      1.0000 0.24401  0.46580  0.27510  Biso   1.000  C
  C46      1.0000 0.25581  0.40160  0.16940  Biso   1.000  C
  C47      1.0000 0.25460  0.55830  0.37100  Biso   1.000  C
  C48      1.0000 0.22742  0.40940  0.22920  Biso   1.000  C
  H24      1.0000 0.21200  0.39130  0.23440  Biso   1.000  H
  O14      1.0000 0.21159  0.74160  0.44628  Biso   1.000  O
  O15      1.0000 0.22173  0.58840  0.41360  Biso   1.000  O
  O16      1.0000 0.24574  0.31920  0.07550  Biso   1.000  O
  O17      1.0000 0.28354  0.39650  0.10680  Biso   1.000  O
  O18      1.0000 0.26269  0.64690  0.46240  Biso   1.000  O
  Mg5      1.0000 0.55205  0.36230  0.80782  Biso   1.000  Mg
  Mg6      1.0000 0.55954  0.15511  0.79759  Biso   1.000  Mg
  Mg7      1.0000 0.69000  0.14364  0.42820  Biso   1.000  Mg
  C49      1.0000 0.61124  0.28840  0.72340  Biso   1.000  C
  C50      1.0000 0.50679  0.39530  0.67230  Biso   1.000  C
  C51      1.0000 0.59273  0.27540  0.76160  Biso   1.000  C
  C52      1.0000 0.49900  0.42940  0.60160  Biso   1.000  C
  C53      1.0000 0.65706  0.26840  0.32660  Biso   1.000  C
  C54      1.0000 0.65796  0.15570  0.60180  Biso   1.000  C
  H25      1.0000 0.66440  0.10800  0.59020  Biso   1.000  H
  C55      1.0000 0.63546  0.22030  0.66840  Biso   1.000  C
  C56      1.0000 0.67408  0.23430  0.52440  Biso   1.000  C
  C57      1.0000 0.65343  0.30320  0.59670  Biso   1.000  C
  H26      1.0000 0.65670  0.35340  0.58150  Biso   1.000  H
  C58      1.0000 0.66141  0.23230  0.57620  Biso   1.000  C
  C59      1.0000 0.63960  0.29860  0.64280  Biso   1.000  C
  C60      1.0000 0.64013  0.28210  0.24970  Biso   1.000  C
  C61      1.0000 0.62184  0.21790  0.70810  Biso   1.000  C
  H27      1.0000 0.61940  0.16830  0.72570  Biso   1.000  H
  C62      1.0000 0.63237  0.21340  0.21020  Biso   1.000  C
  H28      1.0000 0.63730  0.16230  0.23000  Biso   1.000  H
  C63      1.0000 0.61705  0.21940  0.14020  Biso   1.000  C
  C64      1.0000 0.61125  0.29980  0.11310  Biso   1.000  C
  C65      1.0000 0.62057  0.36840  0.15570  Biso   1.000  C
  H29      1.0000 0.61740  0.42070  0.13770  Biso   1.000  H
  C66      1.0000 0.57652  0.24630  0.92570  Biso   1.000  C
  C67      1.0000 0.59002  0.24080  0.00160  Biso   1.000  C
  C68      1.0000 0.59737  0.30750  0.04120  Biso   1.000  C
  H30      1.0000 0.59340  0.35900  0.02180  Biso   1.000  H
  C69      1.0000 0.59596  0.16550  0.03100  Biso   1.000  C
  H31      1.0000 0.59050  0.12000  0.00310  Biso   1.000  H
  C70      1.0000 0.51807  0.47240  0.59130  Biso   1.000  C
  H32      1.0000 0.53510  0.47940  0.62640  Biso   1.000  H
  C71      1.0000 0.51238  0.50840  0.52580  Biso   1.000  C
  C72      1.0000 0.47373  0.41080  0.55020  Biso   1.000  C
  H33      1.0000 0.46080  0.37930  0.55780  Biso   1.000  H
  C73      1.0000 0.46913  0.44190  0.48790  Biso   1.000  C
  H34      1.0000 0.45270  0.42930  0.45230  Biso   1.000  H
  C74      1.0000 0.64380  0.15470  0.64740  Biso   1.000  C
  H35      1.0000 0.64060  0.10440  0.66240  Biso   1.000  H
  C75      1.0000 0.63001  0.36850  0.66130  Biso   1.000  C
  H36      1.0000 0.63340  0.41900  0.64680  Biso   1.000  H
  C76      1.0000 0.61516  0.36430  0.70210  Biso   1.000  C
  H37      1.0000 0.60830  0.41090  0.71410  Biso   1.000  H
  C77      1.0000 0.63416  0.35680  0.22320  Biso   1.000  C
  H38      1.0000 0.63940  0.40180  0.25160  Biso   1.000  H
  C78      1.0000 0.60930  0.15310  0.09840  Biso   1.000  C
  H39      1.0000 0.61310  0.10060  0.11590  Biso   1.000  H
  C79      1.0000 0.49040  0.12450  0.83050  Biso   1.000  C
  C80      1.0000 0.49860  0.07640  0.89870  Biso   1.000  C
  C81      1.0000 0.51930  0.97550  0.09150  Biso   1.000  C
  H40      1.0000 0.53500  0.99270  0.12730  Biso   1.000  H
  C82      1.0000 0.51290  0.00300  0.02350  Biso   1.000  C
  C83      1.0000 0.52290  0.09990  0.94990  Biso   1.000  C
  H41      1.0000 0.53420  0.13630  0.94040  Biso   1.000  H
  C84      1.0000 0.53110  0.06990  0.01580  Biso   1.000  C
  H42      1.0000 0.54630  0.08940  0.05190  Biso   1.000  H
  O19      1.0000 0.50627  0.17050  0.82360  Biso   1.000  O
  O20      1.0000 0.58409  0.34460  0.77830  Biso   1.000  O
  O21      1.0000 0.46589  0.10430  0.78790  Biso   1.000  O
  O22      1.0000 0.57193  0.31790  0.90230  Biso   1.000  O
  O23      1.0000 0.58776  0.20550  0.77580  Biso   1.000  O
  O24      1.0000 0.57129  0.17910  0.89360  Biso   1.000  O
  O25      1.0000 0.48809  0.34910  0.67910  Biso   1.000  O
  O26      1.0000 0.52892  0.41060  0.71610  Biso   1.000  O
  O27      1.0000 0.53826  0.25620  0.77056  Biso   1.000  O
  O28      1.0000 0.66365  0.33120  0.36140  Biso   1.000  O
  O29      1.0000 0.66316  0.19420  0.34450  Biso   1.000  O
  O30      1.0000 0.67876  0.30590  0.50860  Biso   1.000  O
  O31      1.0000 0.67803  0.16800  0.50190  Biso   1.000  O
  Mg8      1.0000 0.69685  0.35188  0.44934  Biso   1.000  Mg
  C85      1.0000 0.76210  0.87060  0.11220  Biso   1.000  C
  C86      1.0000 0.78421  0.05020  0.31220  Biso   1.000  C
  H43      1.0000 0.79980  0.06840  0.30760  Biso   1.000  H
  C87      1.0000 0.77310  0.95960  0.21210  Biso   1.000  C
  H44      1.0000 0.78850  0.97690  0.20600  Biso   1.000  H
  C88      1.0000 0.77809  0.07820  0.36180  Biso   1.000  C
  H45      1.0000 0.79040  0.11370  0.39270  Biso   1.000  H
  C89      1.0000 0.73233  0.87980  0.17800  Biso   1.000  C
  H46      1.0000 0.71990  0.84400  0.14770  Biso   1.000  H
  C90      1.0000 0.74540  0.09980  0.41800  Biso   1.000  C
  C91      1.0000 0.73687  0.00300  0.32610  Biso   1.000  C
  H47      1.0000 0.72050  0.99000  0.32880  Biso   1.000  H
  C92      1.0000 0.76687  0.99250  0.26600  Biso   1.000  C
  C93      1.0000 0.74401  0.96580  0.27510  Biso   1.000  C
  C94      1.0000 0.75581  0.90160  0.16940  Biso   1.000  C
  C95      1.0000 0.75460  0.05830  0.37100  Biso   1.000  C
  C96      1.0000 0.72742  0.90940  0.22920  Biso   1.000  C
  H48      1.0000 0.71200  0.89130  0.23440  Biso   1.000  H
  O32      1.0000 0.71159  0.24160  0.44628  Biso   1.000  O
  O33      1.0000 0.72173  0.08840  0.41360  Biso   1.000  O
  O34      1.0000 0.74574  0.81920  0.07550  Biso   1.000  O
  O35      1.0000 0.78354  0.89650  0.10680  Biso   1.000  O
  O36      1.0000 0.76269  0.14690  0.46240  Biso   1.000  O
  Mg9      1.0000 0.94795  0.86230  0.69218  Biso   1.000  Mg
  Mg10     1.0000 0.94046  0.65511  0.70241  Biso   1.000  Mg
  Mg11     1.0000 0.81000  0.64364  0.07180  Biso   1.000  Mg
  C97      1.0000 0.88876  0.78840  0.77660  Biso   1.000  C
  C98      1.0000 0.99321  0.89530  0.82770  Biso   1.000  C
  C99      1.0000 0.90727  0.77540  0.73840  Biso   1.000  C
  C100     1.0000 0.00100  0.92940  0.89840  Biso   1.000  C
  C101     1.0000 0.84294  0.76840  0.17340  Biso   1.000  C
  C102     1.0000 0.84204  0.65570  0.89820  Biso   1.000  C
  H49      1.0000 0.83560  0.60800  0.90980  Biso   1.000  H
  C103     1.0000 0.86454  0.72030  0.83160  Biso   1.000  C
  C104     1.0000 0.82592  0.73430  0.97560  Biso   1.000  C
  C105     1.0000 0.84657  0.80320  0.90330  Biso   1.000  C
  H50      1.0000 0.84330  0.85340  0.91850  Biso   1.000  H
  C106     1.0000 0.83859  0.73230  0.92380  Biso   1.000  C
  C107     1.0000 0.86040  0.79860  0.85720  Biso   1.000  C
  C108     1.0000 0.85987  0.78210  0.25030  Biso   1.000  C
  C109     1.0000 0.87816  0.71790  0.79190  Biso   1.000  C
  H51      1.0000 0.88060  0.66830  0.77430  Biso   1.000  H
  C110     1.0000 0.86763  0.71340  0.28980  Biso   1.000  C
  H52      1.0000 0.86270  0.66230  0.27000  Biso   1.000  H
  C111     1.0000 0.88295  0.71940  0.35980  Biso   1.000  C
  C112     1.0000 0.88875  0.79980  0.38690  Biso   1.000  C
  C113     1.0000 0.87943  0.86840  0.34430  Biso   1.000  C
  H53      1.0000 0.88260  0.92070  0.36230  Biso   1.000  H
  C114     1.0000 0.92348  0.74630  0.57430  Biso   1.000  C
  C115     1.0000 0.90998  0.74080  0.49840  Biso   1.000  C
  C116     1.0000 0.90263  0.80750  0.45880  Biso   1.000  C
  H54      1.0000 0.90660  0.85900  0.47820  Biso   1.000  H
  C117     1.0000 0.90404  0.66550  0.46900  Biso   1.000  C
  H55      1.0000 0.90950  0.62000  0.49690  Biso   1.000  H
  C118     1.0000 0.98193  0.97240  0.90870  Biso   1.000  C
  H56      1.0000 0.96490  0.97940  0.87360  Biso   1.000  H
  C119     1.0000 0.98762  0.00840  0.97420  Biso   1.000  C
  C120     1.0000 0.02627  0.91080  0.94980  Biso   1.000  C
  H57      1.0000 0.03920  0.87930  0.94220  Biso   1.000  H
  C121     1.0000 0.03087  0.94190  0.01210  Biso   1.000  C
  H58      1.0000 0.04730  0.92930  0.04770  Biso   1.000  H
  C122     1.0000 0.85620  0.65470  0.85260  Biso   1.000  C
  H59      1.0000 0.85940  0.60440  0.83760  Biso   1.000  H
  C123     1.0000 0.86999  0.86850  0.83870  Biso   1.000  C
  H60      1.0000 0.86660  0.91900  0.85320  Biso   1.000  H
  C124     1.0000 0.88484  0.86430  0.79790  Biso   1.000  C
  H61      1.0000 0.89170  0.91090  0.78590  Biso   1.000  H
  C125     1.0000 0.86584  0.85680  0.27680  Biso   1.000  C
  H62      1.0000 0.86060  0.90180  0.24840  Biso   1.000  H
  C126     1.0000 0.89070  0.65310  0.40160  Biso   1.000  C
  H63      1.0000 0.88690  0.60060  0.38410  Biso   1.000  H
  C127     1.0000 0.00960  0.62450  0.66950  Biso   1.000  C
  C128     1.0000 0.00140  0.57640  0.60130  Biso   1.000  C
  C129     1.0000 0.98070  0.47550  0.40850  Biso   1.000  C
  H64      1.0000 0.96500  0.49270  0.37270  Biso   1.000  H
  C130     1.0000 0.98710  0.50300  0.47650  Biso   1.000  C
  C131     1.0000 0.97710  0.59990  0.55010  Biso   1.000  C
  H65      1.0000 0.96580  0.63630  0.55960  Biso   1.000  H
  C132     1.0000 0.96890  0.56990  0.48420  Biso   1.000  C
  H66      1.0000 0.95370  0.58940  0.44810  Biso   1.000  H
  O37      1.0000 0.99373  0.67050  0.67640  Biso   1.000  O
  O38      1.0000 0.91591  0.84460  0.72170  Biso   1.000  O
  O39      1.0000 0.03411  0.60430  0.71210  Biso   1.000  O
  O40      1.0000 0.92807  0.81790  0.59770  Biso   1.000  O
  O41      1.0000 0.91224  0.70550  0.72420  Biso   1.000  O
  O42      1.0000 0.92871  0.67910  0.60640  Biso   1.000  O
  O43      1.0000 0.01191  0.84910  0.82090  Biso   1.000  O
  O44      1.0000 0.97108  0.91060  0.78390  Biso   1.000  O
  O45      1.0000 0.96174  0.75620  0.72944  Biso   1.000  O
  O46      1.0000 0.83635  0.83120  0.13860  Biso   1.000  O
  O47      1.0000 0.83684  0.69420  0.15550  Biso   1.000  O
  O48      1.0000 0.82124  0.80590  0.99140  Biso   1.000  O
  O49      1.0000 0.82197  0.66800  0.99810  Biso   1.000  O
  Mg12     1.0000 0.80315  0.85188  0.05066  Biso   1.000  Mg
  C133     1.0000 0.73790  0.37060  0.38780  Biso   1.000  C
  C134     1.0000 0.71579  0.55020  0.18780  Biso   1.000  C
  H67      1.0000 0.70020  0.56840  0.19240  Biso   1.000  H
  C135     1.0000 0.72690  0.45960  0.28790  Biso   1.000  C
  H68      1.0000 0.71150  0.47690  0.29400  Biso   1.000  H
  C136     1.0000 0.72191  0.57820  0.13820  Biso   1.000  C
  H69      1.0000 0.70960  0.61370  0.10730  Biso   1.000  H
  C137     1.0000 0.76767  0.37980  0.32200  Biso   1.000  C
  H70      1.0000 0.78010  0.34400  0.35230  Biso   1.000  H
  C138     1.0000 0.75460  0.59980  0.08200  Biso   1.000  C
  C139     1.0000 0.76313  0.50300  0.17390  Biso   1.000  C
  H71      1.0000 0.77950  0.49000  0.17120  Biso   1.000  H
  C140     1.0000 0.73313  0.49250  0.23400  Biso   1.000  C
  C141     1.0000 0.75599  0.46580  0.22490  Biso   1.000  C
  C142     1.0000 0.74419  0.40160  0.33060  Biso   1.000  C
  C143     1.0000 0.74540  0.55830  0.12900  Biso   1.000  C
  C144     1.0000 0.77258  0.40940  0.27080  Biso   1.000  C
  H72      1.0000 0.78800  0.39130  0.26560  Biso   1.000  H
  O50      1.0000 0.78841  0.74160  0.05372  Biso   1.000  O
  O51      1.0000 0.77827  0.58840  0.08640  Biso   1.000  O
  O52      1.0000 0.75426  0.31920  0.42450  Biso   1.000  O
  O53      1.0000 0.71646  0.39650  0.39320  Biso   1.000  O
  O54      1.0000 0.73731  0.64690  0.03760  Biso   1.000  O
  Mg13     1.0000 0.44795  0.36230  0.69218  Biso   1.000  Mg
  Mg14     1.0000 0.44046  0.15511  0.70241  Biso   1.000  Mg
  Mg15     1.0000 0.31000  0.14364  0.07180  Biso   1.000  Mg
  C145     1.0000 0.38876  0.28840  0.77660  Biso   1.000  C
  C146     1.0000 0.49321  0.39530  0.82770  Biso   1.000  C
  C147     1.0000 0.40727  0.27540  0.73840  Biso   1.000  C
  C148     1.0000 0.50100  0.42940  0.89840  Biso   1.000  C
  C149     1.0000 0.34294  0.26840  0.17340  Biso   1.000  C
  C150     1.0000 0.34204  0.15570  0.89820  Biso   1.000  C
  H73      1.0000 0.33560  0.10800  0.90980  Biso   1.000  H
  C151     1.0000 0.36454  0.22030  0.83160  Biso   1.000  C
  C152     1.0000 0.32592  0.23430  0.97560  Biso   1.000  C
  C153     1.0000 0.34657  0.30320  0.90330  Biso   1.000  C
  H74      1.0000 0.34330  0.35340  0.91850  Biso   1.000  H
  C154     1.0000 0.33859  0.23230  0.92380  Biso   1.000  C
  C155     1.0000 0.36040  0.29860  0.85720  Biso   1.000  C
  C156     1.0000 0.35987  0.28210  0.25030  Biso   1.000  C
  C157     1.0000 0.37816  0.21790  0.79190  Biso   1.000  C
  H75      1.0000 0.38060  0.16830  0.77430  Biso   1.000  H
  C158     1.0000 0.36763  0.21340  0.28980  Biso   1.000  C
  H76      1.0000 0.36270  0.16230  0.27000  Biso   1.000  H
  C159     1.0000 0.38295  0.21940  0.35980  Biso   1.000  C
  C160     1.0000 0.38875  0.29980  0.38690  Biso   1.000  C
  C161     1.0000 0.37943  0.36840  0.34430  Biso   1.000  C
  H77      1.0000 0.38260  0.42070  0.36230  Biso   1.000  H
  C162     1.0000 0.42348  0.24630  0.57430  Biso   1.000  C
  C163     1.0000 0.40998  0.24080  0.49840  Biso   1.000  C
  C164     1.0000 0.40263  0.30750  0.45880  Biso   1.000  C
  H78      1.0000 0.40660  0.35900  0.47820  Biso   1.000  H
  C165     1.0000 0.40404  0.16550  0.46900  Biso   1.000  C
  H79      1.0000 0.40950  0.12000  0.49690  Biso   1.000  H
  C166     1.0000 0.48193  0.47240  0.90870  Biso   1.000  C
  H80      1.0000 0.46490  0.47940  0.87360  Biso   1.000  H
  C167     1.0000 0.48762  0.50840  0.97420  Biso   1.000  C
  C168     1.0000 0.52627  0.41080  0.94980  Biso   1.000  C
  H81      1.0000 0.53920  0.37930  0.94220  Biso   1.000  H
  C169     1.0000 0.53087  0.44190  0.01210  Biso   1.000  C
  H82      1.0000 0.54730  0.42930  0.04770  Biso   1.000  H
  C170     1.0000 0.35620  0.15470  0.85260  Biso   1.000  C
  H83      1.0000 0.35940  0.10440  0.83760  Biso   1.000  H
  C171     1.0000 0.36999  0.36850  0.83870  Biso   1.000  C
  H84      1.0000 0.36660  0.41900  0.85320  Biso   1.000  H
  C172     1.0000 0.38484  0.36430  0.79790  Biso   1.000  C
  H85      1.0000 0.39170  0.41090  0.78590  Biso   1.000  H
  C173     1.0000 0.36584  0.35680  0.27680  Biso   1.000  C
  H86      1.0000 0.36060  0.40180  0.24840  Biso   1.000  H
  C174     1.0000 0.39070  0.15310  0.40160  Biso   1.000  C
  H87      1.0000 0.38690  0.10060  0.38410  Biso   1.000  H
  C175     1.0000 0.50960  0.12450  0.66950  Biso   1.000  C
  C176     1.0000 0.50140  0.07640  0.60130  Biso   1.000  C
  C177     1.0000 0.48070  0.97550  0.40850  Biso   1.000  C
  H88      1.0000 0.46500  0.99270  0.37270  Biso   1.000  H
  C178     1.0000 0.48710  0.00300  0.47650  Biso   1.000  C
  C179     1.0000 0.47710  0.09990  0.55010  Biso   1.000  C
  H89      1.0000 0.46580  0.13630  0.55960  Biso   1.000  H
  C180     1.0000 0.46890  0.06990  0.48420  Biso   1.000  C
  H90      1.0000 0.45370  0.08940  0.44810  Biso   1.000  H
  O55      1.0000 0.49373  0.17050  0.67640  Biso   1.000  O
  O56      1.0000 0.41591  0.34460  0.72170  Biso   1.000  O
  O57      1.0000 0.53411  0.10430  0.71210  Biso   1.000  O
  O58      1.0000 0.42807  0.31790  0.59770  Biso   1.000  O
  O59      1.0000 0.41224  0.20550  0.72420  Biso   1.000  O
  O60      1.0000 0.42871  0.17910  0.60640  Biso   1.000  O
  O61      1.0000 0.51191  0.34910  0.82090  Biso   1.000  O
  O62      1.0000 0.47108  0.41060  0.78390  Biso   1.000  O
  O63      1.0000 0.46174  0.25620  0.72944  Biso   1.000  O
  O64      1.0000 0.33635  0.33120  0.13860  Biso   1.000  O
  O65      1.0000 0.33684  0.19420  0.15550  Biso   1.000  O
  O66      1.0000 0.32124  0.30590  0.99140  Biso   1.000  O
  O67      1.0000 0.32197  0.16800  0.99810  Biso   1.000  O
  Mg16     1.0000 0.30315  0.35188  0.05066  Biso   1.000  Mg
  C181     1.0000 0.23790  0.87060  0.38780  Biso   1.000  C
  C182     1.0000 0.21579  0.05020  0.18780  Biso   1.000  C
  H91      1.0000 0.20020  0.06840  0.19240  Biso   1.000  H
  C183     1.0000 0.22690  0.95960  0.28790  Biso   1.000  C
  H92      1.0000 0.21150  0.97690  0.29400  Biso   1.000  H
  C184     1.0000 0.22191  0.07820  0.13820  Biso   1.000  C
  H93      1.0000 0.20960  0.11370  0.10730  Biso   1.000  H
  C185     1.0000 0.26767  0.87980  0.32200  Biso   1.000  C
  H94      1.0000 0.28010  0.84400  0.35230  Biso   1.000  H
  C186     1.0000 0.25460  0.09980  0.08200  Biso   1.000  C
  C187     1.0000 0.26313  0.00300  0.17390  Biso   1.000  C
  H95      1.0000 0.27950  0.99000  0.17120  Biso   1.000  H
  C188     1.0000 0.23313  0.99250  0.23400  Biso   1.000  C
  C189     1.0000 0.25599  0.96580  0.22490  Biso   1.000  C
  C190     1.0000 0.24419  0.90160  0.33060  Biso   1.000  C
  C191     1.0000 0.24540  0.05830  0.12900  Biso   1.000  C
  C192     1.0000 0.27258  0.90940  0.27080  Biso   1.000  C
  H96      1.0000 0.28800  0.89130  0.26560  Biso   1.000  H
  O68      1.0000 0.28841  0.24160  0.05372  Biso   1.000  O
  O69      1.0000 0.27827  0.08840  0.08640  Biso   1.000  O
  O70      1.0000 0.25426  0.81920  0.42450  Biso   1.000  O
  O71      1.0000 0.21646  0.89650  0.39320  Biso   1.000  O
  O72      1.0000 0.23731  0.14690  0.03760  Biso   1.000  O
  Mg17     1.0000 0.94795  0.13770  0.19218  Biso   1.000  Mg
  Mg18     1.0000 0.94046  0.34489  0.20241  Biso   1.000  Mg
  Mg19     1.0000 0.81000  0.35636  0.57180  Biso   1.000  Mg
  C193     1.0000 0.88876  0.21160  0.27660  Biso   1.000  C
  C194     1.0000 0.99321  0.10470  0.32770  Biso   1.000  C
  C195     1.0000 0.90727  0.22460  0.23840  Biso   1.000  C
  C196     1.0000 0.00100  0.07060  0.39840  Biso   1.000  C
  C197     1.0000 0.84294  0.23160  0.67340  Biso   1.000  C
  C198     1.0000 0.84204  0.34430  0.39820  Biso   1.000  C
  H97      1.0000 0.83560  0.39200  0.40980  Biso   1.000  H
  C199     1.0000 0.86454  0.27970  0.33160  Biso   1.000  C
  C200     1.0000 0.82592  0.26570  0.47560  Biso   1.000  C
  C201     1.0000 0.84657  0.19680  0.40330  Biso   1.000  C
  H98      1.0000 0.84330  0.14660  0.41850  Biso   1.000  H
  C202     1.0000 0.83859  0.26770  0.42380  Biso   1.000  C
  C203     1.0000 0.86040  0.20140  0.35720  Biso   1.000  C
  C204     1.0000 0.85987  0.21790  0.75030  Biso   1.000  C
  C205     1.0000 0.87816  0.28210  0.29190  Biso   1.000  C
  H99      1.0000 0.88060  0.33170  0.27430  Biso   1.000  H
  C206     1.0000 0.86763  0.28660  0.78980  Biso   1.000  C
  H100     1.0000 0.86270  0.33770  0.77000  Biso   1.000  H
  C207     1.0000 0.88295  0.28060  0.85980  Biso   1.000  C
  C208     1.0000 0.88875  0.20020  0.88690  Biso   1.000  C
  C209     1.0000 0.87943  0.13160  0.84430  Biso   1.000  C
  H101     1.0000 0.88260  0.07930  0.86230  Biso   1.000  H
  C210     1.0000 0.92348  0.25370  0.07430  Biso   1.000  C
  C211     1.0000 0.90998  0.25920  0.99840  Biso   1.000  C
  C212     1.0000 0.90263  0.19250  0.95880  Biso   1.000  C
  H102     1.0000 0.90660  0.14100  0.97820  Biso   1.000  H
  C213     1.0000 0.90404  0.33450  0.96900  Biso   1.000  C
  H103     1.0000 0.90950  0.38000  0.99690  Biso   1.000  H
  C214     1.0000 0.98193  0.02760  0.40870  Biso   1.000  C
  H104     1.0000 0.96490  0.02060  0.37360  Biso   1.000  H
  C215     1.0000 0.98762  0.99160  0.47420  Biso   1.000  C
  C216     1.0000 0.02627  0.08920  0.44980  Biso   1.000  C
  H105     1.0000 0.03920  0.12070  0.44220  Biso   1.000  H
  C217     1.0000 0.03087  0.05810  0.51210  Biso   1.000  C
  H106     1.0000 0.04730  0.07070  0.54770  Biso   1.000  H
  C218     1.0000 0.85620  0.34530  0.35260  Biso   1.000  C
  H107     1.0000 0.85940  0.39560  0.33760  Biso   1.000  H
  C219     1.0000 0.86999  0.13150  0.33870  Biso   1.000  C
  H108     1.0000 0.86660  0.08100  0.35320  Biso   1.000  H
  C220     1.0000 0.88484  0.13570  0.29790  Biso   1.000  C
  H109     1.0000 0.89170  0.08910  0.28590  Biso   1.000  H
  C221     1.0000 0.86584  0.14320  0.77680  Biso   1.000  C
  H110     1.0000 0.86060  0.09820  0.74840  Biso   1.000  H
  C222     1.0000 0.89070  0.34690  0.90160  Biso   1.000  C
  H111     1.0000 0.88690  0.39940  0.88410  Biso   1.000  H
  C223     1.0000 0.00960  0.37550  0.16950  Biso   1.000  C
  C224     1.0000 0.00140  0.42360  0.10130  Biso   1.000  C
  C225     1.0000 0.98070  0.52450  0.90850  Biso   1.000  C
  H112     1.0000 0.96500  0.50730  0.87270  Biso   1.000  H
  C226     1.0000 0.98710  0.49700  0.97650  Biso   1.000  C
  C227     1.0000 0.97710  0.40010  0.05010  Biso   1.000  C
  H113     1.0000 0.96580  0.36370  0.05960  Biso   1.000  H
  C228     1.0000 0.96890  0.43010  0.98420  Biso   1.000  C
  H114     1.0000 0.95370  0.41060  0.94810  Biso   1.000  H
  O73      1.0000 0.99373  0.32950  0.17640  Biso   1.000  O
  O74      1.0000 0.91591  0.15540  0.22170  Biso   1.000  O
  O75      1.0000 0.03411  0.39570  0.21210  Biso   1.000  O
  O76      1.0000 0.92807  0.18210  0.09770  Biso   1.000  O
  O77      1.0000 0.91224  0.29450  0.22420  Biso   1.000  O
  O78      1.0000 0.92871  0.32090  0.10640  Biso   1.000  O
  O79      1.0000 0.01191  0.15090  0.32090  Biso   1.000  O
  O80      1.0000 0.97108  0.08940  0.28390  Biso   1.000  O
  O81      1.0000 0.96174  0.24380  0.22944  Biso   1.000  O
  O82      1.0000 0.83635  0.16880  0.63860  Biso   1.000  O
  O83      1.0000 0.83684  0.30580  0.65550  Biso   1.000  O
  O84      1.0000 0.82124  0.19410  0.49140  Biso   1.000  O
  O85      1.0000 0.82197  0.33200  0.49810  Biso   1.000  O
  Mg20     1.0000 0.80315  0.14812  0.55066  Biso   1.000  Mg
  C229     1.0000 0.73790  0.62940  0.88780  Biso   1.000  C
  C230     1.0000 0.71579  0.44980  0.68780  Biso   1.000  C
  H115     1.0000 0.70020  0.43160  0.69240  Biso   1.000  H
  C231     1.0000 0.72690  0.54040  0.78790  Biso   1.000  C
  H116     1.0000 0.71150  0.52310  0.79400  Biso   1.000  H
  C232     1.0000 0.72191  0.42180  0.63820  Biso   1.000  C
  H117     1.0000 0.70960  0.38630  0.60730  Biso   1.000  H
  C233     1.0000 0.76767  0.62020  0.82200  Biso   1.000  C
  H118     1.0000 0.78010  0.65600  0.85230  Biso   1.000  H
  C234     1.0000 0.75460  0.40020  0.58200  Biso   1.000  C
  C235     1.0000 0.76313  0.49700  0.67390  Biso   1.000  C
  H119     1.0000 0.77950  0.51000  0.67120  Biso   1.000  H
  C236     1.0000 0.73313  0.50750  0.73400  Biso   1.000  C
  C237     1.0000 0.75599  0.53420  0.72490  Biso   1.000  C
  C238     1.0000 0.74419  0.59840  0.83060  Biso   1.000  C
  C239     1.0000 0.74540  0.44170  0.62900  Biso   1.000  C
  C240     1.0000 0.77258  0.59060  0.77080  Biso   1.000  C
  H120     1.0000 0.78800  0.60870  0.76560  Biso   1.000  H
  O86      1.0000 0.78841  0.25840  0.55372  Biso   1.000  O
  O87      1.0000 0.77827  0.41160  0.58640  Biso   1.000  O
  O88      1.0000 0.75426  0.68080  0.92450  Biso   1.000  O
  O89      1.0000 0.71646  0.60350  0.89320  Biso   1.000  O
  O90      1.0000 0.73731  0.35310  0.53760  Biso   1.000  O
  Mg21     1.0000 0.44795  0.63770  0.19218  Biso   1.000  Mg
  Mg22     1.0000 0.44046  0.84489  0.20241  Biso   1.000  Mg
  Mg23     1.0000 0.31000  0.85636  0.57180  Biso   1.000  Mg
  C241     1.0000 0.38876  0.71160  0.27660  Biso   1.000  C
  C242     1.0000 0.49321  0.60470  0.32770  Biso   1.000  C
  C243     1.0000 0.40727  0.72460  0.23840  Biso   1.000  C
  C244     1.0000 0.50100  0.57060  0.39840  Biso   1.000  C
  C245     1.0000 0.34294  0.73160  0.67340  Biso   1.000  C
  C246     1.0000 0.34204  0.84430  0.39820  Biso   1.000  C
  H121     1.0000 0.33560  0.89200  0.40980  Biso   1.000  H
  C247     1.0000 0.36454  0.77970  0.33160  Biso   1.000  C
  C248     1.0000 0.32592  0.76570  0.47560  Biso   1.000  C
  C249     1.0000 0.34657  0.69680  0.40330  Biso   1.000  C
  H122     1.0000 0.34330  0.64660  0.41850  Biso   1.000  H
  C250     1.0000 0.33859  0.76770  0.42380  Biso   1.000  C
  C251     1.0000 0.36040  0.70140  0.35720  Biso   1.000  C
  C252     1.0000 0.35987  0.71790  0.75030  Biso   1.000  C
  C253     1.0000 0.37816  0.78210  0.29190  Biso   1.000  C
  H123     1.0000 0.38060  0.83170  0.27430  Biso   1.000  H
  C254     1.0000 0.36763  0.78660  0.78980  Biso   1.000  C
  H124     1.0000 0.36270  0.83770  0.77000  Biso   1.000  H
  C255     1.0000 0.38295  0.78060  0.85980  Biso   1.000  C
  C256     1.0000 0.38875  0.70020  0.88690  Biso   1.000  C
  C257     1.0000 0.37943  0.63160  0.84430  Biso   1.000  C
  H125     1.0000 0.38260  0.57930  0.86230  Biso   1.000  H
  C258     1.0000 0.42348  0.75370  0.07430  Biso   1.000  C
  C259     1.0000 0.40998  0.75920  0.99840  Biso   1.000  C
  C260     1.0000 0.40263  0.69250  0.95880  Biso   1.000  C
  H126     1.0000 0.40660  0.64100  0.97820  Biso   1.000  H
  C261     1.0000 0.40404  0.83450  0.96900  Biso   1.000  C
  H127     1.0000 0.40950  0.88000  0.99690  Biso   1.000  H
  C262     1.0000 0.48193  0.52760  0.40870  Biso   1.000  C
  H128     1.0000 0.46490  0.52060  0.37360  Biso   1.000  H
  C263     1.0000 0.48762  0.49160  0.47420  Biso   1.000  C
  C264     1.0000 0.52627  0.58920  0.44980  Biso   1.000  C
  H129     1.0000 0.53920  0.62070  0.44220  Biso   1.000  H
  C265     1.0000 0.53087  0.55810  0.51210  Biso   1.000  C
  H130     1.0000 0.54730  0.57070  0.54770  Biso   1.000  H
  C266     1.0000 0.35620  0.84530  0.35260  Biso   1.000  C
  H131     1.0000 0.35940  0.89560  0.33760  Biso   1.000  H
  C267     1.0000 0.36999  0.63150  0.33870  Biso   1.000  C
  H132     1.0000 0.36660  0.58100  0.35320  Biso   1.000  H
  C268     1.0000 0.38484  0.63570  0.29790  Biso   1.000  C
  H133     1.0000 0.39170  0.58910  0.28590  Biso   1.000  H
  C269     1.0000 0.36584  0.64320  0.77680  Biso   1.000  C
  H134     1.0000 0.36060  0.59820  0.74840  Biso   1.000  H
  C270     1.0000 0.39070  0.84690  0.90160  Biso   1.000  C
  H135     1.0000 0.38690  0.89940  0.88410  Biso   1.000  H
  C271     1.0000 0.50960  0.87550  0.16950  Biso   1.000  C
  C272     1.0000 0.50140  0.92360  0.10130  Biso   1.000  C
  C273     1.0000 0.48070  0.02450  0.90850  Biso   1.000  C
  H136     1.0000 0.46500  0.00730  0.87270  Biso   1.000  H
  C274     1.0000 0.48710  0.99700  0.97650  Biso   1.000  C
  C275     1.0000 0.47710  0.90010  0.05010  Biso   1.000  C
  H137     1.0000 0.46580  0.86370  0.05960  Biso   1.000  H
  C276     1.0000 0.46890  0.93010  0.98420  Biso   1.000  C
  H138     1.0000 0.45370  0.91060  0.94810  Biso   1.000  H
  O91      1.0000 0.49373  0.82950  0.17640  Biso   1.000  O
  O92      1.0000 0.41591  0.65540  0.22170  Biso   1.000  O
  O93      1.0000 0.53411  0.89570  0.21210  Biso   1.000  O
  O94      1.0000 0.42807  0.68210  0.09770  Biso   1.000  O
  O95      1.0000 0.41224  0.79450  0.22420  Biso   1.000  O
  O96      1.0000 0.42871  0.82090  0.10640  Biso   1.000  O
  O97      1.0000 0.51191  0.65090  0.32090  Biso   1.000  O
  O98      1.0000 0.47108  0.58940  0.28390  Biso   1.000  O
  O99      1.0000 0.46174  0.74380  0.22944  Biso   1.000  O
  O100     1.0000 0.33635  0.66880  0.63860  Biso   1.000  O
  O101     1.0000 0.33684  0.80580  0.65550  Biso   1.000  O
  O102     1.0000 0.32124  0.69410  0.49140  Biso   1.000  O
  O103     1.0000 0.32197  0.83200  0.49810  Biso   1.000  O
  Mg24     1.0000 0.30315  0.64812  0.55066  Biso   1.000  Mg
  C277     1.0000 0.23790  0.12940  0.88780  Biso   1.000  C
  C278     1.0000 0.21579  0.94980  0.68780  Biso   1.000  C
  H139     1.0000 0.20020  0.93160  0.69240  Biso   1.000  H
  C279     1.0000 0.22690  0.04040  0.78790  Biso   1.000  C
  H140     1.0000 0.21150  0.02310  0.79400  Biso   1.000  H
  C280     1.0000 0.22191  0.92180  0.63820  Biso   1.000  C
  H141     1.0000 0.20960  0.88630  0.60730  Biso   1.000  H
  C281     1.0000 0.26767  0.12020  0.82200  Biso   1.000  C
  H142     1.0000 0.28010  0.15600  0.85230  Biso   1.000  H
  C282     1.0000 0.25460  0.90020  0.58200  Biso   1.000  C
  C283     1.0000 0.26313  0.99700  0.67390  Biso   1.000  C
  H143     1.0000 0.27950  0.01000  0.67120  Biso   1.000  H
  C284     1.0000 0.23313  0.00750  0.73400  Biso   1.000  C
  C285     1.0000 0.25599  0.03420  0.72490  Biso   1.000  C
  C286     1.0000 0.24419  0.09840  0.83060  Biso   1.000  C
  C287     1.0000 0.24540  0.94170  0.62900  Biso   1.000  C
  C288     1.0000 0.27258  0.09060  0.77080  Biso   1.000  C
  H144     1.0000 0.28800  0.10870  0.76560  Biso   1.000  H
  O104     1.0000 0.28841  0.75840  0.55372  Biso   1.000  O
  O105     1.0000 0.27827  0.91160  0.58640  Biso   1.000  O
  O106     1.0000 0.25426  0.18080  0.92450  Biso   1.000  O
  O107     1.0000 0.21646  0.10350  0.89320  Biso   1.000  O
  O108     1.0000 0.23731  0.85310  0.53760  Biso   1.000  O
  Mg25     1.0000 0.05205  0.13770  0.30782  Biso   1.000  Mg
  Mg26     1.0000 0.05954  0.34489  0.29759  Biso   1.000  Mg
  Mg27     1.0000 0.19000  0.35636  0.92820  Biso   1.000  Mg
  C289     1.0000 0.11124  0.21160  0.22340  Biso   1.000  C
  C290     1.0000 0.00679  0.10470  0.17230  Biso   1.000  C
  C291     1.0000 0.09273  0.22460  0.26160  Biso   1.000  C
  C292     1.0000 0.99900  0.07060  0.10160  Biso   1.000  C
  C293     1.0000 0.15706  0.23160  0.82660  Biso   1.000  C
  C294     1.0000 0.15796  0.34430  0.10180  Biso   1.000  C
  H145     1.0000 0.16440  0.39200  0.09020  Biso   1.000  H
  C295     1.0000 0.13546  0.27970  0.16840  Biso   1.000  C
  C296     1.0000 0.17408  0.26570  0.02440  Biso   1.000  C
  C297     1.0000 0.15343  0.19680  0.09670  Biso   1.000  C
  H146     1.0000 0.15670  0.14660  0.08150  Biso   1.000  H
  C298     1.0000 0.16141  0.26770  0.07620  Biso   1.000  C
  C299     1.0000 0.13960  0.20140  0.14280  Biso   1.000  C
  C300     1.0000 0.14013  0.21790  0.74970  Biso   1.000  C
  C301     1.0000 0.12184  0.28210  0.20810  Biso   1.000  C
  H147     1.0000 0.11940  0.33170  0.22570  Biso   1.000  H
  C302     1.0000 0.13237  0.28660  0.71020  Biso   1.000  C
  H148     1.0000 0.13730  0.33770  0.73000  Biso   1.000  H
  C303     1.0000 0.11705  0.28060  0.64020  Biso   1.000  C
  C304     1.0000 0.11125  0.20020  0.61310  Biso   1.000  C
  C305     1.0000 0.12057  0.13160  0.65570  Biso   1.000  C
  H149     1.0000 0.11740  0.07930  0.63770  Biso   1.000  H
  C306     1.0000 0.07652  0.25370  0.42570  Biso   1.000  C
  C307     1.0000 0.09002  0.25920  0.50160  Biso   1.000  C
  C308     1.0000 0.09737  0.19250  0.54120  Biso   1.000  C
  H150     1.0000 0.09340  0.14100  0.52180  Biso   1.000  H
  C309     1.0000 0.09596  0.33450  0.53100  Biso   1.000  C
  H151     1.0000 0.09050  0.38000  0.50310  Biso   1.000  H
  C310     1.0000 0.01807  0.02760  0.09130  Biso   1.000  C
  H152     1.0000 0.03510  0.02060  0.12640  Biso   1.000  H
  C311     1.0000 0.01238  0.99160  0.02580  Biso   1.000  C
  C312     1.0000 0.97373  0.08920  0.05020  Biso   1.000  C
  H153     1.0000 0.96080  0.12070  0.05780  Biso   1.000  H
  C313     1.0000 0.96913  0.05810  0.98790  Biso   1.000  C
  H154     1.0000 0.95270  0.07070  0.95230  Biso   1.000  H
  C314     1.0000 0.14380  0.34530  0.14740  Biso   1.000  C
  H155     1.0000 0.14060  0.39560  0.16240  Biso   1.000  H
  C315     1.0000 0.13001  0.13150  0.16130  Biso   1.000  C
  H156     1.0000 0.13340  0.08100  0.14680  Biso   1.000  H
  C316     1.0000 0.11516  0.13570  0.20210  Biso   1.000  C
  H157     1.0000 0.10830  0.08910  0.21410  Biso   1.000  H
  C317     1.0000 0.13416  0.14320  0.72320  Biso   1.000  C
  H158     1.0000 0.13940  0.09820  0.75160  Biso   1.000  H
  C318     1.0000 0.10930  0.34690  0.59840  Biso   1.000  C
  H159     1.0000 0.11310  0.39940  0.61590  Biso   1.000  H
  C319     1.0000 0.99040  0.37550  0.33050  Biso   1.000  C
  C320     1.0000 0.99860  0.42360  0.39870  Biso   1.000  C
  C321     1.0000 0.01930  0.52450  0.59150  Biso   1.000  C
  H160     1.0000 0.03500  0.50730  0.62730  Biso   1.000  H
  C322     1.0000 0.01290  0.49700  0.52350  Biso   1.000  C
  C323     1.0000 0.02290  0.40010  0.44990  Biso   1.000  C
  H161     1.0000 0.03420  0.36370  0.44040  Biso   1.000  H
  C324     1.0000 0.03110  0.43010  0.51580  Biso   1.000  C
  H162     1.0000 0.04630  0.41060  0.55190  Biso   1.000  H
  O109     1.0000 0.00627  0.32950  0.32360  Biso   1.000  O
  O110     1.0000 0.08409  0.15540  0.27830  Biso   1.000  O
  O111     1.0000 0.96589  0.39570  0.28790  Biso   1.000  O
  O112     1.0000 0.07193  0.18210  0.40230  Biso   1.000  O
  O113     1.0000 0.08776  0.29450  0.27580  Biso   1.000  O
  O114     1.0000 0.07129  0.32090  0.39360  Biso   1.000  O
  O115     1.0000 0.98809  0.15090  0.17910  Biso   1.000  O
  O116     1.0000 0.02892  0.08940  0.21610  Biso   1.000  O
  O117     1.0000 0.03826  0.24380  0.27056  Biso   1.000  O
  O118     1.0000 0.16365  0.16880  0.86140  Biso   1.000  O
  O119     1.0000 0.16316  0.30580  0.84450  Biso   1.000  O
  O120     1.0000 0.17876  0.19410  0.00860  Biso   1.000  O
  O121     1.0000 0.17803  0.33200  0.00190  Biso   1.000  O
  Mg28     1.0000 0.19685  0.14812  0.94934  Biso   1.000  Mg
  C325     1.0000 0.26210  0.62940  0.61220  Biso   1.000  C
  C326     1.0000 0.28421  0.44980  0.81220  Biso   1.000  C
  H163     1.0000 0.29980  0.43160  0.80760  Biso   1.000  H
  C327     1.0000 0.27310  0.54040  0.71210  Biso   1.000  C
  H164     1.0000 0.28850  0.52310  0.70600  Biso   1.000  H
  C328     1.0000 0.27809  0.42180  0.86180  Biso   1.000  C
  H165     1.0000 0.29040  0.38630  0.89270  Biso   1.000  H
  C329     1.0000 0.23233  0.62020  0.67800  Biso   1.000  C
  H166     1.0000 0.21990  0.65600  0.64770  Biso   1.000  H
  C330     1.0000 0.24540  0.40020  0.91800  Biso   1.000  C
  C331     1.0000 0.23687  0.49700  0.82610  Biso   1.000  C
  H167     1.0000 0.22050  0.51000  0.82880  Biso   1.000  H
  C332     1.0000 0.26687  0.50750  0.76600  Biso   1.000  C
  C333     1.0000 0.24401  0.53420  0.77510  Biso   1.000  C
  C334     1.0000 0.25581  0.59840  0.66940  Biso   1.000  C
  C335     1.0000 0.25460  0.44170  0.87100  Biso   1.000  C
  C336     1.0000 0.22742  0.59060  0.72920  Biso   1.000  C
  H168     1.0000 0.21200  0.60870  0.73440  Biso   1.000  H
  O122     1.0000 0.21159  0.25840  0.94628  Biso   1.000  O
  O123     1.0000 0.22173  0.41160  0.91360  Biso   1.000  O
  O124     1.0000 0.24574  0.68080  0.57550  Biso   1.000  O
  O125     1.0000 0.28354  0.60350  0.60680  Biso   1.000  O
  O126     1.0000 0.26269  0.35310  0.96240  Biso   1.000  O
  Mg29     1.0000 0.55205  0.63770  0.30782  Biso   1.000  Mg
  Mg30     1.0000 0.55954  0.84489  0.29759  Biso   1.000  Mg
  Mg31     1.0000 0.69000  0.85636  0.92820  Biso   1.000  Mg
  C337     1.0000 0.61124  0.71160  0.22340  Biso   1.000  C
  C338     1.0000 0.50679  0.60470  0.17230  Biso   1.000  C
  C339     1.0000 0.59273  0.72460  0.26160  Biso   1.000  C
  C340     1.0000 0.49900  0.57060  0.10160  Biso   1.000  C
  C341     1.0000 0.65706  0.73160  0.82660  Biso   1.000  C
  C342     1.0000 0.65796  0.84430  0.10180  Biso   1.000  C
  H169     1.0000 0.66440  0.89200  0.09020  Biso   1.000  H
  C343     1.0000 0.63546  0.77970  0.16840  Biso   1.000  C
  C344     1.0000 0.67408  0.76570  0.02440  Biso   1.000  C
  C345     1.0000 0.65343  0.69680  0.09670  Biso   1.000  C
  H170     1.0000 0.65670  0.64660  0.08150  Biso   1.000  H
  C346     1.0000 0.66141  0.76770  0.07620  Biso   1.000  C
  C347     1.0000 0.63960  0.70140  0.14280  Biso   1.000  C
  C348     1.0000 0.64013  0.71790  0.74970  Biso   1.000  C
  C349     1.0000 0.62184  0.78210  0.20810  Biso   1.000  C
  H171     1.0000 0.61940  0.83170  0.22570  Biso   1.000  H
  C350     1.0000 0.63237  0.78660  0.71020  Biso   1.000  C
  H172     1.0000 0.63730  0.83770  0.73000  Biso   1.000  H
  C351     1.0000 0.61705  0.78060  0.64020  Biso   1.000  C
  C352     1.0000 0.61125  0.70020  0.61310  Biso   1.000  C
  C353     1.0000 0.62057  0.63160  0.65570  Biso   1.000  C
  H173     1.0000 0.61740  0.57930  0.63770  Biso   1.000  H
  C354     1.0000 0.57652  0.75370  0.42570  Biso   1.000  C
  C355     1.0000 0.59002  0.75920  0.50160  Biso   1.000  C
  C356     1.0000 0.59737  0.69250  0.54120  Biso   1.000  C
  H174     1.0000 0.59340  0.64100  0.52180  Biso   1.000  H
  C357     1.0000 0.59596  0.83450  0.53100  Biso   1.000  C
  H175     1.0000 0.59050  0.88000  0.50310  Biso   1.000  H
  C358     1.0000 0.51807  0.52760  0.09130  Biso   1.000  C
  H176     1.0000 0.53510  0.52060  0.12640  Biso   1.000  H
  C359     1.0000 0.51238  0.49160  0.02580  Biso   1.000  C
  C360     1.0000 0.47373  0.58920  0.05020  Biso   1.000  C
  H177     1.0000 0.46080  0.62070  0.05780  Biso   1.000  H
  C361     1.0000 0.46913  0.55810  0.98790  Biso   1.000  C
  H178     1.0000 0.45270  0.57070  0.95230  Biso   1.000  H
  C362     1.0000 0.64380  0.84530  0.14740  Biso   1.000  C
  H179     1.0000 0.64060  0.89560  0.16240  Biso   1.000  H
  C363     1.0000 0.63001  0.63150  0.16130  Biso   1.000  C
  H180     1.0000 0.63340  0.58100  0.14680  Biso   1.000  H
  C364     1.0000 0.61516  0.63570  0.20210  Biso   1.000  C
  H181     1.0000 0.60830  0.58910  0.21410  Biso   1.000  H
  C365     1.0000 0.63416  0.64320  0.72320  Biso   1.000  C
  H182     1.0000 0.63940  0.59820  0.75160  Biso   1.000  H
  C366     1.0000 0.60930  0.84690  0.59840  Biso   1.000  C
  H183     1.0000 0.61310  0.89940  0.61590  Biso   1.000  H
  C367     1.0000 0.49040  0.87550  0.33050  Biso   1.000  C
  C368     1.0000 0.49860  0.92360  0.39870  Biso   1.000  C
  C369     1.0000 0.51930  0.02450  0.59150  Biso   1.000  C
  H184     1.0000 0.53500  0.00730  0.62730  Biso   1.000  H
  C370     1.0000 0.51290  0.99700  0.52350  Biso   1.000  C
  C371     1.0000 0.52290  0.90010  0.44990  Biso   1.000  C
  H185     1.0000 0.53420  0.86370  0.44040  Biso   1.000  H
  C372     1.0000 0.53110  0.93010  0.51580  Biso   1.000  C
  H186     1.0000 0.54630  0.91060  0.55190  Biso   1.000  H
  O127     1.0000 0.50627  0.82950  0.32360  Biso   1.000  O
  O128     1.0000 0.58409  0.65540  0.27830  Biso   1.000  O
  O129     1.0000 0.46589  0.89570  0.28790  Biso   1.000  O
  O130     1.0000 0.57193  0.68210  0.40230  Biso   1.000  O
  O131     1.0000 0.58776  0.79450  0.27580  Biso   1.000  O
  O132     1.0000 0.57129  0.82090  0.39360  Biso   1.000  O
  O133     1.0000 0.48809  0.65090  0.17910  Biso   1.000  O
  O134     1.0000 0.52892  0.58940  0.21610  Biso   1.000  O
  O135     1.0000 0.53826  0.74380  0.27056  Biso   1.000  O
  O136     1.0000 0.66365  0.66880  0.86140  Biso   1.000  O
  O137     1.0000 0.66316  0.80580  0.84450  Biso   1.000  O
  O138     1.0000 0.67876  0.69410  0.00860  Biso   1.000  O
  O139     1.0000 0.67803  0.83200  0.00190  Biso   1.000  O
  Mg32     1.0000 0.69685  0.64812  0.94934  Biso   1.000  Mg
  C373     1.0000 0.76210  0.12940  0.61220  Biso   1.000  C
  C374     1.0000 0.78421  0.94980  0.81220  Biso   1.000  C
  H187     1.0000 0.79980  0.93160  0.80760  Biso   1.000  H
  C375     1.0000 0.77310  0.04040  0.71210  Biso   1.000  C
  H188     1.0000 0.78850  0.02310  0.70600  Biso   1.000  H
  C376     1.0000 0.77809  0.92180  0.86180  Biso   1.000  C
  H189     1.0000 0.79040  0.88630  0.89270  Biso   1.000  H
  C377     1.0000 0.73233  0.12020  0.67800  Biso   1.000  C
  H190     1.0000 0.71990  0.15600  0.64770  Biso   1.000  H
  C378     1.0000 0.74540  0.90020  0.91800  Biso   1.000  C
  C379     1.0000 0.73687  0.99700  0.82610  Biso   1.000  C
  H191     1.0000 0.72050  0.01000  0.82880  Biso   1.000  H
  C380     1.0000 0.76687  0.00750  0.76600  Biso   1.000  C
  C381     1.0000 0.74401  0.03420  0.77510  Biso   1.000  C
  C382     1.0000 0.75581  0.09840  0.66940  Biso   1.000  C
  C383     1.0000 0.75460  0.94170  0.87100  Biso   1.000  C
  C384     1.0000 0.72742  0.09060  0.72920  Biso   1.000  C
  H192     1.0000 0.71200  0.10870  0.73440  Biso   1.000  H
  O140     1.0000 0.71159  0.75840  0.94628  Biso   1.000  O
  O141     1.0000 0.72173  0.91160  0.91360  Biso   1.000  O
  O142     1.0000 0.74574  0.18080  0.57550  Biso   1.000  O
  O143     1.0000 0.78354  0.10350  0.60680  Biso   1.000  O
  O144     1.0000 0.76269  0.85310  0.96240  Biso   1.000  O
  Mg33     1.0000 0.00000  0.75288  0.75000  Biso   1.000  Mg
  Mg34     1.0000 0.50000  0.25288  0.75000  Biso   1.000  Mg
  Mg35     1.0000 0.00000  0.24712  0.25000  Biso   1.000  Mg
  Mg36     1.0000 0.50000  0.74712  0.25000  Biso   1.000  Mg
  Mg37     1.0000 0.25000  0.75000  0.50000  Biso   1.000  Mg
  Mg38     1.0000 0.75000  0.75000  0.00000  Biso   1.000  Mg
  Mg39     1.0000 0.75000  0.25000  0.50000  Biso   1.000  Mg
  Mg40     1.0000 0.25000  0.25000  0.00000  Biso   1.000  Mg
