data_image0
_cell_length_a       14.2885
_cell_length_b       23.823
_cell_length_c       30.749
_cell_angle_alpha    90
_cell_angle_beta     90
_cell_angle_gamma    90

_symmetry_space_group_name_H-M    "P 1"
_symmetry_int_tables_number       1

loop_
  _symmetry_equiv_pos_as_xyz
  'x, y, z'

loop_
  _atom_site_label
  _atom_site_occupancy
  _atom_site_fract_x
  _atom_site_fract_y
  _atom_site_fract_z
  _atom_site_thermal_displace_type
  _atom_site_B_iso_or_equiv
  _atom_site_type_symbol
  Ag1      1.0000 0.35092  0.76665  0.71115  Biso   1.000  Ag
  N1       1.0000 0.31060  0.81030  0.64430  Biso   1.000  N
  N2       1.0000 0.25660  0.87320  0.57190  Biso   1.000  N
  C1       1.0000 0.33420  0.79640  0.60490  Biso   1.000  C
  H1       1.0000 0.37100  0.76370  0.60080  Biso   1.000  H
  C2       1.0000 0.30840  0.82690  0.56880  Biso   1.000  C
  H2       1.0000 0.32810  0.81450  0.54090  Biso   1.000  H
  C3       1.0000 0.23130  0.88760  0.61210  Biso   1.000  C
  H3       1.0000 0.19450  0.92050  0.61570  Biso   1.000  H
  C4       1.0000 0.25540  0.85760  0.64850  Biso   1.000  C
  H4       1.0000 0.23440  0.86920  0.67640  Biso   1.000  H
  Ag2      1.0000 0.20101  0.93497  0.51922  Biso   1.000  Ag
  Ag3      1.0000 0.41204  0.72252  0.78948  Biso   1.000  Ag
  Ag4      1.0000 0.52144  0.55562  0.98551  Biso   1.000  Ag
  N3       1.0000 0.45490  0.68360  0.85620  Biso   1.000  N
  N4       1.0000 0.49500  0.62600  0.93240  Biso   1.000  N
  C5       1.0000 0.41740  0.69890  0.89600  Biso   1.000  C
  H5       1.0000 0.37560  0.72980  0.89770  Biso   1.000  H
  C6       1.0000 0.43990  0.67010  0.93290  Biso   1.000  C
  H6       1.0000 0.41480  0.68240  0.95980  Biso   1.000  H
  C7       1.0000 0.53780  0.61260  0.89500  Biso   1.000  C
  H7       1.0000 0.58580  0.58500  0.89460  Biso   1.000  H
  C8       1.0000 0.51130  0.63970  0.85700  Biso   1.000  C
  H8       1.0000 0.53500  0.62600  0.83020  Biso   1.000  H
  Ag5      1.0000 0.49982  0.56029  0.47178  Biso   1.000  Ag
  Ag6      1.0000 0.61053  0.73856  0.28382  Biso   1.000  Ag
  N5       1.0000 0.56280  0.69290  0.34920  Biso   1.000  N
  N6       1.0000 0.51650  0.62700  0.42030  Biso   1.000  N
  C9       1.0000 0.51590  0.64730  0.34510  Biso   1.000  C
  H9       1.0000 0.49630  0.63610  0.31690  Biso   1.000  H
  C10      1.0000 0.49260  0.61370  0.38030  Biso   1.000  C
  H10      1.0000 0.45830  0.58010  0.37540  Biso   1.000  H
  C11      1.0000 0.56460  0.67410  0.42560  Biso   1.000  C
  H11      1.0000 0.58110  0.68620  0.45400  Biso   1.000  H
  C12      1.0000 0.59120  0.70610  0.38940  Biso   1.000  C
  H12      1.0000 0.63030  0.73790  0.39360  Biso   1.000  H
  O1       1.0000 0.27620  0.82660  0.75360  Biso   1.000  O
  O2       1.0000 0.34060  0.79790  0.81600  Biso   1.000  O
  O3       1.0000 0.28280  0.90950  0.94980  Biso   1.000  O
  O4       1.0000 0.18550  0.98380  0.94550  Biso   1.000  O
  C13      1.0000 0.29070  0.83010  0.79320  Biso   1.000  C
  C14      1.0000 0.24160  0.87940  0.81670  Biso   1.000  C
  C15      1.0000 0.18440  0.91410  0.79330  Biso   1.000  C
  H13      1.0000 0.17670  0.90830  0.76300  Biso   1.000  H
  C16      1.0000 0.13760  0.95790  0.81370  Biso   1.000  C
  H14      1.0000 0.09720  0.98200  0.79770  Biso   1.000  H
  C17      1.0000 0.15160  0.96580  0.85890  Biso   1.000  C
  H15      1.0000 0.11960  0.99540  0.87340  Biso   1.000  H
  C18      1.0000 0.21040  0.93170  0.88230  Biso   1.000  C
  C19      1.0000 0.25710  0.88680  0.86080  Biso   1.000  C
  H16      1.0000 0.29780  0.86250  0.87630  Biso   1.000  H
  C20      1.0000 0.22680  0.94170  0.92990  Biso   1.000  C
  O5       1.0000 0.42880  0.69530  0.68410  Biso   1.000  O
  O6       1.0000 0.48000  0.65910  0.74630  Biso   1.000  O
  O7       1.0000 0.57210  0.52850  0.54060  Biso   1.000  O
  O8       1.0000 0.47590  0.60120  0.54520  Biso   1.000  O
  C21      1.0000 0.47160  0.65920  0.70580  Biso   1.000  C
  C22      1.0000 0.51350  0.61360  0.68030  Biso   1.000  C
  C23      1.0000 0.57180  0.57110  0.70060  Biso   1.000  C
  H17      1.0000 0.58070  0.57100  0.73120  Biso   1.000  H
  C24      1.0000 0.61440  0.53100  0.67480  Biso   1.000  C
  H18      1.0000 0.65230  0.50320  0.68840  Biso   1.000  H
  C25      1.0000 0.60420  0.52960  0.63160  Biso   1.000  C
  H19      1.0000 0.63580  0.50210  0.61480  Biso   1.000  H
  C26      1.0000 0.54650  0.56920  0.61150  Biso   1.000  C
  C27      1.0000 0.50510  0.61080  0.63540  Biso   1.000  C
  H20      1.0000 0.46930  0.63860  0.62080  Biso   1.000  H
  C28      1.0000 0.53190  0.56540  0.56390  Biso   1.000  C
  Ag7      1.0000 0.65792  0.77684  0.20077  Biso   1.000  Ag
  N7       1.0000 0.70150  0.81570  0.13300  Biso   1.000  N
  N8       1.0000 0.74200  0.87700  0.05830  Biso   1.000  N
  C29      1.0000 0.75710  0.86270  0.13500  Biso   1.000  C
  H21      1.0000 0.78370  0.87460  0.16170  Biso   1.000  H
  C30      1.0000 0.77310  0.89190  0.09720  Biso   1.000  C
  H22      1.0000 0.80910  0.92540  0.09920  Biso   1.000  H
  C31      1.0000 0.68760  0.83070  0.05690  Biso   1.000  C
  H23      1.0000 0.66030  0.81910  0.03030  Biso   1.000  H
  C32      1.0000 0.67210  0.80060  0.09390  Biso   1.000  C
  H24      1.0000 0.63790  0.76650  0.09150  Biso   1.000  H
  Ag8      1.0000 0.75148  0.95075  0.00700  Biso   1.000  Ag
  O9       1.0000 0.58380  0.69990  0.18040  Biso   1.000  O
  O10      1.0000 0.53370  0.67560  0.24710  Biso   1.000  O
  O11      1.0000 0.51160  0.58420  0.05270  Biso   1.000  O
  O12      1.0000 0.42420  0.50690  0.06220  Biso   1.000  O
  C33      1.0000 0.54200  0.66930  0.20640  Biso   1.000  C
  C34      1.0000 0.49290  0.61860  0.18700  Biso   1.000  C
  C35      1.0000 0.44220  0.58090  0.21420  Biso   1.000  C
  H25      1.0000 0.44120  0.58560  0.24490  Biso   1.000  H
  C36      1.0000 0.39460  0.53730  0.19470  Biso   1.000  C
  H26      1.0000 0.35750  0.51310  0.21210  Biso   1.000  H
  C37      1.0000 0.39940  0.52820  0.15130  Biso   1.000  C
  H27      1.0000 0.36650  0.49750  0.13880  Biso   1.000  H
  C38      1.0000 0.45250  0.56350  0.12480  Biso   1.000  C
  C39      1.0000 0.49740  0.60870  0.14300  Biso   1.000  C
  H28      1.0000 0.53210  0.63340  0.12490  Biso   1.000  H
  C40      1.0000 0.46120  0.55110  0.07670  Biso   1.000  C
  O13      1.0000 0.72660  0.84320  0.24000  Biso   1.000  O
  O14      1.0000 0.68530  0.81100  0.30610  Biso   1.000  O
  O15      1.0000 0.75580  0.91980  0.43740  Biso   1.000  O
  O16      1.0000 0.84620  0.99550  0.43210  Biso   1.000  O
  C41      1.0000 0.72410  0.84560  0.28030  Biso   1.000  C
  C42      1.0000 0.77350  0.89560  0.30290  Biso   1.000  C
  C43      1.0000 0.82220  0.93190  0.27820  Biso   1.000  C
  H29      1.0000 0.82510  0.92730  0.24750  Biso   1.000  H
  C44      1.0000 0.86930  0.97710  0.29890  Biso   1.000  C
  H30      1.0000 0.90600  0.00260  0.28240  Biso   1.000  H
  C45      1.0000 0.86130  0.98340  0.34220  Biso   1.000  C
  H31      1.0000 0.89210  0.01400  0.35590  Biso   1.000  H
  C46      1.0000 0.80950  0.94660  0.36770  Biso   1.000  C
  C47      1.0000 0.76420  0.90140  0.34670  Biso   1.000  C
  H32      1.0000 0.72780  0.87550  0.36290  Biso   1.000  H
  C48      1.0000 0.79980  0.95550  0.41550  Biso   1.000  C
  Ag9      1.0000 0.14908  0.73335  0.71115  Biso   1.000  Ag
  N9       1.0000 0.18940  0.68970  0.64430  Biso   1.000  N
  N10      1.0000 0.24340  0.62680  0.57190  Biso   1.000  N
  C49      1.0000 0.16580  0.70360  0.60490  Biso   1.000  C
  H33      1.0000 0.12900  0.73630  0.60080  Biso   1.000  H
  C50      1.0000 0.19160  0.67310  0.56880  Biso   1.000  C
  H34      1.0000 0.17190  0.68550  0.54090  Biso   1.000  H
  C51      1.0000 0.26870  0.61240  0.61210  Biso   1.000  C
  H35      1.0000 0.30550  0.57950  0.61570  Biso   1.000  H
  C52      1.0000 0.24460  0.64240  0.64850  Biso   1.000  C
  H36      1.0000 0.26560  0.63080  0.67640  Biso   1.000  H
  Ag10     1.0000 0.29899  0.56503  0.51922  Biso   1.000  Ag
  Ag11     1.0000 0.08796  0.77748  0.78948  Biso   1.000  Ag
  Ag12     1.0000 0.97856  0.94438  0.98551  Biso   1.000  Ag
  N11      1.0000 0.04510  0.81640  0.85620  Biso   1.000  N
  N12      1.0000 0.00500  0.87400  0.93240  Biso   1.000  N
  C53      1.0000 0.08260  0.80110  0.89600  Biso   1.000  C
  H37      1.0000 0.12440  0.77020  0.89770  Biso   1.000  H
  C54      1.0000 0.06010  0.82990  0.93290  Biso   1.000  C
  H38      1.0000 0.08520  0.81760  0.95980  Biso   1.000  H
  C55      1.0000 0.96220  0.88740  0.89500  Biso   1.000  C
  H39      1.0000 0.91420  0.91500  0.89460  Biso   1.000  H
  C56      1.0000 0.98870  0.86030  0.85700  Biso   1.000  C
  H40      1.0000 0.96500  0.87400  0.83020  Biso   1.000  H
  Ag13     1.0000 0.00018  0.93971  0.47178  Biso   1.000  Ag
  Ag14     1.0000 0.88947  0.76144  0.28382  Biso   1.000  Ag
  N13      1.0000 0.93720  0.80710  0.34920  Biso   1.000  N
  N14      1.0000 0.98350  0.87300  0.42030  Biso   1.000  N
  C57      1.0000 0.98410  0.85270  0.34510  Biso   1.000  C
  H41      1.0000 0.00370  0.86390  0.31690  Biso   1.000  H
  C58      1.0000 0.00740  0.88630  0.38030  Biso   1.000  C
  H42      1.0000 0.04170  0.91990  0.37540  Biso   1.000  H
  C59      1.0000 0.93540  0.82590  0.42560  Biso   1.000  C
  H43      1.0000 0.91890  0.81380  0.45400  Biso   1.000  H
  C60      1.0000 0.90880  0.79390  0.38940  Biso   1.000  C
  H44      1.0000 0.86970  0.76210  0.39360  Biso   1.000  H
  O17      1.0000 0.22380  0.67340  0.75360  Biso   1.000  O
  O18      1.0000 0.15940  0.70210  0.81600  Biso   1.000  O
  O19      1.0000 0.21720  0.59050  0.94980  Biso   1.000  O
  O20      1.0000 0.31450  0.51620  0.94550  Biso   1.000  O
  C61      1.0000 0.20930  0.66990  0.79320  Biso   1.000  C
  C62      1.0000 0.25840  0.62060  0.81670  Biso   1.000  C
  C63      1.0000 0.31560  0.58590  0.79330  Biso   1.000  C
  H45      1.0000 0.32330  0.59170  0.76300  Biso   1.000  H
  C64      1.0000 0.36240  0.54210  0.81370  Biso   1.000  C
  H46      1.0000 0.40280  0.51800  0.79770  Biso   1.000  H
  C65      1.0000 0.34840  0.53420  0.85890  Biso   1.000  C
  H47      1.0000 0.38040  0.50460  0.87340  Biso   1.000  H
  C66      1.0000 0.28960  0.56830  0.88230  Biso   1.000  C
  C67      1.0000 0.24290  0.61320  0.86080  Biso   1.000  C
  H48      1.0000 0.20220  0.63750  0.87630  Biso   1.000  H
  C68      1.0000 0.27320  0.55830  0.92990  Biso   1.000  C
  O21      1.0000 0.07120  0.80470  0.68410  Biso   1.000  O
  O22      1.0000 0.02000  0.84090  0.74630  Biso   1.000  O
  O23      1.0000 0.92790  0.97150  0.54060  Biso   1.000  O
  O24      1.0000 0.02410  0.89880  0.54520  Biso   1.000  O
  C69      1.0000 0.02840  0.84080  0.70580  Biso   1.000  C
  C70      1.0000 0.98650  0.88640  0.68030  Biso   1.000  C
  C71      1.0000 0.92820  0.92890  0.70060  Biso   1.000  C
  H49      1.0000 0.91930  0.92900  0.73120  Biso   1.000  H
  C72      1.0000 0.88560  0.96900  0.67480  Biso   1.000  C
  H50      1.0000 0.84770  0.99680  0.68840  Biso   1.000  H
  C73      1.0000 0.89580  0.97040  0.63160  Biso   1.000  C
  H51      1.0000 0.86420  0.99790  0.61480  Biso   1.000  H
  C74      1.0000 0.95350  0.93080  0.61150  Biso   1.000  C
  C75      1.0000 0.99490  0.88920  0.63540  Biso   1.000  C
  H52      1.0000 0.03070  0.86140  0.62080  Biso   1.000  H
  C76      1.0000 0.96810  0.93460  0.56390  Biso   1.000  C
  Ag15     1.0000 0.84208  0.72316  0.20077  Biso   1.000  Ag
  N15      1.0000 0.79850  0.68430  0.13300  Biso   1.000  N
  N16      1.0000 0.75800  0.62300  0.05830  Biso   1.000  N
  C77      1.0000 0.74290  0.63730  0.13500  Biso   1.000  C
  H53      1.0000 0.71630  0.62540  0.16170  Biso   1.000  H
  C78      1.0000 0.72690  0.60810  0.09720  Biso   1.000  C
  H54      1.0000 0.69090  0.57460  0.09920  Biso   1.000  H
  C79      1.0000 0.81240  0.66930  0.05690  Biso   1.000  C
  H55      1.0000 0.83970  0.68090  0.03030  Biso   1.000  H
  C80      1.0000 0.82790  0.69940  0.09390  Biso   1.000  C
  H56      1.0000 0.86210  0.73350  0.09150  Biso   1.000  H
  Ag16     1.0000 0.74852  0.54925  0.00700  Biso   1.000  Ag
  O25      1.0000 0.91620  0.80010  0.18040  Biso   1.000  O
  O26      1.0000 0.96630  0.82440  0.24710  Biso   1.000  O
  O27      1.0000 0.98840  0.91580  0.05270  Biso   1.000  O
  O28      1.0000 0.07580  0.99310  0.06220  Biso   1.000  O
  C81      1.0000 0.95800  0.83070  0.20640  Biso   1.000  C
  C82      1.0000 0.00710  0.88140  0.18700  Biso   1.000  C
  C83      1.0000 0.05780  0.91910  0.21420  Biso   1.000  C
  H57      1.0000 0.05880  0.91440  0.24490  Biso   1.000  H
  C84      1.0000 0.10540  0.96270  0.19470  Biso   1.000  C
  H58      1.0000 0.14250  0.98690  0.21210  Biso   1.000  H
  C85      1.0000 0.10060  0.97180  0.15130  Biso   1.000  C
  H59      1.0000 0.13350  0.00250  0.13880  Biso   1.000  H
  C86      1.0000 0.04750  0.93650  0.12480  Biso   1.000  C
  C87      1.0000 0.00260  0.89130  0.14300  Biso   1.000  C
  H60      1.0000 0.96790  0.86660  0.12490  Biso   1.000  H
  C88      1.0000 0.03880  0.94890  0.07670  Biso   1.000  C
  O29      1.0000 0.77340  0.65680  0.24000  Biso   1.000  O
  O30      1.0000 0.81470  0.68900  0.30610  Biso   1.000  O
  O31      1.0000 0.74420  0.58020  0.43740  Biso   1.000  O
  O32      1.0000 0.65380  0.50450  0.43210  Biso   1.000  O
  C89      1.0000 0.77590  0.65440  0.28030  Biso   1.000  C
  C90      1.0000 0.72650  0.60440  0.30290  Biso   1.000  C
  C91      1.0000 0.67780  0.56810  0.27820  Biso   1.000  C
  H61      1.0000 0.67490  0.57270  0.24750  Biso   1.000  H
  C92      1.0000 0.63070  0.52290  0.29890  Biso   1.000  C
  H62      1.0000 0.59400  0.49740  0.28240  Biso   1.000  H
  C93      1.0000 0.63870  0.51660  0.34220  Biso   1.000  C
  H63      1.0000 0.60790  0.48600  0.35590  Biso   1.000  H
  C94      1.0000 0.69050  0.55340  0.36770  Biso   1.000  C
  C95      1.0000 0.73580  0.59860  0.34670  Biso   1.000  C
  H64      1.0000 0.77220  0.62450  0.36290  Biso   1.000  H
  C96      1.0000 0.70020  0.54450  0.41550  Biso   1.000  C
  Ag17     1.0000 0.64908  0.26665  0.78885  Biso   1.000  Ag
  N17      1.0000 0.68940  0.31030  0.85570  Biso   1.000  N
  N18      1.0000 0.74340  0.37320  0.92810  Biso   1.000  N
  C97      1.0000 0.66580  0.29640  0.89510  Biso   1.000  C
  H65      1.0000 0.62900  0.26370  0.89920  Biso   1.000  H
  C98      1.0000 0.69160  0.32690  0.93120  Biso   1.000  C
  H66      1.0000 0.67190  0.31450  0.95910  Biso   1.000  H
  C99      1.0000 0.76870  0.38760  0.88790  Biso   1.000  C
  H67      1.0000 0.80550  0.42050  0.88430  Biso   1.000  H
  C100     1.0000 0.74460  0.35760  0.85150  Biso   1.000  C
  H68      1.0000 0.76560  0.36920  0.82360  Biso   1.000  H
  Ag18     1.0000 0.79899  0.43497  0.98078  Biso   1.000  Ag
  Ag19     1.0000 0.58796  0.22252  0.71052  Biso   1.000  Ag
  Ag20     1.0000 0.47856  0.05562  0.51449  Biso   1.000  Ag
  N19      1.0000 0.54510  0.18360  0.64380  Biso   1.000  N
  N20      1.0000 0.50500  0.12600  0.56760  Biso   1.000  N
  C101     1.0000 0.58260  0.19890  0.60400  Biso   1.000  C
  H69      1.0000 0.62440  0.22980  0.60230  Biso   1.000  H
  C102     1.0000 0.56010  0.17010  0.56710  Biso   1.000  C
  H70      1.0000 0.58520  0.18240  0.54020  Biso   1.000  H
  C103     1.0000 0.46220  0.11260  0.60500  Biso   1.000  C
  H71      1.0000 0.41420  0.08500  0.60540  Biso   1.000  H
  C104     1.0000 0.48870  0.13970  0.64300  Biso   1.000  C
  H72      1.0000 0.46500  0.12600  0.66980  Biso   1.000  H
  Ag21     1.0000 0.50018  0.06029  0.02822  Biso   1.000  Ag
  Ag22     1.0000 0.38947  0.23856  0.21618  Biso   1.000  Ag
  N21      1.0000 0.43720  0.19290  0.15080  Biso   1.000  N
  N22      1.0000 0.48350  0.12700  0.07970  Biso   1.000  N
  C105     1.0000 0.48410  0.14730  0.15490  Biso   1.000  C
  H73      1.0000 0.50370  0.13610  0.18310  Biso   1.000  H
  C106     1.0000 0.50740  0.11370  0.11970  Biso   1.000  C
  H74      1.0000 0.54170  0.08010  0.12460  Biso   1.000  H
  C107     1.0000 0.43540  0.17410  0.07440  Biso   1.000  C
  H75      1.0000 0.41890  0.18620  0.04600  Biso   1.000  H
  C108     1.0000 0.40880  0.20610  0.11060  Biso   1.000  C
  H76      1.0000 0.36970  0.23790  0.10640  Biso   1.000  H
  O33      1.0000 0.72380  0.32660  0.74640  Biso   1.000  O
  O34      1.0000 0.65940  0.29790  0.68400  Biso   1.000  O
  O35      1.0000 0.71720  0.40950  0.55020  Biso   1.000  O
  O36      1.0000 0.81450  0.48380  0.55450  Biso   1.000  O
  C109     1.0000 0.70930  0.33010  0.70680  Biso   1.000  C
  C110     1.0000 0.75840  0.37940  0.68330  Biso   1.000  C
  C111     1.0000 0.81560  0.41410  0.70670  Biso   1.000  C
  H77      1.0000 0.82330  0.40830  0.73700  Biso   1.000  H
  C112     1.0000 0.86240  0.45790  0.68630  Biso   1.000  C
  H78      1.0000 0.90280  0.48200  0.70230  Biso   1.000  H
  C113     1.0000 0.84840  0.46580  0.64110  Biso   1.000  C
  H79      1.0000 0.88040  0.49540  0.62660  Biso   1.000  H
  C114     1.0000 0.78960  0.43170  0.61770  Biso   1.000  C
  C115     1.0000 0.74290  0.38680  0.63920  Biso   1.000  C
  H80      1.0000 0.70220  0.36250  0.62370  Biso   1.000  H
  C116     1.0000 0.77320  0.44170  0.57010  Biso   1.000  C
  O37      1.0000 0.57120  0.19530  0.81590  Biso   1.000  O
  O38      1.0000 0.52000  0.15910  0.75370  Biso   1.000  O
  O39      1.0000 0.42790  0.02850  0.95940  Biso   1.000  O
  O40      1.0000 0.52410  0.10120  0.95480  Biso   1.000  O
  C117     1.0000 0.52840  0.15920  0.79420  Biso   1.000  C
  C118     1.0000 0.48650  0.11360  0.81970  Biso   1.000  C
  C119     1.0000 0.42820  0.07110  0.79940  Biso   1.000  C
  H81      1.0000 0.41930  0.07100  0.76880  Biso   1.000  H
  C120     1.0000 0.38560  0.03100  0.82520  Biso   1.000  C
  H82      1.0000 0.34770  0.00320  0.81160  Biso   1.000  H
  C121     1.0000 0.39580  0.02960  0.86840  Biso   1.000  C
  H83      1.0000 0.36420  0.00210  0.88520  Biso   1.000  H
  C122     1.0000 0.45350  0.06920  0.88850  Biso   1.000  C
  C123     1.0000 0.49490  0.11080  0.86460  Biso   1.000  C
  H84      1.0000 0.53070  0.13860  0.87920  Biso   1.000  H
  C124     1.0000 0.46810  0.06540  0.93610  Biso   1.000  C
  Ag23     1.0000 0.34208  0.27684  0.29923  Biso   1.000  Ag
  N23      1.0000 0.29850  0.31570  0.36700  Biso   1.000  N
  N24      1.0000 0.25800  0.37700  0.44170  Biso   1.000  N
  C125     1.0000 0.24290  0.36270  0.36500  Biso   1.000  C
  H85      1.0000 0.21630  0.37460  0.33830  Biso   1.000  H
  C126     1.0000 0.22690  0.39190  0.40280  Biso   1.000  C
  H86      1.0000 0.19090  0.42540  0.40080  Biso   1.000  H
  C127     1.0000 0.31240  0.33070  0.44310  Biso   1.000  C
  H87      1.0000 0.33970  0.31910  0.46970  Biso   1.000  H
  C128     1.0000 0.32790  0.30060  0.40610  Biso   1.000  C
  H88      1.0000 0.36210  0.26650  0.40850  Biso   1.000  H
  Ag24     1.0000 0.24852  0.45075  0.49300  Biso   1.000  Ag
  O41      1.0000 0.41620  0.19990  0.31960  Biso   1.000  O
  O42      1.0000 0.46630  0.17560  0.25290  Biso   1.000  O
  O43      1.0000 0.48840  0.08420  0.44730  Biso   1.000  O
  O44      1.0000 0.57580  0.00690  0.43780  Biso   1.000  O
  C129     1.0000 0.45800  0.16930  0.29360  Biso   1.000  C
  C130     1.0000 0.50710  0.11860  0.31300  Biso   1.000  C
  C131     1.0000 0.55780  0.08090  0.28580  Biso   1.000  C
  H89      1.0000 0.55880  0.08560  0.25510  Biso   1.000  H
  C132     1.0000 0.60540  0.03730  0.30530  Biso   1.000  C
  H90      1.0000 0.64250  0.01310  0.28790  Biso   1.000  H
  C133     1.0000 0.60060  0.02820  0.34870  Biso   1.000  C
  H91      1.0000 0.63350  0.99750  0.36120  Biso   1.000  H
  C134     1.0000 0.54750  0.06350  0.37520  Biso   1.000  C
  C135     1.0000 0.50260  0.10870  0.35700  Biso   1.000  C
  H92      1.0000 0.46790  0.13340  0.37510  Biso   1.000  H
  C136     1.0000 0.53880  0.05110  0.42330  Biso   1.000  C
  O45      1.0000 0.27340  0.34320  0.26000  Biso   1.000  O
  O46      1.0000 0.31470  0.31100  0.19390  Biso   1.000  O
  O47      1.0000 0.24420  0.41980  0.06260  Biso   1.000  O
  O48      1.0000 0.15380  0.49550  0.06790  Biso   1.000  O
  C137     1.0000 0.27590  0.34560  0.21970  Biso   1.000  C
  C138     1.0000 0.22650  0.39560  0.19710  Biso   1.000  C
  C139     1.0000 0.17780  0.43190  0.22180  Biso   1.000  C
  H93      1.0000 0.17490  0.42730  0.25250  Biso   1.000  H
  C140     1.0000 0.13070  0.47710  0.20110  Biso   1.000  C
  H94      1.0000 0.09400  0.50260  0.21760  Biso   1.000  H
  C141     1.0000 0.13870  0.48340  0.15780  Biso   1.000  C
  H95      1.0000 0.10790  0.51400  0.14410  Biso   1.000  H
  C142     1.0000 0.19050  0.44660  0.13230  Biso   1.000  C
  C143     1.0000 0.23580  0.40140  0.15330  Biso   1.000  C
  H96      1.0000 0.27220  0.37550  0.13710  Biso   1.000  H
  C144     1.0000 0.20020  0.45550  0.08450  Biso   1.000  C
  Ag25     1.0000 0.85092  0.23335  0.78885  Biso   1.000  Ag
  N25      1.0000 0.81060  0.18970  0.85570  Biso   1.000  N
  N26      1.0000 0.75660  0.12680  0.92810  Biso   1.000  N
  C145     1.0000 0.83420  0.20360  0.89510  Biso   1.000  C
  H97      1.0000 0.87100  0.23630  0.89920  Biso   1.000  H
  C146     1.0000 0.80840  0.17310  0.93120  Biso   1.000  C
  H98      1.0000 0.82810  0.18550  0.95910  Biso   1.000  H
  C147     1.0000 0.73130  0.11240  0.88790  Biso   1.000  C
  H99      1.0000 0.69450  0.07950  0.88430  Biso   1.000  H
  C148     1.0000 0.75540  0.14240  0.85150  Biso   1.000  C
  H100     1.0000 0.73440  0.13080  0.82360  Biso   1.000  H
  Ag26     1.0000 0.70101  0.06503  0.98078  Biso   1.000  Ag
  Ag27     1.0000 0.91204  0.27748  0.71052  Biso   1.000  Ag
  Ag28     1.0000 0.02144  0.44438  0.51449  Biso   1.000  Ag
  N27      1.0000 0.95490  0.31640  0.64380  Biso   1.000  N
  N28      1.0000 0.99500  0.37400  0.56760  Biso   1.000  N
  C149     1.0000 0.91740  0.30110  0.60400  Biso   1.000  C
  H101     1.0000 0.87560  0.27020  0.60230  Biso   1.000  H
  C150     1.0000 0.93990  0.32990  0.56710  Biso   1.000  C
  H102     1.0000 0.91480  0.31760  0.54020  Biso   1.000  H
  C151     1.0000 0.03780  0.38740  0.60500  Biso   1.000  C
  H103     1.0000 0.08580  0.41500  0.60540  Biso   1.000  H
  C152     1.0000 0.01130  0.36030  0.64300  Biso   1.000  C
  H104     1.0000 0.03500  0.37400  0.66980  Biso   1.000  H
  Ag29     1.0000 0.99982  0.43971  0.02822  Biso   1.000  Ag
  Ag30     1.0000 0.11053  0.26144  0.21618  Biso   1.000  Ag
  N29      1.0000 0.06280  0.30710  0.15080  Biso   1.000  N
  N30      1.0000 0.01650  0.37300  0.07970  Biso   1.000  N
  C153     1.0000 0.01590  0.35270  0.15490  Biso   1.000  C
  H105     1.0000 0.99630  0.36390  0.18310  Biso   1.000  H
  C154     1.0000 0.99260  0.38630  0.11970  Biso   1.000  C
  H106     1.0000 0.95830  0.41990  0.12460  Biso   1.000  H
  C155     1.0000 0.06460  0.32590  0.07440  Biso   1.000  C
  H107     1.0000 0.08110  0.31380  0.04600  Biso   1.000  H
  C156     1.0000 0.09120  0.29390  0.11060  Biso   1.000  C
  H108     1.0000 0.13030  0.26210  0.10640  Biso   1.000  H
  O49      1.0000 0.77620  0.17340  0.74640  Biso   1.000  O
  O50      1.0000 0.84060  0.20210  0.68400  Biso   1.000  O
  O51      1.0000 0.78280  0.09050  0.55020  Biso   1.000  O
  O52      1.0000 0.68550  0.01620  0.55450  Biso   1.000  O
  C157     1.0000 0.79070  0.16990  0.70680  Biso   1.000  C
  C158     1.0000 0.74160  0.12060  0.68330  Biso   1.000  C
  C159     1.0000 0.68440  0.08590  0.70670  Biso   1.000  C
  H109     1.0000 0.67670  0.09170  0.73700  Biso   1.000  H
  C160     1.0000 0.63760  0.04210  0.68630  Biso   1.000  C
  H110     1.0000 0.59720  0.01800  0.70230  Biso   1.000  H
  C161     1.0000 0.65160  0.03420  0.64110  Biso   1.000  C
  H111     1.0000 0.61960  0.00460  0.62660  Biso   1.000  H
  C162     1.0000 0.71040  0.06830  0.61770  Biso   1.000  C
  C163     1.0000 0.75710  0.11320  0.63920  Biso   1.000  C
  H112     1.0000 0.79780  0.13750  0.62370  Biso   1.000  H
  C164     1.0000 0.72680  0.05830  0.57010  Biso   1.000  C
  O53      1.0000 0.92880  0.30470  0.81590  Biso   1.000  O
  O54      1.0000 0.98000  0.34090  0.75370  Biso   1.000  O
  O55      1.0000 0.07210  0.47150  0.95940  Biso   1.000  O
  O56      1.0000 0.97590  0.39880  0.95480  Biso   1.000  O
  C165     1.0000 0.97160  0.34080  0.79420  Biso   1.000  C
  C166     1.0000 0.01350  0.38640  0.81970  Biso   1.000  C
  C167     1.0000 0.07180  0.42890  0.79940  Biso   1.000  C
  H113     1.0000 0.08070  0.42900  0.76880  Biso   1.000  H
  C168     1.0000 0.11440  0.46900  0.82520  Biso   1.000  C
  H114     1.0000 0.15230  0.49680  0.81160  Biso   1.000  H
  C169     1.0000 0.10420  0.47040  0.86840  Biso   1.000  C
  H115     1.0000 0.13580  0.49790  0.88520  Biso   1.000  H
  C170     1.0000 0.04650  0.43080  0.88850  Biso   1.000  C
  C171     1.0000 0.00510  0.38920  0.86460  Biso   1.000  C
  H116     1.0000 0.96930  0.36140  0.87920  Biso   1.000  H
  C172     1.0000 0.03190  0.43460  0.93610  Biso   1.000  C
  Ag31     1.0000 0.15792  0.22316  0.29923  Biso   1.000  Ag
  N31      1.0000 0.20150  0.18430  0.36700  Biso   1.000  N
  N32      1.0000 0.24200  0.12300  0.44170  Biso   1.000  N
  C173     1.0000 0.25710  0.13730  0.36500  Biso   1.000  C
  H117     1.0000 0.28370  0.12540  0.33830  Biso   1.000  H
  C174     1.0000 0.27310  0.10810  0.40280  Biso   1.000  C
  H118     1.0000 0.30910  0.07460  0.40080  Biso   1.000  H
  C175     1.0000 0.18760  0.16930  0.44310  Biso   1.000  C
  H119     1.0000 0.16030  0.18090  0.46970  Biso   1.000  H
  C176     1.0000 0.17210  0.19940  0.40610  Biso   1.000  C
  H120     1.0000 0.13790  0.23350  0.40850  Biso   1.000  H
  Ag32     1.0000 0.25148  0.04925  0.49300  Biso   1.000  Ag
  O57      1.0000 0.08380  0.30010  0.31960  Biso   1.000  O
  O58      1.0000 0.03370  0.32440  0.25290  Biso   1.000  O
  O59      1.0000 0.01160  0.41580  0.44730  Biso   1.000  O
  O60      1.0000 0.92420  0.49310  0.43780  Biso   1.000  O
  C177     1.0000 0.04200  0.33070  0.29360  Biso   1.000  C
  C178     1.0000 0.99290  0.38140  0.31300  Biso   1.000  C
  C179     1.0000 0.94220  0.41910  0.28580  Biso   1.000  C
  H121     1.0000 0.94120  0.41440  0.25510  Biso   1.000  H
  C180     1.0000 0.89460  0.46270  0.30530  Biso   1.000  C
  H122     1.0000 0.85750  0.48690  0.28790  Biso   1.000  H
  C181     1.0000 0.89940  0.47180  0.34870  Biso   1.000  C
  H123     1.0000 0.86650  0.50250  0.36120  Biso   1.000  H
  C182     1.0000 0.95250  0.43650  0.37520  Biso   1.000  C
  C183     1.0000 0.99740  0.39130  0.35700  Biso   1.000  C
  H124     1.0000 0.03210  0.36660  0.37510  Biso   1.000  H
  C184     1.0000 0.96120  0.44890  0.42330  Biso   1.000  C
  O61      1.0000 0.22660  0.15680  0.26000  Biso   1.000  O
  O62      1.0000 0.18530  0.18900  0.19390  Biso   1.000  O
  O63      1.0000 0.25580  0.08020  0.06260  Biso   1.000  O
  O64      1.0000 0.34620  0.00450  0.06790  Biso   1.000  O
  C185     1.0000 0.22410  0.15440  0.21970  Biso   1.000  C
  C186     1.0000 0.27350  0.10440  0.19710  Biso   1.000  C
  C187     1.0000 0.32220  0.06810  0.22180  Biso   1.000  C
  H125     1.0000 0.32510  0.07270  0.25250  Biso   1.000  H
  C188     1.0000 0.36930  0.02290  0.20110  Biso   1.000  C
  H126     1.0000 0.40600  0.99740  0.21760  Biso   1.000  H
  C189     1.0000 0.36130  0.01660  0.15780  Biso   1.000  C
  H127     1.0000 0.39210  0.98600  0.14410  Biso   1.000  H
  C190     1.0000 0.30950  0.05340  0.13230  Biso   1.000  C
  C191     1.0000 0.26420  0.09860  0.15330  Biso   1.000  C
  H128     1.0000 0.22780  0.12450  0.13710  Biso   1.000  H
  C192     1.0000 0.29980  0.04450  0.08450  Biso   1.000  C
  Ag33     1.0000 0.64908  0.23335  0.28885  Biso   1.000  Ag
  N33      1.0000 0.68940  0.18970  0.35570  Biso   1.000  N
  N34      1.0000 0.74340  0.12680  0.42810  Biso   1.000  N
  C193     1.0000 0.66580  0.20360  0.39510  Biso   1.000  C
  H129     1.0000 0.62900  0.23630  0.39920  Biso   1.000  H
  C194     1.0000 0.69160  0.17310  0.43120  Biso   1.000  C
  H130     1.0000 0.67190  0.18550  0.45910  Biso   1.000  H
  C195     1.0000 0.76870  0.11240  0.38790  Biso   1.000  C
  H131     1.0000 0.80550  0.07950  0.38430  Biso   1.000  H
  C196     1.0000 0.74460  0.14240  0.35150  Biso   1.000  C
  H132     1.0000 0.76560  0.13080  0.32360  Biso   1.000  H
  Ag34     1.0000 0.79899  0.06503  0.48078  Biso   1.000  Ag
  Ag35     1.0000 0.58796  0.27748  0.21052  Biso   1.000  Ag
  Ag36     1.0000 0.47856  0.44438  0.01449  Biso   1.000  Ag
  N35      1.0000 0.54510  0.31640  0.14380  Biso   1.000  N
  N36      1.0000 0.50500  0.37400  0.06760  Biso   1.000  N
  C197     1.0000 0.58260  0.30110  0.10400  Biso   1.000  C
  H133     1.0000 0.62440  0.27020  0.10230  Biso   1.000  H
  C198     1.0000 0.56010  0.32990  0.06710  Biso   1.000  C
  H134     1.0000 0.58520  0.31760  0.04020  Biso   1.000  H
  C199     1.0000 0.46220  0.38740  0.10500  Biso   1.000  C
  H135     1.0000 0.41420  0.41500  0.10540  Biso   1.000  H
  C200     1.0000 0.48870  0.36030  0.14300  Biso   1.000  C
  H136     1.0000 0.46500  0.37400  0.16980  Biso   1.000  H
  Ag37     1.0000 0.50018  0.43971  0.52822  Biso   1.000  Ag
  Ag38     1.0000 0.38947  0.26144  0.71618  Biso   1.000  Ag
  N37      1.0000 0.43720  0.30710  0.65080  Biso   1.000  N
  N38      1.0000 0.48350  0.37300  0.57970  Biso   1.000  N
  C201     1.0000 0.48410  0.35270  0.65490  Biso   1.000  C
  H137     1.0000 0.50370  0.36390  0.68310  Biso   1.000  H
  C202     1.0000 0.50740  0.38630  0.61970  Biso   1.000  C
  H138     1.0000 0.54170  0.41990  0.62460  Biso   1.000  H
  C203     1.0000 0.43540  0.32590  0.57440  Biso   1.000  C
  H139     1.0000 0.41890  0.31380  0.54600  Biso   1.000  H
  C204     1.0000 0.40880  0.29390  0.61060  Biso   1.000  C
  H140     1.0000 0.36970  0.26210  0.60640  Biso   1.000  H
  O65      1.0000 0.72380  0.17340  0.24640  Biso   1.000  O
  O66      1.0000 0.65940  0.20210  0.18400  Biso   1.000  O
  O67      1.0000 0.71720  0.09050  0.05020  Biso   1.000  O
  O68      1.0000 0.81450  0.01620  0.05450  Biso   1.000  O
  C205     1.0000 0.70930  0.16990  0.20680  Biso   1.000  C
  C206     1.0000 0.75840  0.12060  0.18330  Biso   1.000  C
  C207     1.0000 0.81560  0.08590  0.20670  Biso   1.000  C
  H141     1.0000 0.82330  0.09170  0.23700  Biso   1.000  H
  C208     1.0000 0.86240  0.04210  0.18630  Biso   1.000  C
  H142     1.0000 0.90280  0.01800  0.20230  Biso   1.000  H
  C209     1.0000 0.84840  0.03420  0.14110  Biso   1.000  C
  H143     1.0000 0.88040  0.00460  0.12660  Biso   1.000  H
  C210     1.0000 0.78960  0.06830  0.11770  Biso   1.000  C
  C211     1.0000 0.74290  0.11320  0.13920  Biso   1.000  C
  H144     1.0000 0.70220  0.13750  0.12370  Biso   1.000  H
  C212     1.0000 0.77320  0.05830  0.07010  Biso   1.000  C
  O69      1.0000 0.57120  0.30470  0.31590  Biso   1.000  O
  O70      1.0000 0.52000  0.34090  0.25370  Biso   1.000  O
  O71      1.0000 0.42790  0.47150  0.45940  Biso   1.000  O
  O72      1.0000 0.52410  0.39880  0.45480  Biso   1.000  O
  C213     1.0000 0.52840  0.34080  0.29420  Biso   1.000  C
  C214     1.0000 0.48650  0.38640  0.31970  Biso   1.000  C
  C215     1.0000 0.42820  0.42890  0.29940  Biso   1.000  C
  H145     1.0000 0.41930  0.42900  0.26880  Biso   1.000  H
  C216     1.0000 0.38560  0.46900  0.32520  Biso   1.000  C
  H146     1.0000 0.34770  0.49680  0.31160  Biso   1.000  H
  C217     1.0000 0.39580  0.47040  0.36840  Biso   1.000  C
  H147     1.0000 0.36420  0.49790  0.38520  Biso   1.000  H
  C218     1.0000 0.45350  0.43080  0.38850  Biso   1.000  C
  C219     1.0000 0.49490  0.38920  0.36460  Biso   1.000  C
  H148     1.0000 0.53070  0.36140  0.37920  Biso   1.000  H
  C220     1.0000 0.46810  0.43460  0.43610  Biso   1.000  C
  Ag39     1.0000 0.34208  0.22316  0.79923  Biso   1.000  Ag
  N39      1.0000 0.29850  0.18430  0.86700  Biso   1.000  N
  N40      1.0000 0.25800  0.12300  0.94170  Biso   1.000  N
  C221     1.0000 0.24290  0.13730  0.86500  Biso   1.000  C
  H149     1.0000 0.21630  0.12540  0.83830  Biso   1.000  H
  C222     1.0000 0.22690  0.10810  0.90280  Biso   1.000  C
  H150     1.0000 0.19090  0.07460  0.90080  Biso   1.000  H
  C223     1.0000 0.31240  0.16930  0.94310  Biso   1.000  C
  H151     1.0000 0.33970  0.18090  0.96970  Biso   1.000  H
  C224     1.0000 0.32790  0.19940  0.90610  Biso   1.000  C
  H152     1.0000 0.36210  0.23350  0.90850  Biso   1.000  H
  Ag40     1.0000 0.24852  0.04925  0.99300  Biso   1.000  Ag
  O73      1.0000 0.41620  0.30010  0.81960  Biso   1.000  O
  O74      1.0000 0.46630  0.32440  0.75290  Biso   1.000  O
  O75      1.0000 0.48840  0.41580  0.94730  Biso   1.000  O
  O76      1.0000 0.57580  0.49310  0.93780  Biso   1.000  O
  C225     1.0000 0.45800  0.33070  0.79360  Biso   1.000  C
  C226     1.0000 0.50710  0.38140  0.81300  Biso   1.000  C
  C227     1.0000 0.55780  0.41910  0.78580  Biso   1.000  C
  H153     1.0000 0.55880  0.41440  0.75510  Biso   1.000  H
  C228     1.0000 0.60540  0.46270  0.80530  Biso   1.000  C
  H154     1.0000 0.64250  0.48690  0.78790  Biso   1.000  H
  C229     1.0000 0.60060  0.47180  0.84870  Biso   1.000  C
  H155     1.0000 0.63350  0.50250  0.86120  Biso   1.000  H
  C230     1.0000 0.54750  0.43650  0.87520  Biso   1.000  C
  C231     1.0000 0.50260  0.39130  0.85700  Biso   1.000  C
  H156     1.0000 0.46790  0.36660  0.87510  Biso   1.000  H
  C232     1.0000 0.53880  0.44890  0.92330  Biso   1.000  C
  O77      1.0000 0.27340  0.15680  0.76000  Biso   1.000  O
  O78      1.0000 0.31470  0.18900  0.69390  Biso   1.000  O
  O79      1.0000 0.24420  0.08020  0.56260  Biso   1.000  O
  O80      1.0000 0.15380  0.00450  0.56790  Biso   1.000  O
  C233     1.0000 0.27590  0.15440  0.71970  Biso   1.000  C
  C234     1.0000 0.22650  0.10440  0.69710  Biso   1.000  C
  C235     1.0000 0.17780  0.06810  0.72180  Biso   1.000  C
  H157     1.0000 0.17490  0.07270  0.75250  Biso   1.000  H
  C236     1.0000 0.13070  0.02290  0.70110  Biso   1.000  C
  H158     1.0000 0.09400  0.99740  0.71760  Biso   1.000  H
  C237     1.0000 0.13870  0.01660  0.65780  Biso   1.000  C
  H159     1.0000 0.10790  0.98600  0.64410  Biso   1.000  H
  C238     1.0000 0.19050  0.05340  0.63230  Biso   1.000  C
  C239     1.0000 0.23580  0.09860  0.65330  Biso   1.000  C
  H160     1.0000 0.27220  0.12450  0.63710  Biso   1.000  H
  C240     1.0000 0.20020  0.04450  0.58450  Biso   1.000  C
  Ag41     1.0000 0.85092  0.26665  0.28885  Biso   1.000  Ag
  N41      1.0000 0.81060  0.31030  0.35570  Biso   1.000  N
  N42      1.0000 0.75660  0.37320  0.42810  Biso   1.000  N
  C241     1.0000 0.83420  0.29640  0.39510  Biso   1.000  C
  H161     1.0000 0.87100  0.26370  0.39920  Biso   1.000  H
  C242     1.0000 0.80840  0.32690  0.43120  Biso   1.000  C
  H162     1.0000 0.82810  0.31450  0.45910  Biso   1.000  H
  C243     1.0000 0.73130  0.38760  0.38790  Biso   1.000  C
  H163     1.0000 0.69450  0.42050  0.38430  Biso   1.000  H
  C244     1.0000 0.75540  0.35760  0.35150  Biso   1.000  C
  H164     1.0000 0.73440  0.36920  0.32360  Biso   1.000  H
  Ag42     1.0000 0.70101  0.43497  0.48078  Biso   1.000  Ag
  Ag43     1.0000 0.91204  0.22252  0.21052  Biso   1.000  Ag
  Ag44     1.0000 0.02144  0.05562  0.01449  Biso   1.000  Ag
  N43      1.0000 0.95490  0.18360  0.14380  Biso   1.000  N
  N44      1.0000 0.99500  0.12600  0.06760  Biso   1.000  N
  C245     1.0000 0.91740  0.19890  0.10400  Biso   1.000  C
  H165     1.0000 0.87560  0.22980  0.10230  Biso   1.000  H
  C246     1.0000 0.93990  0.17010  0.06710  Biso   1.000  C
  H166     1.0000 0.91480  0.18240  0.04020  Biso   1.000  H
  C247     1.0000 0.03780  0.11260  0.10500  Biso   1.000  C
  H167     1.0000 0.08580  0.08500  0.10540  Biso   1.000  H
  C248     1.0000 0.01130  0.13970  0.14300  Biso   1.000  C
  H168     1.0000 0.03500  0.12600  0.16980  Biso   1.000  H
  Ag45     1.0000 0.99982  0.06029  0.52822  Biso   1.000  Ag
  Ag46     1.0000 0.11053  0.23856  0.71618  Biso   1.000  Ag
  N45      1.0000 0.06280  0.19290  0.65080  Biso   1.000  N
  N46      1.0000 0.01650  0.12700  0.57970  Biso   1.000  N
  C249     1.0000 0.01590  0.14730  0.65490  Biso   1.000  C
  H169     1.0000 0.99630  0.13610  0.68310  Biso   1.000  H
  C250     1.0000 0.99260  0.11370  0.61970  Biso   1.000  C
  H170     1.0000 0.95830  0.08010  0.62460  Biso   1.000  H
  C251     1.0000 0.06460  0.17410  0.57440  Biso   1.000  C
  H171     1.0000 0.08110  0.18620  0.54600  Biso   1.000  H
  C252     1.0000 0.09120  0.20610  0.61060  Biso   1.000  C
  H172     1.0000 0.13030  0.23790  0.60640  Biso   1.000  H
  O81      1.0000 0.77620  0.32660  0.24640  Biso   1.000  O
  O82      1.0000 0.84060  0.29790  0.18400  Biso   1.000  O
  O83      1.0000 0.78280  0.40950  0.05020  Biso   1.000  O
  O84      1.0000 0.68550  0.48380  0.05450  Biso   1.000  O
  C253     1.0000 0.79070  0.33010  0.20680  Biso   1.000  C
  C254     1.0000 0.74160  0.37940  0.18330  Biso   1.000  C
  C255     1.0000 0.68440  0.41410  0.20670  Biso   1.000  C
  H173     1.0000 0.67670  0.40830  0.23700  Biso   1.000  H
  C256     1.0000 0.63760  0.45790  0.18630  Biso   1.000  C
  H174     1.0000 0.59720  0.48200  0.20230  Biso   1.000  H
  C257     1.0000 0.65160  0.46580  0.14110  Biso   1.000  C
  H175     1.0000 0.61960  0.49540  0.12660  Biso   1.000  H
  C258     1.0000 0.71040  0.43170  0.11770  Biso   1.000  C
  C259     1.0000 0.75710  0.38680  0.13920  Biso   1.000  C
  H176     1.0000 0.79780  0.36250  0.12370  Biso   1.000  H
  C260     1.0000 0.72680  0.44170  0.07010  Biso   1.000  C
  O85      1.0000 0.92880  0.19530  0.31590  Biso   1.000  O
  O86      1.0000 0.98000  0.15910  0.25370  Biso   1.000  O
  O87      1.0000 0.07210  0.02850  0.45940  Biso   1.000  O
  O88      1.0000 0.97590  0.10120  0.45480  Biso   1.000  O
  C261     1.0000 0.97160  0.15920  0.29420  Biso   1.000  C
  C262     1.0000 0.01350  0.11360  0.31970  Biso   1.000  C
  C263     1.0000 0.07180  0.07110  0.29940  Biso   1.000  C
  H177     1.0000 0.08070  0.07100  0.26880  Biso   1.000  H
  C264     1.0000 0.11440  0.03100  0.32520  Biso   1.000  C
  H178     1.0000 0.15230  0.00320  0.31160  Biso   1.000  H
  C265     1.0000 0.10420  0.02960  0.36840  Biso   1.000  C
  H179     1.0000 0.13580  0.00210  0.38520  Biso   1.000  H
  C266     1.0000 0.04650  0.06920  0.38850  Biso   1.000  C
  C267     1.0000 0.00510  0.11080  0.36460  Biso   1.000  C
  H180     1.0000 0.96930  0.13860  0.37920  Biso   1.000  H
  C268     1.0000 0.03190  0.06540  0.43610  Biso   1.000  C
  Ag47     1.0000 0.15792  0.27684  0.79923  Biso   1.000  Ag
  N47      1.0000 0.20150  0.31570  0.86700  Biso   1.000  N
  N48      1.0000 0.24200  0.37700  0.94170  Biso   1.000  N
  C269     1.0000 0.25710  0.36270  0.86500  Biso   1.000  C
  H181     1.0000 0.28370  0.37460  0.83830  Biso   1.000  H
  C270     1.0000 0.27310  0.39190  0.90280  Biso   1.000  C
  H182     1.0000 0.30910  0.42540  0.90080  Biso   1.000  H
  C271     1.0000 0.18760  0.33070  0.94310  Biso   1.000  C
  H183     1.0000 0.16030  0.31910  0.96970  Biso   1.000  H
  C272     1.0000 0.17210  0.30060  0.90610  Biso   1.000  C
  H184     1.0000 0.13790  0.26650  0.90850  Biso   1.000  H
  Ag48     1.0000 0.25148  0.45075  0.99300  Biso   1.000  Ag
  O89      1.0000 0.08380  0.19990  0.81960  Biso   1.000  O
  O90      1.0000 0.03370  0.17560  0.75290  Biso   1.000  O
  O91      1.0000 0.01160  0.08420  0.94730  Biso   1.000  O
  O92      1.0000 0.92420  0.00690  0.93780  Biso   1.000  O
  C273     1.0000 0.04200  0.16930  0.79360  Biso   1.000  C
  C274     1.0000 0.99290  0.11860  0.81300  Biso   1.000  C
  C275     1.0000 0.94220  0.08090  0.78580  Biso   1.000  C
  H185     1.0000 0.94120  0.08560  0.75510  Biso   1.000  H
  C276     1.0000 0.89460  0.03730  0.80530  Biso   1.000  C
  H186     1.0000 0.85750  0.01310  0.78790  Biso   1.000  H
  C277     1.0000 0.89940  0.02820  0.84870  Biso   1.000  C
  H187     1.0000 0.86650  0.99750  0.86120  Biso   1.000  H
  C278     1.0000 0.95250  0.06350  0.87520  Biso   1.000  C
  C279     1.0000 0.99740  0.10870  0.85700  Biso   1.000  C
  H188     1.0000 0.03210  0.13340  0.87510  Biso   1.000  H
  C280     1.0000 0.96120  0.05110  0.92330  Biso   1.000  C
  O93      1.0000 0.22660  0.34320  0.76000  Biso   1.000  O
  O94      1.0000 0.18530  0.31100  0.69390  Biso   1.000  O
  O95      1.0000 0.25580  0.41980  0.56260  Biso   1.000  O
  O96      1.0000 0.34620  0.49550  0.56790  Biso   1.000  O
  C281     1.0000 0.22410  0.34560  0.71970  Biso   1.000  C
  C282     1.0000 0.27350  0.39560  0.69710  Biso   1.000  C
  C283     1.0000 0.32220  0.43190  0.72180  Biso   1.000  C
  H189     1.0000 0.32510  0.42730  0.75250  Biso   1.000  H
  C284     1.0000 0.36930  0.47710  0.70110  Biso   1.000  C
  H190     1.0000 0.40600  0.50260  0.71760  Biso   1.000  H
  C285     1.0000 0.36130  0.48340  0.65780  Biso   1.000  C
  H191     1.0000 0.39210  0.51400  0.64410  Biso   1.000  H
  C286     1.0000 0.30950  0.44660  0.63230  Biso   1.000  C
  C287     1.0000 0.26420  0.40140  0.65330  Biso   1.000  C
  H192     1.0000 0.22780  0.37550  0.63710  Biso   1.000  H
  C288     1.0000 0.29980  0.45550  0.58450  Biso   1.000  C
  Ag49     1.0000 0.35092  0.73335  0.21115  Biso   1.000  Ag
  N49      1.0000 0.31060  0.68970  0.14430  Biso   1.000  N
  N50      1.0000 0.25660  0.62680  0.07190  Biso   1.000  N
  C289     1.0000 0.33420  0.70360  0.10490  Biso   1.000  C
  H193     1.0000 0.37100  0.73630  0.10080  Biso   1.000  H
  C290     1.0000 0.30840  0.67310  0.06880  Biso   1.000  C
  H194     1.0000 0.32810  0.68550  0.04090  Biso   1.000  H
  C291     1.0000 0.23130  0.61240  0.11210  Biso   1.000  C
  H195     1.0000 0.19450  0.57950  0.11570  Biso   1.000  H
  C292     1.0000 0.25540  0.64240  0.14850  Biso   1.000  C
  H196     1.0000 0.23440  0.63080  0.17640  Biso   1.000  H
  Ag50     1.0000 0.20101  0.56503  0.01922  Biso   1.000  Ag
  Ag51     1.0000 0.41204  0.77748  0.28948  Biso   1.000  Ag
  Ag52     1.0000 0.52144  0.94438  0.48551  Biso   1.000  Ag
  N51      1.0000 0.45490  0.81640  0.35620  Biso   1.000  N
  N52      1.0000 0.49500  0.87400  0.43240  Biso   1.000  N
  C293     1.0000 0.41740  0.80110  0.39600  Biso   1.000  C
  H197     1.0000 0.37560  0.77020  0.39770  Biso   1.000  H
  C294     1.0000 0.43990  0.82990  0.43290  Biso   1.000  C
  H198     1.0000 0.41480  0.81760  0.45980  Biso   1.000  H
  C295     1.0000 0.53780  0.88740  0.39500  Biso   1.000  C
  H199     1.0000 0.58580  0.91500  0.39460  Biso   1.000  H
  C296     1.0000 0.51130  0.86030  0.35700  Biso   1.000  C
  H200     1.0000 0.53500  0.87400  0.33020  Biso   1.000  H
  Ag53     1.0000 0.49982  0.93971  0.97178  Biso   1.000  Ag
  Ag54     1.0000 0.61053  0.76144  0.78382  Biso   1.000  Ag
  N53      1.0000 0.56280  0.80710  0.84920  Biso   1.000  N
  N54      1.0000 0.51650  0.87300  0.92030  Biso   1.000  N
  C297     1.0000 0.51590  0.85270  0.84510  Biso   1.000  C
  H201     1.0000 0.49630  0.86390  0.81690  Biso   1.000  H
  C298     1.0000 0.49260  0.88630  0.88030  Biso   1.000  C
  H202     1.0000 0.45830  0.91990  0.87540  Biso   1.000  H
  C299     1.0000 0.56460  0.82590  0.92560  Biso   1.000  C
  H203     1.0000 0.58110  0.81380  0.95400  Biso   1.000  H
  C300     1.0000 0.59120  0.79390  0.88940  Biso   1.000  C
  H204     1.0000 0.63030  0.76210  0.89360  Biso   1.000  H
  O97      1.0000 0.27620  0.67340  0.25360  Biso   1.000  O
  O98      1.0000 0.34060  0.70210  0.31600  Biso   1.000  O
  O99      1.0000 0.28280  0.59050  0.44980  Biso   1.000  O
  O100     1.0000 0.18550  0.51620  0.44550  Biso   1.000  O
  C301     1.0000 0.29070  0.66990  0.29320  Biso   1.000  C
  C302     1.0000 0.24160  0.62060  0.31670  Biso   1.000  C
  C303     1.0000 0.18440  0.58590  0.29330  Biso   1.000  C
  H205     1.0000 0.17670  0.59170  0.26300  Biso   1.000  H
  C304     1.0000 0.13760  0.54210  0.31370  Biso   1.000  C
  H206     1.0000 0.09720  0.51800  0.29770  Biso   1.000  H
  C305     1.0000 0.15160  0.53420  0.35890  Biso   1.000  C
  H207     1.0000 0.11960  0.50460  0.37340  Biso   1.000  H
  C306     1.0000 0.21040  0.56830  0.38230  Biso   1.000  C
  C307     1.0000 0.25710  0.61320  0.36080  Biso   1.000  C
  H208     1.0000 0.29780  0.63750  0.37630  Biso   1.000  H
  C308     1.0000 0.22680  0.55830  0.42990  Biso   1.000  C
  O101     1.0000 0.42880  0.80470  0.18410  Biso   1.000  O
  O102     1.0000 0.48000  0.84090  0.24630  Biso   1.000  O
  O103     1.0000 0.57210  0.97150  0.04060  Biso   1.000  O
  O104     1.0000 0.47590  0.89880  0.04520  Biso   1.000  O
  C309     1.0000 0.47160  0.84080  0.20580  Biso   1.000  C
  C310     1.0000 0.51350  0.88640  0.18030  Biso   1.000  C
  C311     1.0000 0.57180  0.92890  0.20060  Biso   1.000  C
  H209     1.0000 0.58070  0.92900  0.23120  Biso   1.000  H
  C312     1.0000 0.61440  0.96900  0.17480  Biso   1.000  C
  H210     1.0000 0.65230  0.99680  0.18840  Biso   1.000  H
  C313     1.0000 0.60420  0.97040  0.13160  Biso   1.000  C
  H211     1.0000 0.63580  0.99790  0.11480  Biso   1.000  H
  C314     1.0000 0.54650  0.93080  0.11150  Biso   1.000  C
  C315     1.0000 0.50510  0.88920  0.13540  Biso   1.000  C
  H212     1.0000 0.46930  0.86140  0.12080  Biso   1.000  H
  C316     1.0000 0.53190  0.93460  0.06390  Biso   1.000  C
  Ag55     1.0000 0.65792  0.72316  0.70077  Biso   1.000  Ag
  N55      1.0000 0.70150  0.68430  0.63300  Biso   1.000  N
  N56      1.0000 0.74200  0.62300  0.55830  Biso   1.000  N
  C317     1.0000 0.75710  0.63730  0.63500  Biso   1.000  C
  H213     1.0000 0.78370  0.62540  0.66170  Biso   1.000  H
  C318     1.0000 0.77310  0.60810  0.59720  Biso   1.000  C
  H214     1.0000 0.80910  0.57460  0.59920  Biso   1.000  H
  C319     1.0000 0.68760  0.66930  0.55690  Biso   1.000  C
  H215     1.0000 0.66030  0.68090  0.53030  Biso   1.000  H
  C320     1.0000 0.67210  0.69940  0.59390  Biso   1.000  C
  H216     1.0000 0.63790  0.73350  0.59150  Biso   1.000  H
  Ag56     1.0000 0.75148  0.54925  0.50700  Biso   1.000  Ag
  O105     1.0000 0.58380  0.80010  0.68040  Biso   1.000  O
  O106     1.0000 0.53370  0.82440  0.74710  Biso   1.000  O
  O107     1.0000 0.51160  0.91580  0.55270  Biso   1.000  O
  O108     1.0000 0.42420  0.99310  0.56220  Biso   1.000  O
  C321     1.0000 0.54200  0.83070  0.70640  Biso   1.000  C
  C322     1.0000 0.49290  0.88140  0.68700  Biso   1.000  C
  C323     1.0000 0.44220  0.91910  0.71420  Biso   1.000  C
  H217     1.0000 0.44120  0.91440  0.74490  Biso   1.000  H
  C324     1.0000 0.39460  0.96270  0.69470  Biso   1.000  C
  H218     1.0000 0.35750  0.98690  0.71210  Biso   1.000  H
  C325     1.0000 0.39940  0.97180  0.65130  Biso   1.000  C
  H219     1.0000 0.36650  0.00250  0.63880  Biso   1.000  H
  C326     1.0000 0.45250  0.93650  0.62480  Biso   1.000  C
  C327     1.0000 0.49740  0.89130  0.64300  Biso   1.000  C
  H220     1.0000 0.53210  0.86660  0.62490  Biso   1.000  H
  C328     1.0000 0.46120  0.94890  0.57670  Biso   1.000  C
  O109     1.0000 0.72660  0.65680  0.74000  Biso   1.000  O
  O110     1.0000 0.68530  0.68900  0.80610  Biso   1.000  O
  O111     1.0000 0.75580  0.58020  0.93740  Biso   1.000  O
  O112     1.0000 0.84620  0.50450  0.93210  Biso   1.000  O
  C329     1.0000 0.72410  0.65440  0.78030  Biso   1.000  C
  C330     1.0000 0.77350  0.60440  0.80290  Biso   1.000  C
  C331     1.0000 0.82220  0.56810  0.77820  Biso   1.000  C
  H221     1.0000 0.82510  0.57270  0.74750  Biso   1.000  H
  C332     1.0000 0.86930  0.52290  0.79890  Biso   1.000  C
  H222     1.0000 0.90600  0.49740  0.78240  Biso   1.000  H
  C333     1.0000 0.86130  0.51660  0.84220  Biso   1.000  C
  H223     1.0000 0.89210  0.48600  0.85590  Biso   1.000  H
  C334     1.0000 0.80950  0.55340  0.86770  Biso   1.000  C
  C335     1.0000 0.76420  0.59860  0.84670  Biso   1.000  C
  H224     1.0000 0.72780  0.62450  0.86290  Biso   1.000  H
  C336     1.0000 0.79980  0.54450  0.91550  Biso   1.000  C
  Ag57     1.0000 0.14908  0.76665  0.21115  Biso   1.000  Ag
  N57      1.0000 0.18940  0.81030  0.14430  Biso   1.000  N
  N58      1.0000 0.24340  0.87320  0.07190  Biso   1.000  N
  C337     1.0000 0.16580  0.79640  0.10490  Biso   1.000  C
  H225     1.0000 0.12900  0.76370  0.10080  Biso   1.000  H
  C338     1.0000 0.19160  0.82690  0.06880  Biso   1.000  C
  H226     1.0000 0.17190  0.81450  0.04090  Biso   1.000  H
  C339     1.0000 0.26870  0.88760  0.11210  Biso   1.000  C
  H227     1.0000 0.30550  0.92050  0.11570  Biso   1.000  H
  C340     1.0000 0.24460  0.85760  0.14850  Biso   1.000  C
  H228     1.0000 0.26560  0.86920  0.17640  Biso   1.000  H
  Ag58     1.0000 0.29899  0.93497  0.01922  Biso   1.000  Ag
  Ag59     1.0000 0.08796  0.72252  0.28948  Biso   1.000  Ag
  Ag60     1.0000 0.97856  0.55562  0.48551  Biso   1.000  Ag
  N59      1.0000 0.04510  0.68360  0.35620  Biso   1.000  N
  N60      1.0000 0.00500  0.62600  0.43240  Biso   1.000  N
  C341     1.0000 0.08260  0.69890  0.39600  Biso   1.000  C
  H229     1.0000 0.12440  0.72980  0.39770  Biso   1.000  H
  C342     1.0000 0.06010  0.67010  0.43290  Biso   1.000  C
  H230     1.0000 0.08520  0.68240  0.45980  Biso   1.000  H
  C343     1.0000 0.96220  0.61260  0.39500  Biso   1.000  C
  H231     1.0000 0.91420  0.58500  0.39460  Biso   1.000  H
  C344     1.0000 0.98870  0.63970  0.35700  Biso   1.000  C
  H232     1.0000 0.96500  0.62600  0.33020  Biso   1.000  H
  Ag61     1.0000 0.00018  0.56029  0.97178  Biso   1.000  Ag
  Ag62     1.0000 0.88947  0.73856  0.78382  Biso   1.000  Ag
  N61      1.0000 0.93720  0.69290  0.84920  Biso   1.000  N
  N62      1.0000 0.98350  0.62700  0.92030  Biso   1.000  N
  C345     1.0000 0.98410  0.64730  0.84510  Biso   1.000  C
  H233     1.0000 0.00370  0.63610  0.81690  Biso   1.000  H
  C346     1.0000 0.00740  0.61370  0.88030  Biso   1.000  C
  H234     1.0000 0.04170  0.58010  0.87540  Biso   1.000  H
  C347     1.0000 0.93540  0.67410  0.92560  Biso   1.000  C
  H235     1.0000 0.91890  0.68620  0.95400  Biso   1.000  H
  C348     1.0000 0.90880  0.70610  0.88940  Biso   1.000  C
  H236     1.0000 0.86970  0.73790  0.89360  Biso   1.000  H
  O113     1.0000 0.22380  0.82660  0.25360  Biso   1.000  O
  O114     1.0000 0.15940  0.79790  0.31600  Biso   1.000  O
  O115     1.0000 0.21720  0.90950  0.44980  Biso   1.000  O
  O116     1.0000 0.31450  0.98380  0.44550  Biso   1.000  O
  C349     1.0000 0.20930  0.83010  0.29320  Biso   1.000  C
  C350     1.0000 0.25840  0.87940  0.31670  Biso   1.000  C
  C351     1.0000 0.31560  0.91410  0.29330  Biso   1.000  C
  H237     1.0000 0.32330  0.90830  0.26300  Biso   1.000  H
  C352     1.0000 0.36240  0.95790  0.31370  Biso   1.000  C
  H238     1.0000 0.40280  0.98200  0.29770  Biso   1.000  H
  C353     1.0000 0.34840  0.96580  0.35890  Biso   1.000  C
  H239     1.0000 0.38040  0.99540  0.37340  Biso   1.000  H
  C354     1.0000 0.28960  0.93170  0.38230  Biso   1.000  C
  C355     1.0000 0.24290  0.88680  0.36080  Biso   1.000  C
  H240     1.0000 0.20220  0.86250  0.37630  Biso   1.000  H
  C356     1.0000 0.27320  0.94170  0.42990  Biso   1.000  C
  O117     1.0000 0.07120  0.69530  0.18410  Biso   1.000  O
  O118     1.0000 0.02000  0.65910  0.24630  Biso   1.000  O
  O119     1.0000 0.92790  0.52850  0.04060  Biso   1.000  O
  O120     1.0000 0.02410  0.60120  0.04520  Biso   1.000  O
  C357     1.0000 0.02840  0.65920  0.20580  Biso   1.000  C
  C358     1.0000 0.98650  0.61360  0.18030  Biso   1.000  C
  C359     1.0000 0.92820  0.57110  0.20060  Biso   1.000  C
  H241     1.0000 0.91930  0.57100  0.23120  Biso   1.000  H
  C360     1.0000 0.88560  0.53100  0.17480  Biso   1.000  C
  H242     1.0000 0.84770  0.50320  0.18840  Biso   1.000  H
  C361     1.0000 0.89580  0.52960  0.13160  Biso   1.000  C
  H243     1.0000 0.86420  0.50210  0.11480  Biso   1.000  H
  C362     1.0000 0.95350  0.56920  0.11150  Biso   1.000  C
  C363     1.0000 0.99490  0.61080  0.13540  Biso   1.000  C
  H244     1.0000 0.03070  0.63860  0.12080  Biso   1.000  H
  C364     1.0000 0.96810  0.56540  0.06390  Biso   1.000  C
  Ag63     1.0000 0.84208  0.77684  0.70077  Biso   1.000  Ag
  N63      1.0000 0.79850  0.81570  0.63300  Biso   1.000  N
  N64      1.0000 0.75800  0.87700  0.55830  Biso   1.000  N
  C365     1.0000 0.74290  0.86270  0.63500  Biso   1.000  C
  H245     1.0000 0.71630  0.87460  0.66170  Biso   1.000  H
  C366     1.0000 0.72690  0.89190  0.59720  Biso   1.000  C
  H246     1.0000 0.69090  0.92540  0.59920  Biso   1.000  H
  C367     1.0000 0.81240  0.83070  0.55690  Biso   1.000  C
  H247     1.0000 0.83970  0.81910  0.53030  Biso   1.000  H
  C368     1.0000 0.82790  0.80060  0.59390  Biso   1.000  C
  H248     1.0000 0.86210  0.76650  0.59150  Biso   1.000  H
  Ag64     1.0000 0.74852  0.95075  0.50700  Biso   1.000  Ag
  O121     1.0000 0.91620  0.69990  0.68040  Biso   1.000  O
  O122     1.0000 0.96630  0.67560  0.74710  Biso   1.000  O
  O123     1.0000 0.98840  0.58420  0.55270  Biso   1.000  O
  O124     1.0000 0.07580  0.50690  0.56220  Biso   1.000  O
  C369     1.0000 0.95800  0.66930  0.70640  Biso   1.000  C
  C370     1.0000 0.00710  0.61860  0.68700  Biso   1.000  C
  C371     1.0000 0.05780  0.58090  0.71420  Biso   1.000  C
  H249     1.0000 0.05880  0.58560  0.74490  Biso   1.000  H
  C372     1.0000 0.10540  0.53730  0.69470  Biso   1.000  C
  H250     1.0000 0.14250  0.51310  0.71210  Biso   1.000  H
  C373     1.0000 0.10060  0.52820  0.65130  Biso   1.000  C
  H251     1.0000 0.13350  0.49750  0.63880  Biso   1.000  H
  C374     1.0000 0.04750  0.56350  0.62480  Biso   1.000  C
  C375     1.0000 0.00260  0.60870  0.64300  Biso   1.000  C
  H252     1.0000 0.96790  0.63340  0.62490  Biso   1.000  H
  C376     1.0000 0.03880  0.55110  0.57670  Biso   1.000  C
  O125     1.0000 0.77340  0.84320  0.74000  Biso   1.000  O
  O126     1.0000 0.81470  0.81100  0.80610  Biso   1.000  O
  O127     1.0000 0.74420  0.91980  0.93740  Biso   1.000  O
  O128     1.0000 0.65380  0.99550  0.93210  Biso   1.000  O
  C377     1.0000 0.77590  0.84560  0.78030  Biso   1.000  C
  C378     1.0000 0.72650  0.89560  0.80290  Biso   1.000  C
  C379     1.0000 0.67780  0.93190  0.77820  Biso   1.000  C
  H253     1.0000 0.67490  0.92730  0.74750  Biso   1.000  H
  C380     1.0000 0.63070  0.97710  0.79890  Biso   1.000  C
  H254     1.0000 0.59400  0.00260  0.78240  Biso   1.000  H
  C381     1.0000 0.63870  0.98340  0.84220  Biso   1.000  C
  H255     1.0000 0.60790  0.01400  0.85590  Biso   1.000  H
  C382     1.0000 0.69050  0.94660  0.86770  Biso   1.000  C
  C383     1.0000 0.73580  0.90140  0.84670  Biso   1.000  C
  H256     1.0000 0.77220  0.87550  0.86290  Biso   1.000  H
  C384     1.0000 0.70020  0.95550  0.91550  Biso   1.000  C
