data_image0
_cell_length_a       14.2624
_cell_length_b       23.826
_cell_length_c       30.75
_cell_angle_alpha    90
_cell_angle_beta     90
_cell_angle_gamma    90

_symmetry_space_group_name_H-M    "P 1"
_symmetry_int_tables_number       1

loop_
  _symmetry_equiv_pos_as_xyz
  'x, y, z'

loop_
  _atom_site_label
  _atom_site_occupancy
  _atom_site_fract_x
  _atom_site_fract_y
  _atom_site_fract_z
  _atom_site_thermal_displace_type
  _atom_site_B_iso_or_equiv
  _atom_site_type_symbol
  O1       1.0000 0.28280  0.90960  0.94980  Biso   1.000  O
  Ag1      1.0000 0.29983  0.93476  0.01929  Biso   1.000  Ag
  N1       1.0000 0.24320  0.87320  0.07180  Biso   1.000  N
  O2       1.0000 0.34610  0.00420  0.06810  Biso   1.000  O
  C1       1.0000 0.19290  0.82660  0.06900  Biso   1.000  C
  C2       1.0000 0.26880  0.88760  0.11200  Biso   1.000  C
  C3       1.0000 0.16510  0.79600  0.10490  Biso   1.000  C
  H1       1.0000 0.17510  0.81360  0.04100  Biso   1.000  H
  C4       1.0000 0.24280  0.85740  0.14830  Biso   1.000  C
  H2       1.0000 0.30660  0.92010  0.11580  Biso   1.000  H
  N2       1.0000 0.18960  0.81030  0.14440  Biso   1.000  N
  H3       1.0000 0.12710  0.76360  0.10070  Biso   1.000  H
  H4       1.0000 0.26210  0.86960  0.17630  Biso   1.000  H
  Ag2      1.0000 0.14891  0.76642  0.21114  Biso   1.000  Ag
  O3       1.0000 0.22390  0.82650  0.25340  Biso   1.000  O
  O4       1.0000 0.07150  0.69500  0.18400  Biso   1.000  O
  C5       1.0000 0.20890  0.83010  0.29350  Biso   1.000  C
  C6       1.0000 0.02840  0.65910  0.20570  Biso   1.000  C
  O5       1.0000 0.15950  0.79750  0.31610  Biso   1.000  O
  C7       1.0000 0.25770  0.87920  0.31660  Biso   1.000  C
  O6       1.0000 0.01900  0.65880  0.24620  Biso   1.000  O
  C8       1.0000 0.98550  0.61300  0.17970  Biso   1.000  C
  Ag3      1.0000 0.08746  0.72217  0.28938  Biso   1.000  Ag
  C9       1.0000 0.31530  0.91390  0.29370  Biso   1.000  C
  C10      1.0000 0.24340  0.88650  0.36070  Biso   1.000  C
  C11      1.0000 0.92750  0.57130  0.20000  Biso   1.000  C
  C12      1.0000 0.99490  0.61070  0.13490  Biso   1.000  C
  N3       1.0000 0.04530  0.68330  0.35630  Biso   1.000  N
  H5       1.0000 0.32340  0.90800  0.26340  Biso   1.000  H
  C13      1.0000 0.36250  0.95790  0.31360  Biso   1.000  C
  C14      1.0000 0.28880  0.93100  0.38230  Biso   1.000  C
  H6       1.0000 0.20340  0.86180  0.37620  Biso   1.000  H
  C15      1.0000 0.88560  0.53070  0.17430  Biso   1.000  C
  H7       1.0000 0.91800  0.57160  0.23050  Biso   1.000  H
  C16      1.0000 0.95330  0.56920  0.11070  Biso   1.000  C
  H8       1.0000 0.03110  0.63860  0.12060  Biso   1.000  H
  Ag4      1.0000 0.97775  0.55554  0.48556  Biso   1.000  Ag
  C17      1.0000 0.98670  0.63990  0.35680  Biso   1.000  C
  C18      1.0000 0.08310  0.69860  0.39600  Biso   1.000  C
  C19      1.0000 0.34870  0.96580  0.35890  Biso   1.000  C
  H9       1.0000 0.40280  0.98190  0.29750  Biso   1.000  H
  C20      1.0000 0.27330  0.94150  0.42970  Biso   1.000  C
  C21      1.0000 0.89580  0.52980  0.13060  Biso   1.000  C
  H10      1.0000 0.84850  0.50250  0.18780  Biso   1.000  H
  C22      1.0000 0.96940  0.56600  0.06290  Biso   1.000  C
  O7       1.0000 0.99120  0.58410  0.55300  Biso   1.000  O
  C23      1.0000 0.96220  0.61210  0.39500  Biso   1.000  C
  H11      1.0000 0.96050  0.62740  0.33010  Biso   1.000  H
  C24      1.0000 0.06080  0.66980  0.43290  Biso   1.000  C
  H12      1.0000 0.12510  0.72950  0.39760  Biso   1.000  H
  H13      1.0000 0.38080  0.99530  0.37350  Biso   1.000  H
  O8       1.0000 0.31530  0.98390  0.44580  Biso   1.000  O
  H14      1.0000 0.86400  0.50240  0.11370  Biso   1.000  H
  O9       1.0000 0.02490  0.60230  0.04450  Biso   1.000  O
  O10      1.0000 0.92900  0.52910  0.03990  Biso   1.000  O
  C25      1.0000 0.03920  0.55050  0.57690  Biso   1.000  C
  N4       1.0000 0.00350  0.62570  0.43230  Biso   1.000  N
  H15      1.0000 0.91600  0.58340  0.39440  Biso   1.000  H
  H16      1.0000 0.08680  0.68160  0.45990  Biso   1.000  H
  Ag5      1.0000 0.25162  0.04887  0.49337  Biso   1.000  Ag
  Ag6      1.0000 0.00058  0.56029  0.97117  Biso   1.000  Ag
  O11      1.0000 0.07620  0.50690  0.56250  Biso   1.000  O
  C26      1.0000 0.04720  0.56320  0.62480  Biso   1.000  C
  N5       1.0000 0.98320  0.62720  0.91990  Biso   1.000  N
  C27      1.0000 0.10020  0.52830  0.65150  Biso   1.000  C
  C28      1.0000 0.00280  0.60840  0.64260  Biso   1.000  C
  C29      1.0000 0.93500  0.67420  0.92510  Biso   1.000  C
  C30      1.0000 0.00760  0.61340  0.87980  Biso   1.000  C
  C31      1.0000 0.10590  0.53740  0.69510  Biso   1.000  C
  H17      1.0000 0.13300  0.49760  0.63900  Biso   1.000  H
  C32      1.0000 0.00790  0.61890  0.68710  Biso   1.000  C
  H18      1.0000 0.96800  0.63300  0.62440  Biso   1.000  H
  C33      1.0000 0.90800  0.70650  0.88970  Biso   1.000  C
  H19      1.0000 0.91840  0.68590  0.95360  Biso   1.000  H
  C34      1.0000 0.98420  0.64720  0.84460  Biso   1.000  C
  H20      1.0000 0.04180  0.57970  0.87490  Biso   1.000  H
  C35      1.0000 0.05940  0.58160  0.71390  Biso   1.000  C
  H21      1.0000 0.14250  0.51290  0.71260  Biso   1.000  H
  C36      1.0000 0.95770  0.66930  0.70610  Biso   1.000  C
  N6       1.0000 0.93640  0.69320  0.84890  Biso   1.000  N
  H22      1.0000 0.86930  0.73840  0.89420  Biso   1.000  H
  H23      1.0000 0.00400  0.63630  0.81630  Biso   1.000  H
  H24      1.0000 0.06160  0.58700  0.74450  Biso   1.000  H
  O12      1.0000 0.96640  0.67630  0.74700  Biso   1.000  O
  O13      1.0000 0.91580  0.70020  0.68010  Biso   1.000  O
  Ag7      1.0000 0.88874  0.73891  0.78350  Biso   1.000  Ag
  Ag8      1.0000 0.84176  0.77721  0.70043  Biso   1.000  Ag
  O14      1.0000 0.81370  0.81140  0.80570  Biso   1.000  O
  O15      1.0000 0.77320  0.84420  0.73940  Biso   1.000  O
  N7       1.0000 0.79710  0.81610  0.63260  Biso   1.000  N
  C37      1.0000 0.77470  0.84620  0.78000  Biso   1.000  C
  C38      1.0000 0.82740  0.80070  0.59360  Biso   1.000  C
  C39      1.0000 0.74300  0.86300  0.63450  Biso   1.000  C
  C40      1.0000 0.72610  0.89620  0.80170  Biso   1.000  C
  C41      1.0000 0.81150  0.83080  0.55680  Biso   1.000  C
  H25      1.0000 0.86210  0.76690  0.59130  Biso   1.000  H
  C42      1.0000 0.72590  0.89210  0.59700  Biso   1.000  C
  H26      1.0000 0.71750  0.87540  0.66130  Biso   1.000  H
  C43      1.0000 0.73550  0.90190  0.84620  Biso   1.000  C
  C44      1.0000 0.67730  0.93330  0.77740  Biso   1.000  C
  H27      1.0000 0.83820  0.81900  0.53000  Biso   1.000  H
  N8       1.0000 0.75760  0.87750  0.55810  Biso   1.000  N
  H28      1.0000 0.68880  0.92510  0.59900  Biso   1.000  H
  C45      1.0000 0.68970  0.94720  0.86730  Biso   1.000  C
  H29      1.0000 0.77210  0.87600  0.86240  Biso   1.000  H
  C46      1.0000 0.62970  0.97790  0.79820  Biso   1.000  C
  H30      1.0000 0.67500  0.92950  0.74670  Biso   1.000  H
  C47      1.0000 0.63630  0.98390  0.84190  Biso   1.000  C
  C48      1.0000 0.69930  0.95600  0.91560  Biso   1.000  C
  H31      1.0000 0.59330  0.00360  0.78170  Biso   1.000  H
  O16      1.0000 0.75450  0.92000  0.43700  Biso   1.000  O
  H32      1.0000 0.60380  0.01380  0.85570  Biso   1.000  H
  O17      1.0000 0.21720  0.59040  0.94980  Biso   1.000  O
  Ag9      1.0000 0.20017  0.56524  0.01929  Biso   1.000  Ag
  N9       1.0000 0.25680  0.62680  0.07180  Biso   1.000  N
  O18      1.0000 0.15390  0.49580  0.06810  Biso   1.000  O
  C49      1.0000 0.30710  0.67340  0.06900  Biso   1.000  C
  C50      1.0000 0.23120  0.61240  0.11200  Biso   1.000  C
  C51      1.0000 0.33490  0.70400  0.10490  Biso   1.000  C
  H33      1.0000 0.32490  0.68640  0.04100  Biso   1.000  H
  C52      1.0000 0.25720  0.64260  0.14830  Biso   1.000  C
  H34      1.0000 0.19340  0.57990  0.11580  Biso   1.000  H
  N10      1.0000 0.31040  0.68970  0.14440  Biso   1.000  N
  H35      1.0000 0.37290  0.73640  0.10070  Biso   1.000  H
  H36      1.0000 0.23790  0.63040  0.17630  Biso   1.000  H
  Ag10     1.0000 0.35109  0.73358  0.21114  Biso   1.000  Ag
  O19      1.0000 0.27610  0.67350  0.25340  Biso   1.000  O
  O20      1.0000 0.42850  0.80500  0.18400  Biso   1.000  O
  C53      1.0000 0.29110  0.66990  0.29350  Biso   1.000  C
  C54      1.0000 0.47160  0.84090  0.20570  Biso   1.000  C
  O21      1.0000 0.34050  0.70250  0.31610  Biso   1.000  O
  C55      1.0000 0.24230  0.62080  0.31660  Biso   1.000  C
  O22      1.0000 0.48100  0.84120  0.24620  Biso   1.000  O
  C56      1.0000 0.51450  0.88700  0.17970  Biso   1.000  C
  Ag11     1.0000 0.41254  0.77783  0.28938  Biso   1.000  Ag
  C57      1.0000 0.18470  0.58610  0.29370  Biso   1.000  C
  C58      1.0000 0.25660  0.61350  0.36070  Biso   1.000  C
  C59      1.0000 0.57250  0.92870  0.20000  Biso   1.000  C
  C60      1.0000 0.50510  0.88930  0.13490  Biso   1.000  C
  N11      1.0000 0.45470  0.81670  0.35630  Biso   1.000  N
  H37      1.0000 0.17660  0.59200  0.26340  Biso   1.000  H
  C61      1.0000 0.13750  0.54210  0.31360  Biso   1.000  C
  C62      1.0000 0.21120  0.56900  0.38230  Biso   1.000  C
  H38      1.0000 0.29660  0.63820  0.37620  Biso   1.000  H
  C63      1.0000 0.61440  0.96930  0.17430  Biso   1.000  C
  H39      1.0000 0.58200  0.92840  0.23050  Biso   1.000  H
  C64      1.0000 0.54670  0.93080  0.11070  Biso   1.000  C
  H40      1.0000 0.46890  0.86140  0.12060  Biso   1.000  H
  Ag12     1.0000 0.52225  0.94446  0.48556  Biso   1.000  Ag
  C65      1.0000 0.51330  0.86010  0.35680  Biso   1.000  C
  C66      1.0000 0.41690  0.80140  0.39600  Biso   1.000  C
  C67      1.0000 0.15130  0.53420  0.35890  Biso   1.000  C
  H41      1.0000 0.09720  0.51810  0.29750  Biso   1.000  H
  C68      1.0000 0.22670  0.55850  0.42970  Biso   1.000  C
  C69      1.0000 0.60420  0.97020  0.13060  Biso   1.000  C
  H42      1.0000 0.65150  0.99750  0.18780  Biso   1.000  H
  C70      1.0000 0.53060  0.93400  0.06290  Biso   1.000  C
  O23      1.0000 0.50880  0.91590  0.55300  Biso   1.000  O
  C71      1.0000 0.53780  0.88790  0.39500  Biso   1.000  C
  H43      1.0000 0.53950  0.87260  0.33010  Biso   1.000  H
  C72      1.0000 0.43920  0.83020  0.43290  Biso   1.000  C
  H44      1.0000 0.37490  0.77050  0.39760  Biso   1.000  H
  H45      1.0000 0.11920  0.50470  0.37350  Biso   1.000  H
  O24      1.0000 0.18470  0.51610  0.44580  Biso   1.000  O
  H46      1.0000 0.63600  0.99760  0.11370  Biso   1.000  H
  O25      1.0000 0.47510  0.89770  0.04450  Biso   1.000  O
  O26      1.0000 0.57100  0.97090  0.03990  Biso   1.000  O
  C73      1.0000 0.46080  0.94950  0.57690  Biso   1.000  C
  N12      1.0000 0.49650  0.87430  0.43230  Biso   1.000  N
  H47      1.0000 0.58400  0.91660  0.39440  Biso   1.000  H
  H48      1.0000 0.41320  0.81840  0.45990  Biso   1.000  H
  Ag13     1.0000 0.24838  0.45113  0.49337  Biso   1.000  Ag
  Ag14     1.0000 0.49942  0.93971  0.97117  Biso   1.000  Ag
  O27      1.0000 0.42380  0.99310  0.56250  Biso   1.000  O
  C74      1.0000 0.45280  0.93680  0.62480  Biso   1.000  C
  N13      1.0000 0.51680  0.87280  0.91990  Biso   1.000  N
  C75      1.0000 0.39980  0.97170  0.65150  Biso   1.000  C
  C76      1.0000 0.49720  0.89160  0.64260  Biso   1.000  C
  C77      1.0000 0.56500  0.82580  0.92510  Biso   1.000  C
  C78      1.0000 0.49240  0.88660  0.87980  Biso   1.000  C
  C79      1.0000 0.39410  0.96260  0.69510  Biso   1.000  C
  H49      1.0000 0.36700  0.00240  0.63900  Biso   1.000  H
  C80      1.0000 0.49210  0.88110  0.68710  Biso   1.000  C
  H50      1.0000 0.53200  0.86700  0.62440  Biso   1.000  H
  C81      1.0000 0.59200  0.79350  0.88970  Biso   1.000  C
  H51      1.0000 0.58160  0.81410  0.95360  Biso   1.000  H
  C82      1.0000 0.51580  0.85280  0.84460  Biso   1.000  C
  H52      1.0000 0.45820  0.92030  0.87490  Biso   1.000  H
  C83      1.0000 0.44060  0.91840  0.71390  Biso   1.000  C
  H53      1.0000 0.35750  0.98710  0.71260  Biso   1.000  H
  C84      1.0000 0.54230  0.83070  0.70610  Biso   1.000  C
  N14      1.0000 0.56360  0.80680  0.84890  Biso   1.000  N
  H54      1.0000 0.63070  0.76160  0.89420  Biso   1.000  H
  H55      1.0000 0.49600  0.86370  0.81630  Biso   1.000  H
  H56      1.0000 0.43840  0.91300  0.74450  Biso   1.000  H
  O28      1.0000 0.53360  0.82370  0.74700  Biso   1.000  O
  O29      1.0000 0.58420  0.79980  0.68010  Biso   1.000  O
  Ag15     1.0000 0.61126  0.76109  0.78350  Biso   1.000  Ag
  Ag16     1.0000 0.65824  0.72279  0.70043  Biso   1.000  Ag
  O30      1.0000 0.68630  0.68860  0.80570  Biso   1.000  O
  O31      1.0000 0.72680  0.65580  0.73940  Biso   1.000  O
  N15      1.0000 0.70290  0.68390  0.63260  Biso   1.000  N
  C85      1.0000 0.72530  0.65380  0.78000  Biso   1.000  C
  C86      1.0000 0.67260  0.69930  0.59360  Biso   1.000  C
  C87      1.0000 0.75700  0.63700  0.63450  Biso   1.000  C
  C88      1.0000 0.77390  0.60380  0.80170  Biso   1.000  C
  C89      1.0000 0.68850  0.66920  0.55680  Biso   1.000  C
  H57      1.0000 0.63790  0.73310  0.59130  Biso   1.000  H
  C90      1.0000 0.77410  0.60790  0.59700  Biso   1.000  C
  H58      1.0000 0.78250  0.62460  0.66130  Biso   1.000  H
  C91      1.0000 0.76450  0.59810  0.84620  Biso   1.000  C
  C92      1.0000 0.82270  0.56670  0.77740  Biso   1.000  C
  H59      1.0000 0.66180  0.68100  0.53000  Biso   1.000  H
  N16      1.0000 0.74240  0.62250  0.55810  Biso   1.000  N
  H60      1.0000 0.81120  0.57490  0.59900  Biso   1.000  H
  C93      1.0000 0.81030  0.55280  0.86730  Biso   1.000  C
  H61      1.0000 0.72790  0.62400  0.86240  Biso   1.000  H
  C94      1.0000 0.87030  0.52210  0.79820  Biso   1.000  C
  H62      1.0000 0.82500  0.57050  0.74670  Biso   1.000  H
  C95      1.0000 0.86370  0.51610  0.84190  Biso   1.000  C
  C96      1.0000 0.80070  0.54400  0.91560  Biso   1.000  C
  H63      1.0000 0.90670  0.49640  0.78170  Biso   1.000  H
  O32      1.0000 0.74550  0.58000  0.43700  Biso   1.000  O
  H64      1.0000 0.89620  0.48620  0.85570  Biso   1.000  H
  O33      1.0000 0.71720  0.40960  0.55020  Biso   1.000  O
  Ag17     1.0000 0.70017  0.43476  0.48071  Biso   1.000  Ag
  N17      1.0000 0.75680  0.37320  0.42820  Biso   1.000  N
  O34      1.0000 0.65390  0.50420  0.43190  Biso   1.000  O
  C97      1.0000 0.80710  0.32660  0.43100  Biso   1.000  C
  C98      1.0000 0.73120  0.38760  0.38800  Biso   1.000  C
  C99      1.0000 0.83490  0.29600  0.39510  Biso   1.000  C
  H65      1.0000 0.82490  0.31360  0.45900  Biso   1.000  H
  C100     1.0000 0.75720  0.35740  0.35170  Biso   1.000  C
  H66      1.0000 0.69340  0.42010  0.38420  Biso   1.000  H
  N18      1.0000 0.81040  0.31030  0.35560  Biso   1.000  N
  H67      1.0000 0.87290  0.26360  0.39930  Biso   1.000  H
  H68      1.0000 0.73790  0.36960  0.32370  Biso   1.000  H
  Ag18     1.0000 0.85109  0.26642  0.28886  Biso   1.000  Ag
  O35      1.0000 0.77610  0.32650  0.24660  Biso   1.000  O
  O36      1.0000 0.92850  0.19500  0.31600  Biso   1.000  O
  C101     1.0000 0.79110  0.33010  0.20650  Biso   1.000  C
  C102     1.0000 0.97160  0.15910  0.29430  Biso   1.000  C
  O37      1.0000 0.84050  0.29750  0.18390  Biso   1.000  O
  C103     1.0000 0.74230  0.37920  0.18340  Biso   1.000  C
  O38      1.0000 0.98100  0.15880  0.25380  Biso   1.000  O
  C104     1.0000 0.01450  0.11300  0.32030  Biso   1.000  C
  Ag19     1.0000 0.91254  0.22217  0.21062  Biso   1.000  Ag
  C105     1.0000 0.68470  0.41390  0.20630  Biso   1.000  C
  C106     1.0000 0.75660  0.38650  0.13930  Biso   1.000  C
  C107     1.0000 0.07250  0.07130  0.30000  Biso   1.000  C
  C108     1.0000 0.00510  0.11070  0.36510  Biso   1.000  C
  N19      1.0000 0.95470  0.18330  0.14370  Biso   1.000  N
  H69      1.0000 0.67660  0.40800  0.23660  Biso   1.000  H
  C109     1.0000 0.63750  0.45790  0.18640  Biso   1.000  C
  C110     1.0000 0.71120  0.43100  0.11770  Biso   1.000  C
  H70      1.0000 0.79660  0.36180  0.12380  Biso   1.000  H
  C111     1.0000 0.11440  0.03070  0.32570  Biso   1.000  C
  H71      1.0000 0.08200  0.07160  0.26950  Biso   1.000  H
  C112     1.0000 0.04670  0.06920  0.38930  Biso   1.000  C
  H72      1.0000 0.96890  0.13860  0.37940  Biso   1.000  H
  Ag20     1.0000 0.02225  0.05554  0.01444  Biso   1.000  Ag
  C113     1.0000 0.01330  0.13990  0.14320  Biso   1.000  C
  C114     1.0000 0.91690  0.19860  0.10400  Biso   1.000  C
  C115     1.0000 0.65130  0.46580  0.14110  Biso   1.000  C
  H73      1.0000 0.59720  0.48190  0.20250  Biso   1.000  H
  C116     1.0000 0.72670  0.44150  0.07030  Biso   1.000  C
  C117     1.0000 0.10420  0.02980  0.36940  Biso   1.000  C
  H74      1.0000 0.15150  0.00250  0.31220  Biso   1.000  H
  C118     1.0000 0.03060  0.06600  0.43710  Biso   1.000  C
  O39      1.0000 0.00880  0.08410  0.94700  Biso   1.000  O
  C119     1.0000 0.03780  0.11210  0.10500  Biso   1.000  C
  H75      1.0000 0.03950  0.12740  0.16990  Biso   1.000  H
  C120     1.0000 0.93920  0.16980  0.06710  Biso   1.000  C
  H76      1.0000 0.87490  0.22950  0.10240  Biso   1.000  H
  H77      1.0000 0.61920  0.49530  0.12650  Biso   1.000  H
  O40      1.0000 0.68470  0.48390  0.05420  Biso   1.000  O
  H78      1.0000 0.13600  0.00240  0.38630  Biso   1.000  H
  O41      1.0000 0.97510  0.10230  0.45550  Biso   1.000  O
  O42      1.0000 0.07100  0.02910  0.46010  Biso   1.000  O
  C121     1.0000 0.96080  0.05050  0.92310  Biso   1.000  C
  N20      1.0000 0.99650  0.12570  0.06770  Biso   1.000  N
  H79      1.0000 0.08400  0.08340  0.10560  Biso   1.000  H
  H80      1.0000 0.91320  0.18160  0.04010  Biso   1.000  H
  Ag21     1.0000 0.74838  0.54887  0.00663  Biso   1.000  Ag
  Ag22     1.0000 0.99942  0.06029  0.52883  Biso   1.000  Ag
  O43      1.0000 0.92380  0.00690  0.93750  Biso   1.000  O
  C122     1.0000 0.95280  0.06320  0.87520  Biso   1.000  C
  N21      1.0000 0.01680  0.12720  0.58010  Biso   1.000  N
  C123     1.0000 0.89980  0.02830  0.84850  Biso   1.000  C
  C124     1.0000 0.99720  0.10840  0.85740  Biso   1.000  C
  C125     1.0000 0.06500  0.17420  0.57490  Biso   1.000  C
  C126     1.0000 0.99240  0.11340  0.62020  Biso   1.000  C
  C127     1.0000 0.89410  0.03740  0.80490  Biso   1.000  C
  H81      1.0000 0.86700  0.99760  0.86100  Biso   1.000  H
  C128     1.0000 0.99210  0.11890  0.81290  Biso   1.000  C
  H82      1.0000 0.03200  0.13300  0.87560  Biso   1.000  H
  C129     1.0000 0.09200  0.20650  0.61030  Biso   1.000  C
  H83      1.0000 0.08160  0.18590  0.54640  Biso   1.000  H
  C130     1.0000 0.01580  0.14720  0.65540  Biso   1.000  C
  H84      1.0000 0.95820  0.07970  0.62510  Biso   1.000  H
  C131     1.0000 0.94060  0.08160  0.78610  Biso   1.000  C
  H85      1.0000 0.85750  0.01290  0.78740  Biso   1.000  H
  C132     1.0000 0.04230  0.16930  0.79390  Biso   1.000  C
  N22      1.0000 0.06360  0.19320  0.65110  Biso   1.000  N
  H86      1.0000 0.13070  0.23840  0.60580  Biso   1.000  H
  H87      1.0000 0.99600  0.13630  0.68370  Biso   1.000  H
  H88      1.0000 0.93840  0.08700  0.75550  Biso   1.000  H
  O44      1.0000 0.03360  0.17630  0.75300  Biso   1.000  O
  O45      1.0000 0.08420  0.20020  0.81990  Biso   1.000  O
  Ag23     1.0000 0.11126  0.23891  0.71650  Biso   1.000  Ag
  Ag24     1.0000 0.15824  0.27721  0.79957  Biso   1.000  Ag
  O46      1.0000 0.18630  0.31140  0.69430  Biso   1.000  O
  O47      1.0000 0.22680  0.34420  0.76060  Biso   1.000  O
  N23      1.0000 0.20290  0.31610  0.86740  Biso   1.000  N
  C133     1.0000 0.22530  0.34620  0.72000  Biso   1.000  C
  C134     1.0000 0.17260  0.30070  0.90640  Biso   1.000  C
  C135     1.0000 0.25700  0.36300  0.86550  Biso   1.000  C
  C136     1.0000 0.27390  0.39620  0.69830  Biso   1.000  C
  C137     1.0000 0.18850  0.33080  0.94320  Biso   1.000  C
  H89      1.0000 0.13790  0.26690  0.90870  Biso   1.000  H
  C138     1.0000 0.27410  0.39210  0.90300  Biso   1.000  C
  H90      1.0000 0.28250  0.37540  0.83870  Biso   1.000  H
  C139     1.0000 0.26450  0.40190  0.65380  Biso   1.000  C
  C140     1.0000 0.32270  0.43330  0.72260  Biso   1.000  C
  H91      1.0000 0.16180  0.31900  0.97000  Biso   1.000  H
  N24      1.0000 0.24240  0.37750  0.94190  Biso   1.000  N
  H92      1.0000 0.31120  0.42510  0.90100  Biso   1.000  H
  C141     1.0000 0.31030  0.44720  0.63270  Biso   1.000  C
  H93      1.0000 0.22790  0.37600  0.63760  Biso   1.000  H
  C142     1.0000 0.37030  0.47790  0.70180  Biso   1.000  C
  H94      1.0000 0.32500  0.42950  0.75330  Biso   1.000  H
  C143     1.0000 0.36370  0.48390  0.65810  Biso   1.000  C
  C144     1.0000 0.30070  0.45600  0.58440  Biso   1.000  C
  H95      1.0000 0.40670  0.50360  0.71830  Biso   1.000  H
  O48      1.0000 0.24550  0.42000  0.06300  Biso   1.000  O
  H96      1.0000 0.39620  0.51380  0.64430  Biso   1.000  H
  O49      1.0000 0.78280  0.09040  0.55020  Biso   1.000  O
  Ag25     1.0000 0.79983  0.06524  0.48071  Biso   1.000  Ag
  N25      1.0000 0.74320  0.12680  0.42820  Biso   1.000  N
  O50      1.0000 0.84610  0.99580  0.43190  Biso   1.000  O
  C145     1.0000 0.69290  0.17340  0.43100  Biso   1.000  C
  C146     1.0000 0.76880  0.11240  0.38800  Biso   1.000  C
  C147     1.0000 0.66510  0.20400  0.39510  Biso   1.000  C
  H97      1.0000 0.67510  0.18640  0.45900  Biso   1.000  H
  C148     1.0000 0.74280  0.14260  0.35170  Biso   1.000  C
  H98      1.0000 0.80660  0.07990  0.38420  Biso   1.000  H
  N26      1.0000 0.68960  0.18970  0.35560  Biso   1.000  N
  H99      1.0000 0.62710  0.23640  0.39930  Biso   1.000  H
  H100     1.0000 0.76210  0.13040  0.32370  Biso   1.000  H
  Ag26     1.0000 0.64891  0.23358  0.28886  Biso   1.000  Ag
  O51      1.0000 0.72390  0.17350  0.24660  Biso   1.000  O
  O52      1.0000 0.57150  0.30500  0.31600  Biso   1.000  O
  C149     1.0000 0.70890  0.16990  0.20650  Biso   1.000  C
  C150     1.0000 0.52840  0.34090  0.29430  Biso   1.000  C
  O53      1.0000 0.65950  0.20250  0.18390  Biso   1.000  O
  C151     1.0000 0.75770  0.12080  0.18340  Biso   1.000  C
  O54      1.0000 0.51900  0.34120  0.25380  Biso   1.000  O
  C152     1.0000 0.48550  0.38700  0.32030  Biso   1.000  C
  Ag27     1.0000 0.58746  0.27783  0.21062  Biso   1.000  Ag
  C153     1.0000 0.81530  0.08610  0.20630  Biso   1.000  C
  C154     1.0000 0.74340  0.11350  0.13930  Biso   1.000  C
  C155     1.0000 0.42750  0.42870  0.30000  Biso   1.000  C
  C156     1.0000 0.49490  0.38930  0.36510  Biso   1.000  C
  N27      1.0000 0.54530  0.31670  0.14370  Biso   1.000  N
  H101     1.0000 0.82340  0.09200  0.23660  Biso   1.000  H
  C157     1.0000 0.86250  0.04210  0.18640  Biso   1.000  C
  C158     1.0000 0.78880  0.06900  0.11770  Biso   1.000  C
  H102     1.0000 0.70340  0.13820  0.12380  Biso   1.000  H
  C159     1.0000 0.38560  0.46930  0.32570  Biso   1.000  C
  H103     1.0000 0.41800  0.42840  0.26950  Biso   1.000  H
  C160     1.0000 0.45330  0.43080  0.38930  Biso   1.000  C
  H104     1.0000 0.53110  0.36140  0.37940  Biso   1.000  H
  Ag28     1.0000 0.47775  0.44446  0.01444  Biso   1.000  Ag
  C161     1.0000 0.48670  0.36010  0.14320  Biso   1.000  C
  C162     1.0000 0.58310  0.30140  0.10400  Biso   1.000  C
  C163     1.0000 0.84870  0.03420  0.14110  Biso   1.000  C
  H105     1.0000 0.90280  0.01810  0.20250  Biso   1.000  H
  C164     1.0000 0.77330  0.05850  0.07030  Biso   1.000  C
  C165     1.0000 0.39580  0.47020  0.36940  Biso   1.000  C
  H106     1.0000 0.34850  0.49750  0.31220  Biso   1.000  H
  C166     1.0000 0.46940  0.43400  0.43710  Biso   1.000  C
  O55      1.0000 0.49120  0.41590  0.94700  Biso   1.000  O
  C167     1.0000 0.46220  0.38790  0.10500  Biso   1.000  C
  H107     1.0000 0.46050  0.37260  0.16990  Biso   1.000  H
  C168     1.0000 0.56080  0.33020  0.06710  Biso   1.000  C
  H108     1.0000 0.62510  0.27050  0.10240  Biso   1.000  H
  H109     1.0000 0.88080  0.00470  0.12650  Biso   1.000  H
  O56      1.0000 0.81530  0.01610  0.05420  Biso   1.000  O
  H110     1.0000 0.36400  0.49760  0.38630  Biso   1.000  H
  O57      1.0000 0.52490  0.39770  0.45550  Biso   1.000  O
  O58      1.0000 0.42900  0.47090  0.46010  Biso   1.000  O
  C169     1.0000 0.53920  0.44950  0.92310  Biso   1.000  C
  N28      1.0000 0.50350  0.37430  0.06770  Biso   1.000  N
  H111     1.0000 0.41600  0.41660  0.10560  Biso   1.000  H
  H112     1.0000 0.58680  0.31840  0.04010  Biso   1.000  H
  Ag29     1.0000 0.75162  0.95113  0.00663  Biso   1.000  Ag
  Ag30     1.0000 0.50058  0.43971  0.52883  Biso   1.000  Ag
  O59      1.0000 0.57620  0.49310  0.93750  Biso   1.000  O
  C170     1.0000 0.54720  0.43680  0.87520  Biso   1.000  C
  N29      1.0000 0.48320  0.37280  0.58010  Biso   1.000  N
  C171     1.0000 0.60020  0.47170  0.84850  Biso   1.000  C
  C172     1.0000 0.50280  0.39160  0.85740  Biso   1.000  C
  C173     1.0000 0.43500  0.32580  0.57490  Biso   1.000  C
  C174     1.0000 0.50760  0.38660  0.62020  Biso   1.000  C
  C175     1.0000 0.60590  0.46260  0.80490  Biso   1.000  C
  H113     1.0000 0.63300  0.50240  0.86100  Biso   1.000  H
  C176     1.0000 0.50790  0.38110  0.81290  Biso   1.000  C
  H114     1.0000 0.46800  0.36700  0.87560  Biso   1.000  H
  C177     1.0000 0.40800  0.29350  0.61030  Biso   1.000  C
  H115     1.0000 0.41840  0.31410  0.54640  Biso   1.000  H
  C178     1.0000 0.48420  0.35280  0.65540  Biso   1.000  C
  H116     1.0000 0.54180  0.42030  0.62510  Biso   1.000  H
  C179     1.0000 0.55940  0.41840  0.78610  Biso   1.000  C
  H117     1.0000 0.64250  0.48710  0.78740  Biso   1.000  H
  C180     1.0000 0.45770  0.33070  0.79390  Biso   1.000  C
  N30      1.0000 0.43640  0.30680  0.65110  Biso   1.000  N
  H118     1.0000 0.36930  0.26160  0.60580  Biso   1.000  H
  H119     1.0000 0.50400  0.36370  0.68370  Biso   1.000  H
  H120     1.0000 0.56160  0.41300  0.75550  Biso   1.000  H
  O60      1.0000 0.46640  0.32370  0.75300  Biso   1.000  O
  O61      1.0000 0.41580  0.29980  0.81990  Biso   1.000  O
  Ag31     1.0000 0.38874  0.26109  0.71650  Biso   1.000  Ag
  Ag32     1.0000 0.34176  0.22279  0.79957  Biso   1.000  Ag
  O62      1.0000 0.31370  0.18860  0.69430  Biso   1.000  O
  O63      1.0000 0.27320  0.15580  0.76060  Biso   1.000  O
  N31      1.0000 0.29710  0.18390  0.86740  Biso   1.000  N
  C181     1.0000 0.27470  0.15380  0.72000  Biso   1.000  C
  C182     1.0000 0.32740  0.19930  0.90640  Biso   1.000  C
  C183     1.0000 0.24300  0.13700  0.86550  Biso   1.000  C
  C184     1.0000 0.22610  0.10380  0.69830  Biso   1.000  C
  C185     1.0000 0.31150  0.16920  0.94320  Biso   1.000  C
  H121     1.0000 0.36210  0.23310  0.90870  Biso   1.000  H
  C186     1.0000 0.22590  0.10790  0.90300  Biso   1.000  C
  H122     1.0000 0.21750  0.12460  0.83870  Biso   1.000  H
  C187     1.0000 0.23550  0.09810  0.65380  Biso   1.000  C
  C188     1.0000 0.17730  0.06670  0.72260  Biso   1.000  C
  H123     1.0000 0.33820  0.18100  0.97000  Biso   1.000  H
  N32      1.0000 0.25760  0.12250  0.94190  Biso   1.000  N
  H124     1.0000 0.18880  0.07490  0.90100  Biso   1.000  H
  C189     1.0000 0.18970  0.05280  0.63270  Biso   1.000  C
  H125     1.0000 0.27210  0.12400  0.63760  Biso   1.000  H
  C190     1.0000 0.12970  0.02210  0.70180  Biso   1.000  C
  H126     1.0000 0.17500  0.07050  0.75330  Biso   1.000  H
  C191     1.0000 0.13630  0.01610  0.65810  Biso   1.000  C
  C192     1.0000 0.19930  0.04400  0.58440  Biso   1.000  C
  H127     1.0000 0.09330  0.99640  0.71830  Biso   1.000  H
  O64      1.0000 0.25450  0.08000  0.06300  Biso   1.000  O
  H128     1.0000 0.10380  0.98620  0.64430  Biso   1.000  H
  O65      1.0000 0.71720  0.09040  0.05020  Biso   1.000  O
  Ag33     1.0000 0.70017  0.06524  0.98071  Biso   1.000  Ag
  N33      1.0000 0.75680  0.12680  0.92820  Biso   1.000  N
  O66      1.0000 0.65390  0.99580  0.93190  Biso   1.000  O
  C193     1.0000 0.80710  0.17340  0.93100  Biso   1.000  C
  C194     1.0000 0.73120  0.11240  0.88800  Biso   1.000  C
  C195     1.0000 0.83490  0.20400  0.89510  Biso   1.000  C
  H129     1.0000 0.82490  0.18640  0.95900  Biso   1.000  H
  C196     1.0000 0.75720  0.14260  0.85170  Biso   1.000  C
  H130     1.0000 0.69340  0.07990  0.88420  Biso   1.000  H
  N34      1.0000 0.81040  0.18970  0.85560  Biso   1.000  N
  H131     1.0000 0.87290  0.23640  0.89930  Biso   1.000  H
  H132     1.0000 0.73790  0.13040  0.82370  Biso   1.000  H
  Ag34     1.0000 0.85109  0.23358  0.78886  Biso   1.000  Ag
  O67      1.0000 0.77610  0.17350  0.74660  Biso   1.000  O
  O68      1.0000 0.92850  0.30500  0.81600  Biso   1.000  O
  C197     1.0000 0.79110  0.16990  0.70650  Biso   1.000  C
  C198     1.0000 0.97160  0.34090  0.79430  Biso   1.000  C
  O69      1.0000 0.84050  0.20250  0.68390  Biso   1.000  O
  C199     1.0000 0.74230  0.12080  0.68340  Biso   1.000  C
  O70      1.0000 0.98100  0.34120  0.75380  Biso   1.000  O
  C200     1.0000 0.01450  0.38700  0.82030  Biso   1.000  C
  Ag35     1.0000 0.91254  0.27783  0.71062  Biso   1.000  Ag
  C201     1.0000 0.68470  0.08610  0.70630  Biso   1.000  C
  C202     1.0000 0.75660  0.11350  0.63930  Biso   1.000  C
  C203     1.0000 0.07250  0.42870  0.80000  Biso   1.000  C
  C204     1.0000 0.00510  0.38930  0.86510  Biso   1.000  C
  N35      1.0000 0.95470  0.31670  0.64370  Biso   1.000  N
  H133     1.0000 0.67660  0.09200  0.73660  Biso   1.000  H
  C205     1.0000 0.63750  0.04210  0.68640  Biso   1.000  C
  C206     1.0000 0.71120  0.06900  0.61770  Biso   1.000  C
  H134     1.0000 0.79660  0.13820  0.62380  Biso   1.000  H
  C207     1.0000 0.11440  0.46930  0.82570  Biso   1.000  C
  H135     1.0000 0.08200  0.42840  0.76950  Biso   1.000  H
  C208     1.0000 0.04670  0.43080  0.88930  Biso   1.000  C
  H136     1.0000 0.96890  0.36140  0.87940  Biso   1.000  H
  Ag36     1.0000 0.02225  0.44446  0.51444  Biso   1.000  Ag
  C209     1.0000 0.01330  0.36010  0.64320  Biso   1.000  C
  C210     1.0000 0.91690  0.30140  0.60400  Biso   1.000  C
  C211     1.0000 0.65130  0.03420  0.64110  Biso   1.000  C
  H137     1.0000 0.59720  0.01810  0.70250  Biso   1.000  H
  C212     1.0000 0.72670  0.05850  0.57030  Biso   1.000  C
  C213     1.0000 0.10420  0.47020  0.86940  Biso   1.000  C
  H138     1.0000 0.15150  0.49750  0.81220  Biso   1.000  H
  C214     1.0000 0.03060  0.43400  0.93710  Biso   1.000  C
  O71      1.0000 0.00880  0.41590  0.44700  Biso   1.000  O
  C215     1.0000 0.03780  0.38790  0.60500  Biso   1.000  C
  H139     1.0000 0.03950  0.37260  0.66990  Biso   1.000  H
  C216     1.0000 0.93920  0.33020  0.56710  Biso   1.000  C
  H140     1.0000 0.87490  0.27050  0.60240  Biso   1.000  H
  H141     1.0000 0.61920  0.00470  0.62650  Biso   1.000  H
  O72      1.0000 0.68470  0.01610  0.55420  Biso   1.000  O
  H142     1.0000 0.13600  0.49760  0.88630  Biso   1.000  H
  O73      1.0000 0.97510  0.39770  0.95550  Biso   1.000  O
  O74      1.0000 0.07100  0.47090  0.96010  Biso   1.000  O
  C217     1.0000 0.96080  0.44950  0.42310  Biso   1.000  C
  N36      1.0000 0.99650  0.37430  0.56770  Biso   1.000  N
  H143     1.0000 0.08400  0.41660  0.60560  Biso   1.000  H
  H144     1.0000 0.91320  0.31840  0.54010  Biso   1.000  H
  Ag37     1.0000 0.74838  0.95113  0.50663  Biso   1.000  Ag
  Ag38     1.0000 0.99942  0.43971  0.02883  Biso   1.000  Ag
  O75      1.0000 0.92380  0.49310  0.43750  Biso   1.000  O
  C218     1.0000 0.95280  0.43680  0.37520  Biso   1.000  C
  N37      1.0000 0.01680  0.37280  0.08010  Biso   1.000  N
  C219     1.0000 0.89980  0.47170  0.34850  Biso   1.000  C
  C220     1.0000 0.99720  0.39160  0.35740  Biso   1.000  C
  C221     1.0000 0.06500  0.32580  0.07490  Biso   1.000  C
  C222     1.0000 0.99240  0.38660  0.12020  Biso   1.000  C
  C223     1.0000 0.89410  0.46260  0.30490  Biso   1.000  C
  H145     1.0000 0.86700  0.50240  0.36100  Biso   1.000  H
  C224     1.0000 0.99210  0.38110  0.31290  Biso   1.000  C
  H146     1.0000 0.03200  0.36700  0.37560  Biso   1.000  H
  C225     1.0000 0.09200  0.29350  0.11030  Biso   1.000  C
  H147     1.0000 0.08160  0.31410  0.04640  Biso   1.000  H
  C226     1.0000 0.01580  0.35280  0.15540  Biso   1.000  C
  H148     1.0000 0.95820  0.42030  0.12510  Biso   1.000  H
  C227     1.0000 0.94060  0.41840  0.28610  Biso   1.000  C
  H149     1.0000 0.85750  0.48710  0.28740  Biso   1.000  H
  C228     1.0000 0.04230  0.33070  0.29390  Biso   1.000  C
  N38      1.0000 0.06360  0.30680  0.15110  Biso   1.000  N
  H150     1.0000 0.13070  0.26160  0.10580  Biso   1.000  H
  H151     1.0000 0.99600  0.36370  0.18370  Biso   1.000  H
  H152     1.0000 0.93840  0.41300  0.25550  Biso   1.000  H
  O76      1.0000 0.03360  0.32370  0.25300  Biso   1.000  O
  O77      1.0000 0.08420  0.29980  0.31990  Biso   1.000  O
  Ag39     1.0000 0.11126  0.26109  0.21650  Biso   1.000  Ag
  Ag40     1.0000 0.15824  0.22279  0.29957  Biso   1.000  Ag
  O78      1.0000 0.18630  0.18860  0.19430  Biso   1.000  O
  O79      1.0000 0.22680  0.15580  0.26060  Biso   1.000  O
  N39      1.0000 0.20290  0.18390  0.36740  Biso   1.000  N
  C229     1.0000 0.22530  0.15380  0.22000  Biso   1.000  C
  C230     1.0000 0.17260  0.19930  0.40640  Biso   1.000  C
  C231     1.0000 0.25700  0.13700  0.36550  Biso   1.000  C
  C232     1.0000 0.27390  0.10380  0.19830  Biso   1.000  C
  C233     1.0000 0.18850  0.16920  0.44320  Biso   1.000  C
  H153     1.0000 0.13790  0.23310  0.40870  Biso   1.000  H
  C234     1.0000 0.27410  0.10790  0.40300  Biso   1.000  C
  H154     1.0000 0.28250  0.12460  0.33870  Biso   1.000  H
  C235     1.0000 0.26450  0.09810  0.15380  Biso   1.000  C
  C236     1.0000 0.32270  0.06670  0.22260  Biso   1.000  C
  H155     1.0000 0.16180  0.18100  0.47000  Biso   1.000  H
  N40      1.0000 0.24240  0.12250  0.44190  Biso   1.000  N
  H156     1.0000 0.31120  0.07490  0.40100  Biso   1.000  H
  C237     1.0000 0.31030  0.05280  0.13270  Biso   1.000  C
  H157     1.0000 0.22790  0.12400  0.13760  Biso   1.000  H
  C238     1.0000 0.37030  0.02210  0.20180  Biso   1.000  C
  H158     1.0000 0.32500  0.07050  0.25330  Biso   1.000  H
  C239     1.0000 0.36370  0.01610  0.15810  Biso   1.000  C
  C240     1.0000 0.30070  0.04400  0.08440  Biso   1.000  C
  H159     1.0000 0.40670  0.99640  0.21830  Biso   1.000  H
  O80      1.0000 0.24550  0.08000  0.56300  Biso   1.000  O
  H160     1.0000 0.39620  0.98620  0.14430  Biso   1.000  H
  O81      1.0000 0.78280  0.40960  0.05020  Biso   1.000  O
  Ag41     1.0000 0.79983  0.43476  0.98071  Biso   1.000  Ag
  N41      1.0000 0.74320  0.37320  0.92820  Biso   1.000  N
  O82      1.0000 0.84610  0.50420  0.93190  Biso   1.000  O
  C241     1.0000 0.69290  0.32660  0.93100  Biso   1.000  C
  C242     1.0000 0.76880  0.38760  0.88800  Biso   1.000  C
  C243     1.0000 0.66510  0.29600  0.89510  Biso   1.000  C
  H161     1.0000 0.67510  0.31360  0.95900  Biso   1.000  H
  C244     1.0000 0.74280  0.35740  0.85170  Biso   1.000  C
  H162     1.0000 0.80660  0.42010  0.88420  Biso   1.000  H
  N42      1.0000 0.68960  0.31030  0.85560  Biso   1.000  N
  H163     1.0000 0.62710  0.26360  0.89930  Biso   1.000  H
  H164     1.0000 0.76210  0.36960  0.82370  Biso   1.000  H
  Ag42     1.0000 0.64891  0.26642  0.78886  Biso   1.000  Ag
  O83      1.0000 0.72390  0.32650  0.74660  Biso   1.000  O
  O84      1.0000 0.57150  0.19500  0.81600  Biso   1.000  O
  C245     1.0000 0.70890  0.33010  0.70650  Biso   1.000  C
  C246     1.0000 0.52840  0.15910  0.79430  Biso   1.000  C
  O85      1.0000 0.65950  0.29750  0.68390  Biso   1.000  O
  C247     1.0000 0.75770  0.37920  0.68340  Biso   1.000  C
  O86      1.0000 0.51900  0.15880  0.75380  Biso   1.000  O
  C248     1.0000 0.48550  0.11300  0.82030  Biso   1.000  C
  Ag43     1.0000 0.58746  0.22217  0.71062  Biso   1.000  Ag
  C249     1.0000 0.81530  0.41390  0.70630  Biso   1.000  C
  C250     1.0000 0.74340  0.38650  0.63930  Biso   1.000  C
  C251     1.0000 0.42750  0.07130  0.80000  Biso   1.000  C
  C252     1.0000 0.49490  0.11070  0.86510  Biso   1.000  C
  N43      1.0000 0.54530  0.18330  0.64370  Biso   1.000  N
  H165     1.0000 0.82340  0.40800  0.73660  Biso   1.000  H
  C253     1.0000 0.86250  0.45790  0.68640  Biso   1.000  C
  C254     1.0000 0.78880  0.43100  0.61770  Biso   1.000  C
  H166     1.0000 0.70340  0.36180  0.62380  Biso   1.000  H
  C255     1.0000 0.38560  0.03070  0.82570  Biso   1.000  C
  H167     1.0000 0.41800  0.07160  0.76950  Biso   1.000  H
  C256     1.0000 0.45330  0.06920  0.88930  Biso   1.000  C
  H168     1.0000 0.53110  0.13860  0.87940  Biso   1.000  H
  Ag44     1.0000 0.47775  0.05554  0.51444  Biso   1.000  Ag
  C257     1.0000 0.48670  0.13990  0.64320  Biso   1.000  C
  C258     1.0000 0.58310  0.19860  0.60400  Biso   1.000  C
  C259     1.0000 0.84870  0.46580  0.64110  Biso   1.000  C
  H169     1.0000 0.90280  0.48190  0.70250  Biso   1.000  H
  C260     1.0000 0.77330  0.44150  0.57030  Biso   1.000  C
  C261     1.0000 0.39580  0.02980  0.86940  Biso   1.000  C
  H170     1.0000 0.34850  0.00250  0.81220  Biso   1.000  H
  C262     1.0000 0.46940  0.06600  0.93710  Biso   1.000  C
  O87      1.0000 0.49120  0.08410  0.44700  Biso   1.000  O
  C263     1.0000 0.46220  0.11210  0.60500  Biso   1.000  C
  H171     1.0000 0.46050  0.12740  0.66990  Biso   1.000  H
  C264     1.0000 0.56080  0.16980  0.56710  Biso   1.000  C
  H172     1.0000 0.62510  0.22950  0.60240  Biso   1.000  H
  H173     1.0000 0.88080  0.49530  0.62650  Biso   1.000  H
  O88      1.0000 0.81530  0.48390  0.55420  Biso   1.000  O
  H174     1.0000 0.36400  0.00240  0.88630  Biso   1.000  H
  O89      1.0000 0.52490  0.10230  0.95550  Biso   1.000  O
  O90      1.0000 0.42900  0.02910  0.96010  Biso   1.000  O
  C265     1.0000 0.53920  0.05050  0.42310  Biso   1.000  C
  N44      1.0000 0.50350  0.12570  0.56770  Biso   1.000  N
  H175     1.0000 0.41600  0.08340  0.60560  Biso   1.000  H
  H176     1.0000 0.58680  0.18160  0.54010  Biso   1.000  H
  Ag45     1.0000 0.75162  0.54887  0.50663  Biso   1.000  Ag
  Ag46     1.0000 0.50058  0.06029  0.02883  Biso   1.000  Ag
  O91      1.0000 0.57620  0.00690  0.43750  Biso   1.000  O
  C266     1.0000 0.54720  0.06320  0.37520  Biso   1.000  C
  N45      1.0000 0.48320  0.12720  0.08010  Biso   1.000  N
  C267     1.0000 0.60020  0.02830  0.34850  Biso   1.000  C
  C268     1.0000 0.50280  0.10840  0.35740  Biso   1.000  C
  C269     1.0000 0.43500  0.17420  0.07490  Biso   1.000  C
  C270     1.0000 0.50760  0.11340  0.12020  Biso   1.000  C
  C271     1.0000 0.60590  0.03740  0.30490  Biso   1.000  C
  H177     1.0000 0.63300  0.99760  0.36100  Biso   1.000  H
  C272     1.0000 0.50790  0.11890  0.31290  Biso   1.000  C
  H178     1.0000 0.46800  0.13300  0.37560  Biso   1.000  H
  C273     1.0000 0.40800  0.20650  0.11030  Biso   1.000  C
  H179     1.0000 0.41840  0.18590  0.04640  Biso   1.000  H
  C274     1.0000 0.48420  0.14720  0.15540  Biso   1.000  C
  H180     1.0000 0.54180  0.07970  0.12510  Biso   1.000  H
  C275     1.0000 0.55940  0.08160  0.28610  Biso   1.000  C
  H181     1.0000 0.64250  0.01290  0.28740  Biso   1.000  H
  C276     1.0000 0.45770  0.16930  0.29390  Biso   1.000  C
  N46      1.0000 0.43640  0.19320  0.15110  Biso   1.000  N
  H182     1.0000 0.36930  0.23840  0.10580  Biso   1.000  H
  H183     1.0000 0.50400  0.13630  0.18370  Biso   1.000  H
  H184     1.0000 0.56160  0.08700  0.25550  Biso   1.000  H
  O92      1.0000 0.46640  0.17630  0.25300  Biso   1.000  O
  O93      1.0000 0.41580  0.20020  0.31990  Biso   1.000  O
  Ag47     1.0000 0.38874  0.23891  0.21650  Biso   1.000  Ag
  Ag48     1.0000 0.34176  0.27721  0.29957  Biso   1.000  Ag
  O94      1.0000 0.31370  0.31140  0.19430  Biso   1.000  O
  O95      1.0000 0.27320  0.34420  0.26060  Biso   1.000  O
  N47      1.0000 0.29710  0.31610  0.36740  Biso   1.000  N
  C277     1.0000 0.27470  0.34620  0.22000  Biso   1.000  C
  C278     1.0000 0.32740  0.30070  0.40640  Biso   1.000  C
  C279     1.0000 0.24300  0.36300  0.36550  Biso   1.000  C
  C280     1.0000 0.22610  0.39620  0.19830  Biso   1.000  C
  C281     1.0000 0.31150  0.33080  0.44320  Biso   1.000  C
  H185     1.0000 0.36210  0.26690  0.40870  Biso   1.000  H
  C282     1.0000 0.22590  0.39210  0.40300  Biso   1.000  C
  H186     1.0000 0.21750  0.37540  0.33870  Biso   1.000  H
  C283     1.0000 0.23550  0.40190  0.15380  Biso   1.000  C
  C284     1.0000 0.17730  0.43330  0.22260  Biso   1.000  C
  H187     1.0000 0.33820  0.31900  0.47000  Biso   1.000  H
  N48      1.0000 0.25760  0.37750  0.44190  Biso   1.000  N
  H188     1.0000 0.18880  0.42510  0.40100  Biso   1.000  H
  C285     1.0000 0.18970  0.44720  0.13270  Biso   1.000  C
  H189     1.0000 0.27210  0.37600  0.13760  Biso   1.000  H
  C286     1.0000 0.12970  0.47790  0.20180  Biso   1.000  C
  H190     1.0000 0.17500  0.42950  0.25330  Biso   1.000  H
  C287     1.0000 0.13630  0.48390  0.15810  Biso   1.000  C
  C288     1.0000 0.19930  0.45600  0.08440  Biso   1.000  C
  H191     1.0000 0.09330  0.50360  0.21830  Biso   1.000  H
  O96      1.0000 0.25450  0.42000  0.56300  Biso   1.000  O
  H192     1.0000 0.10380  0.51380  0.14430  Biso   1.000  H
  O97      1.0000 0.28280  0.59040  0.44980  Biso   1.000  O
  Ag49     1.0000 0.29983  0.56524  0.51929  Biso   1.000  Ag
  N49      1.0000 0.24320  0.62680  0.57180  Biso   1.000  N
  O98      1.0000 0.34610  0.49580  0.56810  Biso   1.000  O
  C289     1.0000 0.19290  0.67340  0.56900  Biso   1.000  C
  C290     1.0000 0.26880  0.61240  0.61200  Biso   1.000  C
  C291     1.0000 0.16510  0.70400  0.60490  Biso   1.000  C
  H193     1.0000 0.17510  0.68640  0.54100  Biso   1.000  H
  C292     1.0000 0.24280  0.64260  0.64830  Biso   1.000  C
  H194     1.0000 0.30660  0.57990  0.61580  Biso   1.000  H
  N50      1.0000 0.18960  0.68970  0.64440  Biso   1.000  N
  H195     1.0000 0.12710  0.73640  0.60070  Biso   1.000  H
  H196     1.0000 0.26210  0.63040  0.67630  Biso   1.000  H
  Ag50     1.0000 0.14891  0.73358  0.71114  Biso   1.000  Ag
  O99      1.0000 0.22390  0.67350  0.75340  Biso   1.000  O
  O100     1.0000 0.07150  0.80500  0.68400  Biso   1.000  O
  C293     1.0000 0.20890  0.66990  0.79350  Biso   1.000  C
  C294     1.0000 0.02840  0.84090  0.70570  Biso   1.000  C
  O101     1.0000 0.15950  0.70250  0.81610  Biso   1.000  O
  C295     1.0000 0.25770  0.62080  0.81660  Biso   1.000  C
  O102     1.0000 0.01900  0.84120  0.74620  Biso   1.000  O
  C296     1.0000 0.98550  0.88700  0.67970  Biso   1.000  C
  Ag51     1.0000 0.08746  0.77783  0.78938  Biso   1.000  Ag
  C297     1.0000 0.31530  0.58610  0.79370  Biso   1.000  C
  C298     1.0000 0.24340  0.61350  0.86070  Biso   1.000  C
  C299     1.0000 0.92750  0.92870  0.70000  Biso   1.000  C
  C300     1.0000 0.99490  0.88930  0.63490  Biso   1.000  C
  N51      1.0000 0.04530  0.81670  0.85630  Biso   1.000  N
  H197     1.0000 0.32340  0.59200  0.76340  Biso   1.000  H
  C301     1.0000 0.36250  0.54210  0.81360  Biso   1.000  C
  C302     1.0000 0.28880  0.56900  0.88230  Biso   1.000  C
  H198     1.0000 0.20340  0.63820  0.87620  Biso   1.000  H
  C303     1.0000 0.88560  0.96930  0.67430  Biso   1.000  C
  H199     1.0000 0.91800  0.92840  0.73050  Biso   1.000  H
  C304     1.0000 0.95330  0.93080  0.61070  Biso   1.000  C
  H200     1.0000 0.03110  0.86140  0.62060  Biso   1.000  H
  Ag52     1.0000 0.97775  0.94446  0.98556  Biso   1.000  Ag
  C305     1.0000 0.98670  0.86010  0.85680  Biso   1.000  C
  C306     1.0000 0.08310  0.80140  0.89600  Biso   1.000  C
  C307     1.0000 0.34870  0.53420  0.85890  Biso   1.000  C
  H201     1.0000 0.40280  0.51810  0.79750  Biso   1.000  H
  C308     1.0000 0.27330  0.55850  0.92970  Biso   1.000  C
  C309     1.0000 0.89580  0.97020  0.63060  Biso   1.000  C
  H202     1.0000 0.84850  0.99750  0.68780  Biso   1.000  H
  C310     1.0000 0.96940  0.93400  0.56290  Biso   1.000  C
  O103     1.0000 0.99120  0.91590  0.05300  Biso   1.000  O
  C311     1.0000 0.96220  0.88790  0.89500  Biso   1.000  C
  H203     1.0000 0.96050  0.87260  0.83010  Biso   1.000  H
  C312     1.0000 0.06080  0.83020  0.93290  Biso   1.000  C
  H204     1.0000 0.12510  0.77050  0.89760  Biso   1.000  H
  H205     1.0000 0.38080  0.50470  0.87350  Biso   1.000  H
  O104     1.0000 0.31530  0.51610  0.94580  Biso   1.000  O
  H206     1.0000 0.86400  0.99760  0.61370  Biso   1.000  H
  O105     1.0000 0.02490  0.89770  0.54450  Biso   1.000  O
  O106     1.0000 0.92900  0.97090  0.53990  Biso   1.000  O
  C313     1.0000 0.03920  0.94950  0.07690  Biso   1.000  C
  N52      1.0000 0.00350  0.87430  0.93230  Biso   1.000  N
  H207     1.0000 0.91600  0.91660  0.89440  Biso   1.000  H
  H208     1.0000 0.08680  0.81840  0.95990  Biso   1.000  H
  Ag53     1.0000 0.25162  0.45113  0.99337  Biso   1.000  Ag
  Ag54     1.0000 0.00058  0.93971  0.47117  Biso   1.000  Ag
  O107     1.0000 0.07620  0.99310  0.06250  Biso   1.000  O
  C314     1.0000 0.04720  0.93680  0.12480  Biso   1.000  C
  N53      1.0000 0.98320  0.87280  0.41990  Biso   1.000  N
  C315     1.0000 0.10020  0.97170  0.15150  Biso   1.000  C
  C316     1.0000 0.00280  0.89160  0.14260  Biso   1.000  C
  C317     1.0000 0.93500  0.82580  0.42510  Biso   1.000  C
  C318     1.0000 0.00760  0.88660  0.37980  Biso   1.000  C
  C319     1.0000 0.10590  0.96260  0.19510  Biso   1.000  C
  H209     1.0000 0.13300  0.00240  0.13900  Biso   1.000  H
  C320     1.0000 0.00790  0.88110  0.18710  Biso   1.000  C
  H210     1.0000 0.96800  0.86700  0.12440  Biso   1.000  H
  C321     1.0000 0.90800  0.79350  0.38970  Biso   1.000  C
  H211     1.0000 0.91840  0.81410  0.45360  Biso   1.000  H
  C322     1.0000 0.98420  0.85280  0.34460  Biso   1.000  C
  H212     1.0000 0.04180  0.92030  0.37490  Biso   1.000  H
  C323     1.0000 0.05940  0.91840  0.21390  Biso   1.000  C
  H213     1.0000 0.14250  0.98710  0.21260  Biso   1.000  H
  C324     1.0000 0.95770  0.83070  0.20610  Biso   1.000  C
  N54      1.0000 0.93640  0.80680  0.34890  Biso   1.000  N
  H214     1.0000 0.86930  0.76160  0.39420  Biso   1.000  H
  H215     1.0000 0.00400  0.86370  0.31630  Biso   1.000  H
  H216     1.0000 0.06160  0.91300  0.24450  Biso   1.000  H
  O108     1.0000 0.96640  0.82370  0.24700  Biso   1.000  O
  O109     1.0000 0.91580  0.79980  0.18010  Biso   1.000  O
  Ag55     1.0000 0.88874  0.76109  0.28350  Biso   1.000  Ag
  Ag56     1.0000 0.84176  0.72279  0.20043  Biso   1.000  Ag
  O110     1.0000 0.81370  0.68860  0.30570  Biso   1.000  O
  O111     1.0000 0.77320  0.65580  0.23940  Biso   1.000  O
  N55      1.0000 0.79710  0.68390  0.13260  Biso   1.000  N
  C325     1.0000 0.77470  0.65380  0.28000  Biso   1.000  C
  C326     1.0000 0.82740  0.69930  0.09360  Biso   1.000  C
  C327     1.0000 0.74300  0.63700  0.13450  Biso   1.000  C
  C328     1.0000 0.72610  0.60380  0.30170  Biso   1.000  C
  C329     1.0000 0.81150  0.66920  0.05680  Biso   1.000  C
  H217     1.0000 0.86210  0.73310  0.09130  Biso   1.000  H
  C330     1.0000 0.72590  0.60790  0.09700  Biso   1.000  C
  H218     1.0000 0.71750  0.62460  0.16130  Biso   1.000  H
  C331     1.0000 0.73550  0.59810  0.34620  Biso   1.000  C
  C332     1.0000 0.67730  0.56670  0.27740  Biso   1.000  C
  H219     1.0000 0.83820  0.68100  0.03000  Biso   1.000  H
  N56      1.0000 0.75760  0.62250  0.05810  Biso   1.000  N
  H220     1.0000 0.68880  0.57490  0.09900  Biso   1.000  H
  C333     1.0000 0.68970  0.55280  0.36730  Biso   1.000  C
  H221     1.0000 0.77210  0.62400  0.36240  Biso   1.000  H
  C334     1.0000 0.62970  0.52210  0.29820  Biso   1.000  C
  H222     1.0000 0.67500  0.57050  0.24670  Biso   1.000  H
  C335     1.0000 0.63630  0.51610  0.34190  Biso   1.000  C
  C336     1.0000 0.69930  0.54400  0.41560  Biso   1.000  C
  H223     1.0000 0.59330  0.49640  0.28170  Biso   1.000  H
  O112     1.0000 0.75450  0.58000  0.93700  Biso   1.000  O
  H224     1.0000 0.60380  0.48620  0.35570  Biso   1.000  H
  O113     1.0000 0.21720  0.90960  0.44980  Biso   1.000  O
  Ag57     1.0000 0.20017  0.93476  0.51929  Biso   1.000  Ag
  N57      1.0000 0.25680  0.87320  0.57180  Biso   1.000  N
  O114     1.0000 0.15390  0.00420  0.56810  Biso   1.000  O
  C337     1.0000 0.30710  0.82660  0.56900  Biso   1.000  C
  C338     1.0000 0.23120  0.88760  0.61200  Biso   1.000  C
  C339     1.0000 0.33490  0.79600  0.60490  Biso   1.000  C
  H225     1.0000 0.32490  0.81360  0.54100  Biso   1.000  H
  C340     1.0000 0.25720  0.85740  0.64830  Biso   1.000  C
  H226     1.0000 0.19340  0.92010  0.61580  Biso   1.000  H
  N58      1.0000 0.31040  0.81030  0.64440  Biso   1.000  N
  H227     1.0000 0.37290  0.76360  0.60070  Biso   1.000  H
  H228     1.0000 0.23790  0.86960  0.67630  Biso   1.000  H
  Ag58     1.0000 0.35109  0.76642  0.71114  Biso   1.000  Ag
  O115     1.0000 0.27610  0.82650  0.75340  Biso   1.000  O
  O116     1.0000 0.42850  0.69500  0.68400  Biso   1.000  O
  C341     1.0000 0.29110  0.83010  0.79350  Biso   1.000  C
  C342     1.0000 0.47160  0.65910  0.70570  Biso   1.000  C
  O117     1.0000 0.34050  0.79750  0.81610  Biso   1.000  O
  C343     1.0000 0.24230  0.87920  0.81660  Biso   1.000  C
  O118     1.0000 0.48100  0.65880  0.74620  Biso   1.000  O
  C344     1.0000 0.51450  0.61300  0.67970  Biso   1.000  C
  Ag59     1.0000 0.41254  0.72217  0.78938  Biso   1.000  Ag
  C345     1.0000 0.18470  0.91390  0.79370  Biso   1.000  C
  C346     1.0000 0.25660  0.88650  0.86070  Biso   1.000  C
  C347     1.0000 0.57250  0.57130  0.70000  Biso   1.000  C
  C348     1.0000 0.50510  0.61070  0.63490  Biso   1.000  C
  N59      1.0000 0.45470  0.68330  0.85630  Biso   1.000  N
  H229     1.0000 0.17660  0.90800  0.76340  Biso   1.000  H
  C349     1.0000 0.13750  0.95790  0.81360  Biso   1.000  C
  C350     1.0000 0.21120  0.93100  0.88230  Biso   1.000  C
  H230     1.0000 0.29660  0.86180  0.87620  Biso   1.000  H
  C351     1.0000 0.61440  0.53070  0.67430  Biso   1.000  C
  H231     1.0000 0.58200  0.57160  0.73050  Biso   1.000  H
  C352     1.0000 0.54670  0.56920  0.61070  Biso   1.000  C
  H232     1.0000 0.46890  0.63860  0.62060  Biso   1.000  H
  Ag60     1.0000 0.52225  0.55554  0.98556  Biso   1.000  Ag
  C353     1.0000 0.51330  0.63990  0.85680  Biso   1.000  C
  C354     1.0000 0.41690  0.69860  0.89600  Biso   1.000  C
  C355     1.0000 0.15130  0.96580  0.85890  Biso   1.000  C
  H233     1.0000 0.09720  0.98190  0.79750  Biso   1.000  H
  C356     1.0000 0.22670  0.94150  0.92970  Biso   1.000  C
  C357     1.0000 0.60420  0.52980  0.63060  Biso   1.000  C
  H234     1.0000 0.65150  0.50250  0.68780  Biso   1.000  H
  C358     1.0000 0.53060  0.56600  0.56290  Biso   1.000  C
  O119     1.0000 0.50880  0.58410  0.05300  Biso   1.000  O
  C359     1.0000 0.53780  0.61210  0.89500  Biso   1.000  C
  H235     1.0000 0.53950  0.62740  0.83010  Biso   1.000  H
  C360     1.0000 0.43920  0.66980  0.93290  Biso   1.000  C
  H236     1.0000 0.37490  0.72950  0.89760  Biso   1.000  H
  H237     1.0000 0.11920  0.99530  0.87350  Biso   1.000  H
  O120     1.0000 0.18470  0.98390  0.94580  Biso   1.000  O
  H238     1.0000 0.63600  0.50240  0.61370  Biso   1.000  H
  O121     1.0000 0.47510  0.60230  0.54450  Biso   1.000  O
  O122     1.0000 0.57100  0.52910  0.53990  Biso   1.000  O
  C361     1.0000 0.46080  0.55050  0.07690  Biso   1.000  C
  N60      1.0000 0.49650  0.62570  0.93230  Biso   1.000  N
  H239     1.0000 0.58400  0.58340  0.89440  Biso   1.000  H
  H240     1.0000 0.41320  0.68160  0.95990  Biso   1.000  H
  Ag61     1.0000 0.24838  0.04887  0.99337  Biso   1.000  Ag
  Ag62     1.0000 0.49942  0.56029  0.47117  Biso   1.000  Ag
  O123     1.0000 0.42380  0.50690  0.06250  Biso   1.000  O
  C362     1.0000 0.45280  0.56320  0.12480  Biso   1.000  C
  N61      1.0000 0.51680  0.62720  0.41990  Biso   1.000  N
  C363     1.0000 0.39980  0.52830  0.15150  Biso   1.000  C
  C364     1.0000 0.49720  0.60840  0.14260  Biso   1.000  C
  C365     1.0000 0.56500  0.67420  0.42510  Biso   1.000  C
  C366     1.0000 0.49240  0.61340  0.37980  Biso   1.000  C
  C367     1.0000 0.39410  0.53740  0.19510  Biso   1.000  C
  H241     1.0000 0.36700  0.49760  0.13900  Biso   1.000  H
  C368     1.0000 0.49210  0.61890  0.18710  Biso   1.000  C
  H242     1.0000 0.53200  0.63300  0.12440  Biso   1.000  H
  C369     1.0000 0.59200  0.70650  0.38970  Biso   1.000  C
  H243     1.0000 0.58160  0.68590  0.45360  Biso   1.000  H
  C370     1.0000 0.51580  0.64720  0.34460  Biso   1.000  C
  H244     1.0000 0.45820  0.57970  0.37490  Biso   1.000  H
  C371     1.0000 0.44060  0.58160  0.21390  Biso   1.000  C
  H245     1.0000 0.35750  0.51290  0.21260  Biso   1.000  H
  C372     1.0000 0.54230  0.66930  0.20610  Biso   1.000  C
  N62      1.0000 0.56360  0.69320  0.34890  Biso   1.000  N
  H246     1.0000 0.63070  0.73840  0.39420  Biso   1.000  H
  H247     1.0000 0.49600  0.63630  0.31630  Biso   1.000  H
  H248     1.0000 0.43840  0.58700  0.24450  Biso   1.000  H
  O124     1.0000 0.53360  0.67630  0.24700  Biso   1.000  O
  O125     1.0000 0.58420  0.70020  0.18010  Biso   1.000  O
  Ag63     1.0000 0.61126  0.73891  0.28350  Biso   1.000  Ag
  Ag64     1.0000 0.65824  0.77721  0.20043  Biso   1.000  Ag
  O126     1.0000 0.68630  0.81140  0.30570  Biso   1.000  O
  O127     1.0000 0.72680  0.84420  0.23940  Biso   1.000  O
  N63      1.0000 0.70290  0.81610  0.13260  Biso   1.000  N
  C373     1.0000 0.72530  0.84620  0.28000  Biso   1.000  C
  C374     1.0000 0.67260  0.80070  0.09360  Biso   1.000  C
  C375     1.0000 0.75700  0.86300  0.13450  Biso   1.000  C
  C376     1.0000 0.77390  0.89620  0.30170  Biso   1.000  C
  C377     1.0000 0.68850  0.83080  0.05680  Biso   1.000  C
  H249     1.0000 0.63790  0.76690  0.09130  Biso   1.000  H
  C378     1.0000 0.77410  0.89210  0.09700  Biso   1.000  C
  H250     1.0000 0.78250  0.87540  0.16130  Biso   1.000  H
  C379     1.0000 0.76450  0.90190  0.34620  Biso   1.000  C
  C380     1.0000 0.82270  0.93330  0.27740  Biso   1.000  C
  H251     1.0000 0.66180  0.81900  0.03000  Biso   1.000  H
  N64      1.0000 0.74240  0.87750  0.05810  Biso   1.000  N
  H252     1.0000 0.81120  0.92510  0.09900  Biso   1.000  H
  C381     1.0000 0.81030  0.94720  0.36730  Biso   1.000  C
  H253     1.0000 0.72790  0.87600  0.36240  Biso   1.000  H
  C382     1.0000 0.87030  0.97790  0.29820  Biso   1.000  C
  H254     1.0000 0.82500  0.92950  0.24670  Biso   1.000  H
  C383     1.0000 0.86370  0.98390  0.34190  Biso   1.000  C
  C384     1.0000 0.80070  0.95600  0.41560  Biso   1.000  C
  H255     1.0000 0.90670  0.00360  0.28170  Biso   1.000  H
  O128     1.0000 0.74550  0.92000  0.93700  Biso   1.000  O
  H256     1.0000 0.89620  0.01380  0.35570  Biso   1.000  H
