data_image0
_cell_length_a       14.2327
_cell_length_b       23.828
_cell_length_c       30.749
_cell_angle_alpha    90
_cell_angle_beta     90
_cell_angle_gamma    90

_symmetry_space_group_name_H-M    "P 1"
_symmetry_int_tables_number       1

loop_
  _symmetry_equiv_pos_as_xyz
  'x, y, z'

loop_
  _atom_site_label
  _atom_site_occupancy
  _atom_site_fract_x
  _atom_site_fract_y
  _atom_site_fract_z
  _atom_site_thermal_displace_type
  _atom_site_B_iso_or_equiv
  _atom_site_type_symbol
  O1       1.0000 0.28240  0.90950  0.94970  Biso   1.000  O
  Ag1      1.0000 0.30040  0.93458  0.01933  Biso   1.000  Ag
  N1       1.0000 0.24220  0.87310  0.07180  Biso   1.000  N
  O2       1.0000 0.34720  0.00420  0.06840  Biso   1.000  O
  C1       1.0000 0.26870  0.88740  0.11220  Biso   1.000  C
  C2       1.0000 0.19390  0.82630  0.06910  Biso   1.000  C
  C3       1.0000 0.24230  0.85750  0.14880  Biso   1.000  C
  H1       1.0000 0.30750  0.91950  0.11590  Biso   1.000  H
  C4       1.0000 0.16630  0.79620  0.10470  Biso   1.000  C
  H2       1.0000 0.17740  0.81270  0.04110  Biso   1.000  H
  N2       1.0000 0.18960  0.80990  0.14440  Biso   1.000  N
  H3       1.0000 0.26070  0.87010  0.17680  Biso   1.000  H
  H4       1.0000 0.12840  0.76380  0.10040  Biso   1.000  H
  Ag2      1.0000 0.14867  0.76627  0.21115  Biso   1.000  Ag
  O3       1.0000 0.07020  0.69530  0.18380  Biso   1.000  O
  O4       1.0000 0.22410  0.82660  0.25340  Biso   1.000  O
  C5       1.0000 0.02830  0.65860  0.20550  Biso   1.000  C
  C6       1.0000 0.20830  0.82970  0.29350  Biso   1.000  C
  O5       1.0000 0.01900  0.65810  0.24580  Biso   1.000  O
  C7       1.0000 0.98560  0.61270  0.17940  Biso   1.000  C
  O6       1.0000 0.15930  0.79710  0.31620  Biso   1.000  O
  C8       1.0000 0.25940  0.87910  0.31660  Biso   1.000  C
  Ag3      1.0000 0.08686  0.72192  0.28924  Biso   1.000  Ag
  C9       1.0000 0.92720  0.57140  0.19980  Biso   1.000  C
  C10      1.0000 0.99530  0.61070  0.13450  Biso   1.000  C
  C11      1.0000 0.31450  0.91360  0.29380  Biso   1.000  C
  C12      1.0000 0.24310  0.88600  0.36080  Biso   1.000  C
  N3       1.0000 0.04570  0.68310  0.35610  Biso   1.000  N
  H5       1.0000 0.91720  0.57180  0.23040  Biso   1.000  H
  C13      1.0000 0.88540  0.53060  0.17360  Biso   1.000  C
  H6       1.0000 0.03200  0.63840  0.12020  Biso   1.000  H
  C14      1.0000 0.95310  0.56940  0.11030  Biso   1.000  C
  C15      1.0000 0.36340  0.95750  0.31360  Biso   1.000  C
  H7       1.0000 0.32050  0.90820  0.26330  Biso   1.000  H
  H8       1.0000 0.20240  0.86140  0.37610  Biso   1.000  H
  C16      1.0000 0.28880  0.93080  0.38220  Biso   1.000  C
  Ag4      1.0000 0.97728  0.55544  0.48556  Biso   1.000  Ag
  C17      1.0000 0.98730  0.63970  0.35670  Biso   1.000  C
  C18      1.0000 0.08320  0.69840  0.39580  Biso   1.000  C
  C19      1.0000 0.89560  0.52930  0.13010  Biso   1.000  C
  H9       1.0000 0.84810  0.50250  0.18710  Biso   1.000  H
  C20      1.0000 0.96890  0.56630  0.06280  Biso   1.000  C
  H10      1.0000 0.40450  0.98110  0.29760  Biso   1.000  H
  C21      1.0000 0.34890  0.96520  0.35920  Biso   1.000  C
  C22      1.0000 0.27200  0.94140  0.42980  Biso   1.000  C
  O7       1.0000 0.99140  0.58400  0.55280  Biso   1.000  O
  H11      1.0000 0.96210  0.62690  0.32990  Biso   1.000  H
  C23      1.0000 0.96100  0.61190  0.39460  Biso   1.000  C
  H12      1.0000 0.12520  0.72930  0.39730  Biso   1.000  H
  C24      1.0000 0.06080  0.66970  0.43300  Biso   1.000  C
  H13      1.0000 0.86440  0.50170  0.11310  Biso   1.000  H
  O8       1.0000 0.92840  0.52930  0.03930  Biso   1.000  O
  O9       1.0000 0.02570  0.60280  0.04420  Biso   1.000  O
  H14      1.0000 0.38110  0.99460  0.37390  Biso   1.000  H
  O10      1.0000 0.31630  0.98350  0.44580  Biso   1.000  O
  C25      1.0000 0.03950  0.55100  0.57680  Biso   1.000  C
  N4       1.0000 0.00220  0.62570  0.43220  Biso   1.000  N
  H15      1.0000 0.91420  0.58350  0.39370  Biso   1.000  H
  H16      1.0000 0.08730  0.68130  0.45990  Biso   1.000  H
  Ag5      1.0000 0.99913  0.43976  0.02926  Biso   1.000  Ag
  Ag6      1.0000 0.25171  0.04849  0.49359  Biso   1.000  Ag
  O11      1.0000 0.07420  0.50630  0.56230  Biso   1.000  O
  C26      1.0000 0.04730  0.56350  0.62500  Biso   1.000  C
  N5       1.0000 0.98410  0.62680  0.91950  Biso   1.000  N
  C27      1.0000 0.09980  0.52830  0.65140  Biso   1.000  C
  C28      1.0000 0.00250  0.60860  0.64280  Biso   1.000  C
  C29      1.0000 0.93540  0.67400  0.92500  Biso   1.000  C
  C30      1.0000 0.00620  0.61310  0.87960  Biso   1.000  C
  C31      1.0000 0.10550  0.53730  0.69540  Biso   1.000  C
  H17      1.0000 0.13230  0.49750  0.63890  Biso   1.000  H
  H18      1.0000 0.96790  0.63330  0.62450  Biso   1.000  H
  C32      1.0000 0.00670  0.61890  0.68710  Biso   1.000  C
  C33      1.0000 0.90650  0.70660  0.88950  Biso   1.000  C
  H19      1.0000 0.91990  0.68580  0.95360  Biso   1.000  H
  C34      1.0000 0.98470  0.64750  0.84430  Biso   1.000  C
  H20      1.0000 0.03780  0.57860  0.87460  Biso   1.000  H
  H21      1.0000 0.14090  0.51240  0.71310  Biso   1.000  H
  C35      1.0000 0.06050  0.58190  0.71360  Biso   1.000  C
  C36      1.0000 0.95680  0.66920  0.70590  Biso   1.000  C
  N6       1.0000 0.93580  0.69330  0.84850  Biso   1.000  N
  H22      1.0000 0.86650  0.73790  0.89400  Biso   1.000  H
  H23      1.0000 0.00670  0.63710  0.81620  Biso   1.000  H
  H24      1.0000 0.06500  0.58830  0.74410  Biso   1.000  H
  O12      1.0000 0.91530  0.70030  0.67990  Biso   1.000  O
  O13      1.0000 0.96520  0.67650  0.74700  Biso   1.000  O
  Ag7      1.0000 0.88801  0.73915  0.78330  Biso   1.000  Ag
  Ag8      1.0000 0.84152  0.77754  0.70019  Biso   1.000  Ag
  O14      1.0000 0.81390  0.81150  0.80550  Biso   1.000  O
  O15      1.0000 0.77310  0.84450  0.73930  Biso   1.000  O
  N7       1.0000 0.79700  0.81600  0.63240  Biso   1.000  N
  C37      1.0000 0.77400  0.84660  0.78000  Biso   1.000  C
  C38      1.0000 0.82690  0.80050  0.59310  Biso   1.000  C
  C39      1.0000 0.74210  0.86370  0.63410  Biso   1.000  C
  C40      1.0000 0.72590  0.89690  0.80160  Biso   1.000  C
  H25      1.0000 0.86150  0.76660  0.59060  Biso   1.000  H
  C41      1.0000 0.81040  0.83090  0.55660  Biso   1.000  C
  H26      1.0000 0.71680  0.87640  0.66090  Biso   1.000  H
  C42      1.0000 0.72480  0.89230  0.59670  Biso   1.000  C
  C43      1.0000 0.73390  0.90260  0.84580  Biso   1.000  C
  C44      1.0000 0.67700  0.93400  0.77740  Biso   1.000  C
  N8       1.0000 0.75800  0.87730  0.55790  Biso   1.000  N
  H27      1.0000 0.83640  0.81900  0.52970  Biso   1.000  H
  H28      1.0000 0.68670  0.92490  0.59830  Biso   1.000  H
  H29      1.0000 0.76980  0.87630  0.86210  Biso   1.000  H
  C45      1.0000 0.68930  0.94710  0.86710  Biso   1.000  C
  H30      1.0000 0.67510  0.93030  0.74660  Biso   1.000  H
  C46      1.0000 0.62860  0.97830  0.79790  Biso   1.000  C
  C47      1.0000 0.69940  0.95690  0.91520  Biso   1.000  C
  C48      1.0000 0.63560  0.98400  0.84170  Biso   1.000  C
  H31      1.0000 0.59180  0.00370  0.78140  Biso   1.000  H
  O16      1.0000 0.75490  0.92010  0.43670  Biso   1.000  O
  H32      1.0000 0.60310  0.01390  0.85550  Biso   1.000  H
  O17      1.0000 0.21760  0.59050  0.94970  Biso   1.000  O
  Ag9      1.0000 0.19960  0.56542  0.01933  Biso   1.000  Ag
  N9       1.0000 0.25780  0.62690  0.07180  Biso   1.000  N
  O18      1.0000 0.15280  0.49580  0.06840  Biso   1.000  O
  C49      1.0000 0.23130  0.61260  0.11220  Biso   1.000  C
  C50      1.0000 0.30610  0.67370  0.06910  Biso   1.000  C
  C51      1.0000 0.25770  0.64250  0.14880  Biso   1.000  C
  H33      1.0000 0.19250  0.58050  0.11590  Biso   1.000  H
  C52      1.0000 0.33370  0.70380  0.10470  Biso   1.000  C
  H34      1.0000 0.32260  0.68730  0.04110  Biso   1.000  H
  N10      1.0000 0.31040  0.69010  0.14440  Biso   1.000  N
  H35      1.0000 0.23930  0.62990  0.17680  Biso   1.000  H
  H36      1.0000 0.37160  0.73620  0.10040  Biso   1.000  H
  Ag10     1.0000 0.35133  0.73373  0.21115  Biso   1.000  Ag
  O19      1.0000 0.42980  0.80470  0.18380  Biso   1.000  O
  O20      1.0000 0.27590  0.67340  0.25340  Biso   1.000  O
  C53      1.0000 0.47170  0.84140  0.20550  Biso   1.000  C
  C54      1.0000 0.29170  0.67030  0.29350  Biso   1.000  C
  O21      1.0000 0.48100  0.84190  0.24580  Biso   1.000  O
  C55      1.0000 0.51440  0.88730  0.17940  Biso   1.000  C
  O22      1.0000 0.34070  0.70290  0.31620  Biso   1.000  O
  C56      1.0000 0.24060  0.62090  0.31660  Biso   1.000  C
  Ag11     1.0000 0.41314  0.77808  0.28924  Biso   1.000  Ag
  C57      1.0000 0.57280  0.92860  0.19980  Biso   1.000  C
  C58      1.0000 0.50470  0.88930  0.13450  Biso   1.000  C
  C59      1.0000 0.18550  0.58640  0.29380  Biso   1.000  C
  C60      1.0000 0.25690  0.61400  0.36080  Biso   1.000  C
  N11      1.0000 0.45430  0.81690  0.35610  Biso   1.000  N
  H37      1.0000 0.58280  0.92820  0.23040  Biso   1.000  H
  C61      1.0000 0.61460  0.96940  0.17360  Biso   1.000  C
  H38      1.0000 0.46800  0.86160  0.12020  Biso   1.000  H
  C62      1.0000 0.54690  0.93060  0.11030  Biso   1.000  C
  C63      1.0000 0.13660  0.54250  0.31360  Biso   1.000  C
  H39      1.0000 0.17950  0.59180  0.26330  Biso   1.000  H
  H40      1.0000 0.29760  0.63860  0.37610  Biso   1.000  H
  C64      1.0000 0.21120  0.56920  0.38220  Biso   1.000  C
  Ag12     1.0000 0.52272  0.94456  0.48556  Biso   1.000  Ag
  C65      1.0000 0.51270  0.86030  0.35670  Biso   1.000  C
  C66      1.0000 0.41680  0.80160  0.39580  Biso   1.000  C
  C67      1.0000 0.60440  0.97070  0.13010  Biso   1.000  C
  H41      1.0000 0.65190  0.99750  0.18710  Biso   1.000  H
  C68      1.0000 0.53110  0.93370  0.06280  Biso   1.000  C
  H42      1.0000 0.09550  0.51890  0.29760  Biso   1.000  H
  C69      1.0000 0.15110  0.53480  0.35920  Biso   1.000  C
  C70      1.0000 0.22800  0.55860  0.42980  Biso   1.000  C
  O23      1.0000 0.50860  0.91600  0.55280  Biso   1.000  O
  H43      1.0000 0.53790  0.87310  0.32990  Biso   1.000  H
  C71      1.0000 0.53900  0.88810  0.39460  Biso   1.000  C
  H44      1.0000 0.37480  0.77070  0.39730  Biso   1.000  H
  C72      1.0000 0.43920  0.83030  0.43300  Biso   1.000  C
  H45      1.0000 0.63560  0.99830  0.11310  Biso   1.000  H
  O24      1.0000 0.57160  0.97070  0.03930  Biso   1.000  O
  O25      1.0000 0.47430  0.89720  0.04420  Biso   1.000  O
  H46      1.0000 0.11890  0.50540  0.37390  Biso   1.000  H
  O26      1.0000 0.18370  0.51650  0.44580  Biso   1.000  O
  C73      1.0000 0.46050  0.94900  0.57680  Biso   1.000  C
  N12      1.0000 0.49780  0.87430  0.43220  Biso   1.000  N
  H47      1.0000 0.58580  0.91650  0.39370  Biso   1.000  H
  H48      1.0000 0.41270  0.81870  0.45990  Biso   1.000  H
  Ag13     1.0000 0.50087  0.06024  0.02926  Biso   1.000  Ag
  Ag14     1.0000 0.24829  0.45151  0.49359  Biso   1.000  Ag
  O27      1.0000 0.42580  0.99370  0.56230  Biso   1.000  O
  C74      1.0000 0.45270  0.93650  0.62500  Biso   1.000  C
  N13      1.0000 0.51590  0.87320  0.91950  Biso   1.000  N
  C75      1.0000 0.40020  0.97170  0.65140  Biso   1.000  C
  C76      1.0000 0.49750  0.89140  0.64280  Biso   1.000  C
  C77      1.0000 0.56460  0.82600  0.92500  Biso   1.000  C
  C78      1.0000 0.49380  0.88690  0.87960  Biso   1.000  C
  C79      1.0000 0.39450  0.96270  0.69540  Biso   1.000  C
  H49      1.0000 0.36770  0.00250  0.63890  Biso   1.000  H
  H50      1.0000 0.53210  0.86670  0.62450  Biso   1.000  H
  C80      1.0000 0.49330  0.88110  0.68710  Biso   1.000  C
  C81      1.0000 0.59350  0.79340  0.88950  Biso   1.000  C
  H51      1.0000 0.58010  0.81420  0.95360  Biso   1.000  H
  C82      1.0000 0.51530  0.85250  0.84430  Biso   1.000  C
  H52      1.0000 0.46220  0.92140  0.87460  Biso   1.000  H
  H53      1.0000 0.35910  0.98760  0.71310  Biso   1.000  H
  C83      1.0000 0.43950  0.91810  0.71360  Biso   1.000  C
  C84      1.0000 0.54320  0.83080  0.70590  Biso   1.000  C
  N14      1.0000 0.56420  0.80670  0.84850  Biso   1.000  N
  H54      1.0000 0.63350  0.76210  0.89400  Biso   1.000  H
  H55      1.0000 0.49330  0.86290  0.81620  Biso   1.000  H
  H56      1.0000 0.43500  0.91170  0.74410  Biso   1.000  H
  O28      1.0000 0.58470  0.79970  0.67990  Biso   1.000  O
  O29      1.0000 0.53480  0.82350  0.74700  Biso   1.000  O
  Ag15     1.0000 0.61199  0.76085  0.78330  Biso   1.000  Ag
  Ag16     1.0000 0.65848  0.72246  0.70019  Biso   1.000  Ag
  O30      1.0000 0.68610  0.68850  0.80550  Biso   1.000  O
  O31      1.0000 0.72690  0.65550  0.73930  Biso   1.000  O
  N15      1.0000 0.70300  0.68400  0.63240  Biso   1.000  N
  C85      1.0000 0.72600  0.65340  0.78000  Biso   1.000  C
  C86      1.0000 0.67310  0.69950  0.59310  Biso   1.000  C
  C87      1.0000 0.75790  0.63630  0.63410  Biso   1.000  C
  C88      1.0000 0.77410  0.60310  0.80160  Biso   1.000  C
  H57      1.0000 0.63850  0.73340  0.59060  Biso   1.000  H
  C89      1.0000 0.68960  0.66910  0.55660  Biso   1.000  C
  H58      1.0000 0.78320  0.62360  0.66090  Biso   1.000  H
  C90      1.0000 0.77520  0.60770  0.59670  Biso   1.000  C
  C91      1.0000 0.76610  0.59740  0.84580  Biso   1.000  C
  C92      1.0000 0.82300  0.56600  0.77740  Biso   1.000  C
  N16      1.0000 0.74200  0.62270  0.55790  Biso   1.000  N
  H59      1.0000 0.66360  0.68100  0.52970  Biso   1.000  H
  H60      1.0000 0.81330  0.57510  0.59830  Biso   1.000  H
  H61      1.0000 0.73020  0.62370  0.86210  Biso   1.000  H
  C93      1.0000 0.81070  0.55290  0.86710  Biso   1.000  C
  H62      1.0000 0.82490  0.56970  0.74660  Biso   1.000  H
  C94      1.0000 0.87140  0.52170  0.79790  Biso   1.000  C
  C95      1.0000 0.80060  0.54310  0.91520  Biso   1.000  C
  C96      1.0000 0.86440  0.51600  0.84170  Biso   1.000  C
  H63      1.0000 0.90820  0.49630  0.78140  Biso   1.000  H
  O32      1.0000 0.74510  0.57990  0.43670  Biso   1.000  O
  H64      1.0000 0.89690  0.48610  0.85550  Biso   1.000  H
  O33      1.0000 0.71760  0.40950  0.55030  Biso   1.000  O
  Ag17     1.0000 0.69960  0.43458  0.48067  Biso   1.000  Ag
  N17      1.0000 0.75780  0.37310  0.42820  Biso   1.000  N
  O34      1.0000 0.65280  0.50420  0.43160  Biso   1.000  O
  C97      1.0000 0.73130  0.38740  0.38780  Biso   1.000  C
  C98      1.0000 0.80610  0.32630  0.43090  Biso   1.000  C
  C99      1.0000 0.75770  0.35750  0.35120  Biso   1.000  C
  H65      1.0000 0.69250  0.41950  0.38410  Biso   1.000  H
  C100     1.0000 0.83370  0.29620  0.39530  Biso   1.000  C
  H66      1.0000 0.82260  0.31270  0.45890  Biso   1.000  H
  N18      1.0000 0.81040  0.30990  0.35560  Biso   1.000  N
  H67      1.0000 0.73930  0.37010  0.32320  Biso   1.000  H
  H68      1.0000 0.87160  0.26380  0.39960  Biso   1.000  H
  Ag18     1.0000 0.85133  0.26627  0.28885  Biso   1.000  Ag
  O35      1.0000 0.92980  0.19530  0.31620  Biso   1.000  O
  O36      1.0000 0.77590  0.32660  0.24660  Biso   1.000  O
  C101     1.0000 0.97170  0.15860  0.29450  Biso   1.000  C
  C102     1.0000 0.79170  0.32970  0.20650  Biso   1.000  C
  O37      1.0000 0.98100  0.15810  0.25420  Biso   1.000  O
  C103     1.0000 0.01440  0.11270  0.32060  Biso   1.000  C
  O38      1.0000 0.84070  0.29710  0.18380  Biso   1.000  O
  C104     1.0000 0.74060  0.37910  0.18340  Biso   1.000  C
  Ag19     1.0000 0.91314  0.22192  0.21076  Biso   1.000  Ag
  C105     1.0000 0.07280  0.07140  0.30020  Biso   1.000  C
  C106     1.0000 0.00470  0.11070  0.36550  Biso   1.000  C
  C107     1.0000 0.68550  0.41360  0.20620  Biso   1.000  C
  C108     1.0000 0.75690  0.38600  0.13920  Biso   1.000  C
  N19      1.0000 0.95430  0.18310  0.14390  Biso   1.000  N
  H69      1.0000 0.08280  0.07180  0.26960  Biso   1.000  H
  C109     1.0000 0.11460  0.03060  0.32640  Biso   1.000  C
  H70      1.0000 0.96800  0.13840  0.37980  Biso   1.000  H
  C110     1.0000 0.04690  0.06940  0.38970  Biso   1.000  C
  C111     1.0000 0.63660  0.45750  0.18640  Biso   1.000  C
  H71      1.0000 0.67950  0.40820  0.23670  Biso   1.000  H
  H72      1.0000 0.79760  0.36140  0.12390  Biso   1.000  H
  C112     1.0000 0.71120  0.43080  0.11780  Biso   1.000  C
  Ag20     1.0000 0.02272  0.05544  0.01444  Biso   1.000  Ag
  C113     1.0000 0.01270  0.13970  0.14330  Biso   1.000  C
  C114     1.0000 0.91680  0.19840  0.10420  Biso   1.000  C
  C115     1.0000 0.10440  0.02930  0.36990  Biso   1.000  C
  H73      1.0000 0.15190  0.00250  0.31290  Biso   1.000  H
  C116     1.0000 0.03110  0.06630  0.43720  Biso   1.000  C
  H74      1.0000 0.59550  0.48110  0.20240  Biso   1.000  H
  C117     1.0000 0.65110  0.46520  0.14080  Biso   1.000  C
  C118     1.0000 0.72800  0.44140  0.07020  Biso   1.000  C
  O39      1.0000 0.00860  0.08400  0.94720  Biso   1.000  O
  H75      1.0000 0.03790  0.12690  0.17010  Biso   1.000  H
  C119     1.0000 0.03900  0.11190  0.10540  Biso   1.000  C
  H76      1.0000 0.87480  0.22930  0.10270  Biso   1.000  H
  C120     1.0000 0.93920  0.16970  0.06700  Biso   1.000  C
  H77      1.0000 0.13560  0.00170  0.38690  Biso   1.000  H
  O40      1.0000 0.07160  0.02930  0.46070  Biso   1.000  O
  O41      1.0000 0.97430  0.10280  0.45580  Biso   1.000  O
  H78      1.0000 0.61890  0.49460  0.12610  Biso   1.000  H
  O42      1.0000 0.68370  0.48350  0.05420  Biso   1.000  O
  C121     1.0000 0.96050  0.05100  0.92320  Biso   1.000  C
  N20      1.0000 0.99780  0.12570  0.06780  Biso   1.000  N
  H79      1.0000 0.08580  0.08350  0.10630  Biso   1.000  H
  H80      1.0000 0.91270  0.18130  0.04010  Biso   1.000  H
  Ag21     1.0000 0.00087  0.93976  0.47074  Biso   1.000  Ag
  Ag22     1.0000 0.74829  0.54849  0.00641  Biso   1.000  Ag
  O43      1.0000 0.92580  0.00630  0.93770  Biso   1.000  O
  C122     1.0000 0.95270  0.06350  0.87500  Biso   1.000  C
  N21      1.0000 0.01590  0.12680  0.58050  Biso   1.000  N
  C123     1.0000 0.90020  0.02830  0.84860  Biso   1.000  C
  C124     1.0000 0.99750  0.10860  0.85720  Biso   1.000  C
  C125     1.0000 0.06460  0.17400  0.57500  Biso   1.000  C
  C126     1.0000 0.99380  0.11310  0.62040  Biso   1.000  C
  C127     1.0000 0.89450  0.03730  0.80460  Biso   1.000  C
  H81      1.0000 0.86770  0.99750  0.86110  Biso   1.000  H
  H82      1.0000 0.03210  0.13330  0.87550  Biso   1.000  H
  C128     1.0000 0.99330  0.11890  0.81290  Biso   1.000  C
  C129     1.0000 0.09350  0.20660  0.61050  Biso   1.000  C
  H83      1.0000 0.08010  0.18580  0.54640  Biso   1.000  H
  C130     1.0000 0.01530  0.14750  0.65570  Biso   1.000  C
  H84      1.0000 0.96220  0.07860  0.62540  Biso   1.000  H
  H85      1.0000 0.85910  0.01240  0.78690  Biso   1.000  H
  C131     1.0000 0.93950  0.08190  0.78640  Biso   1.000  C
  C132     1.0000 0.04320  0.16920  0.79410  Biso   1.000  C
  N22      1.0000 0.06420  0.19330  0.65150  Biso   1.000  N
  H86      1.0000 0.13350  0.23790  0.60600  Biso   1.000  H
  H87      1.0000 0.99330  0.13710  0.68380  Biso   1.000  H
  H88      1.0000 0.93500  0.08830  0.75590  Biso   1.000  H
  O44      1.0000 0.08470  0.20030  0.82010  Biso   1.000  O
  O45      1.0000 0.03480  0.17650  0.75300  Biso   1.000  O
  Ag23     1.0000 0.11199  0.23915  0.71670  Biso   1.000  Ag
  Ag24     1.0000 0.15848  0.27754  0.79981  Biso   1.000  Ag
  O46      1.0000 0.18610  0.31150  0.69450  Biso   1.000  O
  O47      1.0000 0.22690  0.34450  0.76070  Biso   1.000  O
  N23      1.0000 0.20300  0.31600  0.86760  Biso   1.000  N
  C133     1.0000 0.22600  0.34660  0.72000  Biso   1.000  C
  C134     1.0000 0.17310  0.30050  0.90690  Biso   1.000  C
  C135     1.0000 0.25790  0.36370  0.86590  Biso   1.000  C
  C136     1.0000 0.27410  0.39690  0.69840  Biso   1.000  C
  H89      1.0000 0.13850  0.26660  0.90940  Biso   1.000  H
  C137     1.0000 0.18960  0.33090  0.94340  Biso   1.000  C
  H90      1.0000 0.28320  0.37640  0.83910  Biso   1.000  H
  C138     1.0000 0.27520  0.39230  0.90330  Biso   1.000  C
  C139     1.0000 0.26610  0.40260  0.65420  Biso   1.000  C
  C140     1.0000 0.32300  0.43400  0.72260  Biso   1.000  C
  N24      1.0000 0.24200  0.37730  0.94210  Biso   1.000  N
  H91      1.0000 0.16360  0.31900  0.97030  Biso   1.000  H
  H92      1.0000 0.31330  0.42490  0.90170  Biso   1.000  H
  H93      1.0000 0.23020  0.37630  0.63790  Biso   1.000  H
  C141     1.0000 0.31070  0.44710  0.63290  Biso   1.000  C
  H94      1.0000 0.32490  0.43030  0.75340  Biso   1.000  H
  C142     1.0000 0.37140  0.47830  0.70210  Biso   1.000  C
  C143     1.0000 0.30060  0.45690  0.58480  Biso   1.000  C
  C144     1.0000 0.36440  0.48400  0.65830  Biso   1.000  C
  H95      1.0000 0.40820  0.50370  0.71860  Biso   1.000  H
  O48      1.0000 0.24510  0.42010  0.06330  Biso   1.000  O
  H96      1.0000 0.39690  0.51390  0.64450  Biso   1.000  H
  O49      1.0000 0.78240  0.09050  0.55030  Biso   1.000  O
  Ag25     1.0000 0.80040  0.06542  0.48067  Biso   1.000  Ag
  N25      1.0000 0.74220  0.12690  0.42820  Biso   1.000  N
  O50      1.0000 0.84720  0.99580  0.43160  Biso   1.000  O
  C145     1.0000 0.76870  0.11260  0.38780  Biso   1.000  C
  C146     1.0000 0.69390  0.17370  0.43090  Biso   1.000  C
  C147     1.0000 0.74230  0.14250  0.35120  Biso   1.000  C
  H97      1.0000 0.80750  0.08050  0.38410  Biso   1.000  H
  C148     1.0000 0.66630  0.20380  0.39530  Biso   1.000  C
  H98      1.0000 0.67740  0.18730  0.45890  Biso   1.000  H
  N26      1.0000 0.68960  0.19010  0.35560  Biso   1.000  N
  H99      1.0000 0.76070  0.12990  0.32320  Biso   1.000  H
  H100     1.0000 0.62840  0.23620  0.39960  Biso   1.000  H
  Ag26     1.0000 0.64867  0.23373  0.28885  Biso   1.000  Ag
  O51      1.0000 0.57020  0.30470  0.31620  Biso   1.000  O
  O52      1.0000 0.72410  0.17340  0.24660  Biso   1.000  O
  C149     1.0000 0.52830  0.34140  0.29450  Biso   1.000  C
  C150     1.0000 0.70830  0.17030  0.20650  Biso   1.000  C
  O53      1.0000 0.51900  0.34190  0.25420  Biso   1.000  O
  C151     1.0000 0.48560  0.38730  0.32060  Biso   1.000  C
  O54      1.0000 0.65930  0.20290  0.18380  Biso   1.000  O
  C152     1.0000 0.75940  0.12090  0.18340  Biso   1.000  C
  Ag27     1.0000 0.58686  0.27808  0.21076  Biso   1.000  Ag
  C153     1.0000 0.42720  0.42860  0.30020  Biso   1.000  C
  C154     1.0000 0.49530  0.38930  0.36550  Biso   1.000  C
  C155     1.0000 0.81450  0.08640  0.20620  Biso   1.000  C
  C156     1.0000 0.74310  0.11400  0.13920  Biso   1.000  C
  N27      1.0000 0.54570  0.31690  0.14390  Biso   1.000  N
  H101     1.0000 0.41720  0.42820  0.26960  Biso   1.000  H
  C157     1.0000 0.38540  0.46940  0.32640  Biso   1.000  C
  H102     1.0000 0.53200  0.36160  0.37980  Biso   1.000  H
  C158     1.0000 0.45310  0.43060  0.38970  Biso   1.000  C
  C159     1.0000 0.86340  0.04250  0.18640  Biso   1.000  C
  H103     1.0000 0.82050  0.09180  0.23670  Biso   1.000  H
  H104     1.0000 0.70240  0.13860  0.12390  Biso   1.000  H
  C160     1.0000 0.78880  0.06920  0.11780  Biso   1.000  C
  Ag28     1.0000 0.47728  0.44456  0.01444  Biso   1.000  Ag
  C161     1.0000 0.48730  0.36030  0.14330  Biso   1.000  C
  C162     1.0000 0.58320  0.30160  0.10420  Biso   1.000  C
  C163     1.0000 0.39560  0.47070  0.36990  Biso   1.000  C
  H105     1.0000 0.34810  0.49750  0.31290  Biso   1.000  H
  C164     1.0000 0.46890  0.43370  0.43720  Biso   1.000  C
  H106     1.0000 0.90450  0.01890  0.20240  Biso   1.000  H
  C165     1.0000 0.84890  0.03480  0.14080  Biso   1.000  C
  C166     1.0000 0.77200  0.05860  0.07020  Biso   1.000  C
  O55      1.0000 0.49140  0.41600  0.94720  Biso   1.000  O
  H107     1.0000 0.46210  0.37310  0.17010  Biso   1.000  H
  C167     1.0000 0.46100  0.38810  0.10540  Biso   1.000  C
  H108     1.0000 0.62520  0.27070  0.10270  Biso   1.000  H
  C168     1.0000 0.56080  0.33030  0.06700  Biso   1.000  C
  H109     1.0000 0.36440  0.49830  0.38690  Biso   1.000  H
  O56      1.0000 0.42840  0.47070  0.46070  Biso   1.000  O
  O57      1.0000 0.52570  0.39720  0.45580  Biso   1.000  O
  H110     1.0000 0.88110  0.00540  0.12610  Biso   1.000  H
  O58      1.0000 0.81630  0.01650  0.05420  Biso   1.000  O
  C169     1.0000 0.53950  0.44900  0.92320  Biso   1.000  C
  N28      1.0000 0.50220  0.37430  0.06780  Biso   1.000  N
  H111     1.0000 0.41420  0.41650  0.10630  Biso   1.000  H
  H112     1.0000 0.58730  0.31870  0.04010  Biso   1.000  H
  Ag29     1.0000 0.49913  0.56024  0.47074  Biso   1.000  Ag
  Ag30     1.0000 0.75171  0.95151  0.00641  Biso   1.000  Ag
  O59      1.0000 0.57420  0.49370  0.93770  Biso   1.000  O
  C170     1.0000 0.54730  0.43650  0.87500  Biso   1.000  C
  N29      1.0000 0.48410  0.37320  0.58050  Biso   1.000  N
  C171     1.0000 0.59980  0.47170  0.84860  Biso   1.000  C
  C172     1.0000 0.50250  0.39140  0.85720  Biso   1.000  C
  C173     1.0000 0.43540  0.32600  0.57500  Biso   1.000  C
  C174     1.0000 0.50620  0.38690  0.62040  Biso   1.000  C
  C175     1.0000 0.60550  0.46270  0.80460  Biso   1.000  C
  H113     1.0000 0.63230  0.50250  0.86110  Biso   1.000  H
  H114     1.0000 0.46790  0.36670  0.87550  Biso   1.000  H
  C176     1.0000 0.50670  0.38110  0.81290  Biso   1.000  C
  C177     1.0000 0.40650  0.29340  0.61050  Biso   1.000  C
  H115     1.0000 0.41990  0.31420  0.54640  Biso   1.000  H
  C178     1.0000 0.48470  0.35250  0.65570  Biso   1.000  C
  H116     1.0000 0.53780  0.42140  0.62540  Biso   1.000  H
  H117     1.0000 0.64090  0.48760  0.78690  Biso   1.000  H
  C179     1.0000 0.56050  0.41810  0.78640  Biso   1.000  C
  C180     1.0000 0.45680  0.33080  0.79410  Biso   1.000  C
  N30      1.0000 0.43580  0.30670  0.65150  Biso   1.000  N
  H118     1.0000 0.36650  0.26210  0.60600  Biso   1.000  H
  H119     1.0000 0.50670  0.36290  0.68380  Biso   1.000  H
  H120     1.0000 0.56500  0.41170  0.75590  Biso   1.000  H
  O60      1.0000 0.41530  0.29970  0.82010  Biso   1.000  O
  O61      1.0000 0.46520  0.32350  0.75300  Biso   1.000  O
  Ag31     1.0000 0.38801  0.26085  0.71670  Biso   1.000  Ag
  Ag32     1.0000 0.34152  0.22246  0.79981  Biso   1.000  Ag
  O62      1.0000 0.31390  0.18850  0.69450  Biso   1.000  O
  O63      1.0000 0.27310  0.15550  0.76070  Biso   1.000  O
  N31      1.0000 0.29700  0.18400  0.86760  Biso   1.000  N
  C181     1.0000 0.27400  0.15340  0.72000  Biso   1.000  C
  C182     1.0000 0.32690  0.19950  0.90690  Biso   1.000  C
  C183     1.0000 0.24210  0.13630  0.86590  Biso   1.000  C
  C184     1.0000 0.22590  0.10310  0.69840  Biso   1.000  C
  H121     1.0000 0.36150  0.23340  0.90940  Biso   1.000  H
  C185     1.0000 0.31040  0.16910  0.94340  Biso   1.000  C
  H122     1.0000 0.21680  0.12360  0.83910  Biso   1.000  H
  C186     1.0000 0.22480  0.10770  0.90330  Biso   1.000  C
  C187     1.0000 0.23390  0.09740  0.65420  Biso   1.000  C
  C188     1.0000 0.17700  0.06600  0.72260  Biso   1.000  C
  N32      1.0000 0.25800  0.12270  0.94210  Biso   1.000  N
  H123     1.0000 0.33640  0.18100  0.97030  Biso   1.000  H
  H124     1.0000 0.18670  0.07510  0.90170  Biso   1.000  H
  H125     1.0000 0.26980  0.12370  0.63790  Biso   1.000  H
  C189     1.0000 0.18930  0.05290  0.63290  Biso   1.000  C
  H126     1.0000 0.17510  0.06970  0.75340  Biso   1.000  H
  C190     1.0000 0.12860  0.02170  0.70210  Biso   1.000  C
  C191     1.0000 0.19940  0.04310  0.58480  Biso   1.000  C
  C192     1.0000 0.13560  0.01600  0.65830  Biso   1.000  C
  H127     1.0000 0.09180  0.99630  0.71860  Biso   1.000  H
  O64      1.0000 0.25490  0.07990  0.06330  Biso   1.000  O
  H128     1.0000 0.10310  0.98610  0.64450  Biso   1.000  H
  O65      1.0000 0.71760  0.09050  0.05030  Biso   1.000  O
  Ag33     1.0000 0.69960  0.06542  0.98067  Biso   1.000  Ag
  N33      1.0000 0.75780  0.12690  0.92820  Biso   1.000  N
  O66      1.0000 0.65280  0.99580  0.93160  Biso   1.000  O
  C193     1.0000 0.73130  0.11260  0.88780  Biso   1.000  C
  C194     1.0000 0.80610  0.17370  0.93090  Biso   1.000  C
  C195     1.0000 0.75770  0.14250  0.85120  Biso   1.000  C
  H129     1.0000 0.69250  0.08050  0.88410  Biso   1.000  H
  C196     1.0000 0.83370  0.20380  0.89530  Biso   1.000  C
  H130     1.0000 0.82260  0.18730  0.95890  Biso   1.000  H
  N34      1.0000 0.81040  0.19010  0.85560  Biso   1.000  N
  H131     1.0000 0.73930  0.12990  0.82320  Biso   1.000  H
  H132     1.0000 0.87160  0.23620  0.89960  Biso   1.000  H
  Ag34     1.0000 0.85133  0.23373  0.78885  Biso   1.000  Ag
  O67      1.0000 0.92980  0.30470  0.81620  Biso   1.000  O
  O68      1.0000 0.77590  0.17340  0.74660  Biso   1.000  O
  C197     1.0000 0.97170  0.34140  0.79450  Biso   1.000  C
  C198     1.0000 0.79170  0.17030  0.70650  Biso   1.000  C
  O69      1.0000 0.98100  0.34190  0.75420  Biso   1.000  O
  C199     1.0000 0.01440  0.38730  0.82060  Biso   1.000  C
  O70      1.0000 0.84070  0.20290  0.68380  Biso   1.000  O
  C200     1.0000 0.74060  0.12090  0.68340  Biso   1.000  C
  Ag35     1.0000 0.91314  0.27808  0.71076  Biso   1.000  Ag
  C201     1.0000 0.07280  0.42860  0.80020  Biso   1.000  C
  C202     1.0000 0.00470  0.38930  0.86550  Biso   1.000  C
  C203     1.0000 0.68550  0.08640  0.70620  Biso   1.000  C
  C204     1.0000 0.75690  0.11400  0.63920  Biso   1.000  C
  N35      1.0000 0.95430  0.31690  0.64390  Biso   1.000  N
  H133     1.0000 0.08280  0.42820  0.76960  Biso   1.000  H
  C205     1.0000 0.11460  0.46940  0.82640  Biso   1.000  C
  H134     1.0000 0.96800  0.36160  0.87980  Biso   1.000  H
  C206     1.0000 0.04690  0.43060  0.88970  Biso   1.000  C
  C207     1.0000 0.63660  0.04250  0.68640  Biso   1.000  C
  H135     1.0000 0.67950  0.09180  0.73670  Biso   1.000  H
  H136     1.0000 0.79760  0.13860  0.62390  Biso   1.000  H
  C208     1.0000 0.71120  0.06920  0.61780  Biso   1.000  C
  Ag36     1.0000 0.02272  0.44456  0.51444  Biso   1.000  Ag
  C209     1.0000 0.01270  0.36030  0.64330  Biso   1.000  C
  C210     1.0000 0.91680  0.30160  0.60420  Biso   1.000  C
  C211     1.0000 0.10440  0.47070  0.86990  Biso   1.000  C
  H137     1.0000 0.15190  0.49750  0.81290  Biso   1.000  H
  C212     1.0000 0.03110  0.43370  0.93720  Biso   1.000  C
  H138     1.0000 0.59550  0.01890  0.70240  Biso   1.000  H
  C213     1.0000 0.65110  0.03480  0.64080  Biso   1.000  C
  C214     1.0000 0.72800  0.05860  0.57020  Biso   1.000  C
  O71      1.0000 0.00860  0.41600  0.44720  Biso   1.000  O
  H139     1.0000 0.03790  0.37310  0.67010  Biso   1.000  H
  C215     1.0000 0.03900  0.38810  0.60540  Biso   1.000  C
  H140     1.0000 0.87480  0.27070  0.60270  Biso   1.000  H
  C216     1.0000 0.93920  0.33030  0.56700  Biso   1.000  C
  H141     1.0000 0.13560  0.49830  0.88690  Biso   1.000  H
  O72      1.0000 0.07160  0.47070  0.96070  Biso   1.000  O
  O73      1.0000 0.97430  0.39720  0.95580  Biso   1.000  O
  H142     1.0000 0.61890  0.00540  0.62610  Biso   1.000  H
  O74      1.0000 0.68370  0.01650  0.55420  Biso   1.000  O
  C217     1.0000 0.96050  0.44900  0.42320  Biso   1.000  C
  N36      1.0000 0.99780  0.37430  0.56780  Biso   1.000  N
  H143     1.0000 0.08580  0.41650  0.60630  Biso   1.000  H
  H144     1.0000 0.91270  0.31870  0.54010  Biso   1.000  H
  Ag37     1.0000 0.00087  0.56024  0.97074  Biso   1.000  Ag
  Ag38     1.0000 0.74829  0.95151  0.50641  Biso   1.000  Ag
  O75      1.0000 0.92580  0.49370  0.43770  Biso   1.000  O
  C218     1.0000 0.95270  0.43650  0.37500  Biso   1.000  C
  N37      1.0000 0.01590  0.37320  0.08050  Biso   1.000  N
  C219     1.0000 0.90020  0.47170  0.34860  Biso   1.000  C
  C220     1.0000 0.99750  0.39140  0.35720  Biso   1.000  C
  C221     1.0000 0.06460  0.32600  0.07500  Biso   1.000  C
  C222     1.0000 0.99380  0.38690  0.12040  Biso   1.000  C
  C223     1.0000 0.89450  0.46270  0.30460  Biso   1.000  C
  H145     1.0000 0.86770  0.50250  0.36110  Biso   1.000  H
  H146     1.0000 0.03210  0.36670  0.37550  Biso   1.000  H
  C224     1.0000 0.99330  0.38110  0.31290  Biso   1.000  C
  C225     1.0000 0.09350  0.29340  0.11050  Biso   1.000  C
  H147     1.0000 0.08010  0.31420  0.04640  Biso   1.000  H
  C226     1.0000 0.01530  0.35250  0.15570  Biso   1.000  C
  H148     1.0000 0.96220  0.42140  0.12540  Biso   1.000  H
  H149     1.0000 0.85910  0.48760  0.28690  Biso   1.000  H
  C227     1.0000 0.93950  0.41810  0.28640  Biso   1.000  C
  C228     1.0000 0.04320  0.33080  0.29410  Biso   1.000  C
  N38      1.0000 0.06420  0.30670  0.15150  Biso   1.000  N
  H150     1.0000 0.13350  0.26210  0.10600  Biso   1.000  H
  H151     1.0000 0.99330  0.36290  0.18380  Biso   1.000  H
  H152     1.0000 0.93500  0.41170  0.25590  Biso   1.000  H
  O76      1.0000 0.08470  0.29970  0.32010  Biso   1.000  O
  O77      1.0000 0.03480  0.32350  0.25300  Biso   1.000  O
  Ag39     1.0000 0.11199  0.26085  0.21670  Biso   1.000  Ag
  Ag40     1.0000 0.15848  0.22246  0.29981  Biso   1.000  Ag
  O78      1.0000 0.18610  0.18850  0.19450  Biso   1.000  O
  O79      1.0000 0.22690  0.15550  0.26070  Biso   1.000  O
  N39      1.0000 0.20300  0.18400  0.36760  Biso   1.000  N
  C229     1.0000 0.22600  0.15340  0.22000  Biso   1.000  C
  C230     1.0000 0.17310  0.19950  0.40690  Biso   1.000  C
  C231     1.0000 0.25790  0.13630  0.36590  Biso   1.000  C
  C232     1.0000 0.27410  0.10310  0.19840  Biso   1.000  C
  H153     1.0000 0.13850  0.23340  0.40940  Biso   1.000  H
  C233     1.0000 0.18960  0.16910  0.44340  Biso   1.000  C
  H154     1.0000 0.28320  0.12360  0.33910  Biso   1.000  H
  C234     1.0000 0.27520  0.10770  0.40330  Biso   1.000  C
  C235     1.0000 0.26610  0.09740  0.15420  Biso   1.000  C
  C236     1.0000 0.32300  0.06600  0.22260  Biso   1.000  C
  N40      1.0000 0.24200  0.12270  0.44210  Biso   1.000  N
  H155     1.0000 0.16360  0.18100  0.47030  Biso   1.000  H
  H156     1.0000 0.31330  0.07510  0.40170  Biso   1.000  H
  H157     1.0000 0.23020  0.12370  0.13790  Biso   1.000  H
  C237     1.0000 0.31070  0.05290  0.13290  Biso   1.000  C
  H158     1.0000 0.32490  0.06970  0.25340  Biso   1.000  H
  C238     1.0000 0.37140  0.02170  0.20210  Biso   1.000  C
  C239     1.0000 0.30060  0.04310  0.08480  Biso   1.000  C
  C240     1.0000 0.36440  0.01600  0.15830  Biso   1.000  C
  H159     1.0000 0.40820  0.99630  0.21860  Biso   1.000  H
  O80      1.0000 0.24510  0.07990  0.56330  Biso   1.000  O
  H160     1.0000 0.39690  0.98610  0.14450  Biso   1.000  H
  O81      1.0000 0.78240  0.40950  0.05030  Biso   1.000  O
  Ag41     1.0000 0.80040  0.43458  0.98067  Biso   1.000  Ag
  N41      1.0000 0.74220  0.37310  0.92820  Biso   1.000  N
  O82      1.0000 0.84720  0.50420  0.93160  Biso   1.000  O
  C241     1.0000 0.76870  0.38740  0.88780  Biso   1.000  C
  C242     1.0000 0.69390  0.32630  0.93090  Biso   1.000  C
  C243     1.0000 0.74230  0.35750  0.85120  Biso   1.000  C
  H161     1.0000 0.80750  0.41950  0.88410  Biso   1.000  H
  C244     1.0000 0.66630  0.29620  0.89530  Biso   1.000  C
  H162     1.0000 0.67740  0.31270  0.95890  Biso   1.000  H
  N42      1.0000 0.68960  0.30990  0.85560  Biso   1.000  N
  H163     1.0000 0.76070  0.37010  0.82320  Biso   1.000  H
  H164     1.0000 0.62840  0.26380  0.89960  Biso   1.000  H
  Ag42     1.0000 0.64867  0.26627  0.78885  Biso   1.000  Ag
  O83      1.0000 0.57020  0.19530  0.81620  Biso   1.000  O
  O84      1.0000 0.72410  0.32660  0.74660  Biso   1.000  O
  C245     1.0000 0.52830  0.15860  0.79450  Biso   1.000  C
  C246     1.0000 0.70830  0.32970  0.70650  Biso   1.000  C
  O85      1.0000 0.51900  0.15810  0.75420  Biso   1.000  O
  C247     1.0000 0.48560  0.11270  0.82060  Biso   1.000  C
  O86      1.0000 0.65930  0.29710  0.68380  Biso   1.000  O
  C248     1.0000 0.75940  0.37910  0.68340  Biso   1.000  C
  Ag43     1.0000 0.58686  0.22192  0.71076  Biso   1.000  Ag
  C249     1.0000 0.42720  0.07140  0.80020  Biso   1.000  C
  C250     1.0000 0.49530  0.11070  0.86550  Biso   1.000  C
  C251     1.0000 0.81450  0.41360  0.70620  Biso   1.000  C
  C252     1.0000 0.74310  0.38600  0.63920  Biso   1.000  C
  N43      1.0000 0.54570  0.18310  0.64390  Biso   1.000  N
  H165     1.0000 0.41720  0.07180  0.76960  Biso   1.000  H
  C253     1.0000 0.38540  0.03060  0.82640  Biso   1.000  C
  H166     1.0000 0.53200  0.13840  0.87980  Biso   1.000  H
  C254     1.0000 0.45310  0.06940  0.88970  Biso   1.000  C
  C255     1.0000 0.86340  0.45750  0.68640  Biso   1.000  C
  H167     1.0000 0.82050  0.40820  0.73670  Biso   1.000  H
  H168     1.0000 0.70240  0.36140  0.62390  Biso   1.000  H
  C256     1.0000 0.78880  0.43080  0.61780  Biso   1.000  C
  Ag44     1.0000 0.47728  0.05544  0.51444  Biso   1.000  Ag
  C257     1.0000 0.48730  0.13970  0.64330  Biso   1.000  C
  C258     1.0000 0.58320  0.19840  0.60420  Biso   1.000  C
  C259     1.0000 0.39560  0.02930  0.86990  Biso   1.000  C
  H169     1.0000 0.34810  0.00250  0.81290  Biso   1.000  H
  C260     1.0000 0.46890  0.06630  0.93720  Biso   1.000  C
  H170     1.0000 0.90450  0.48110  0.70240  Biso   1.000  H
  C261     1.0000 0.84890  0.46520  0.64080  Biso   1.000  C
  C262     1.0000 0.77200  0.44140  0.57020  Biso   1.000  C
  O87      1.0000 0.49140  0.08400  0.44720  Biso   1.000  O
  H171     1.0000 0.46210  0.12690  0.67010  Biso   1.000  H
  C263     1.0000 0.46100  0.11190  0.60540  Biso   1.000  C
  H172     1.0000 0.62520  0.22930  0.60270  Biso   1.000  H
  C264     1.0000 0.56080  0.16970  0.56700  Biso   1.000  C
  H173     1.0000 0.36440  0.00170  0.88690  Biso   1.000  H
  O88      1.0000 0.42840  0.02930  0.96070  Biso   1.000  O
  O89      1.0000 0.52570  0.10280  0.95580  Biso   1.000  O
  H174     1.0000 0.88110  0.49460  0.62610  Biso   1.000  H
  O90      1.0000 0.81630  0.48350  0.55420  Biso   1.000  O
  C265     1.0000 0.53950  0.05100  0.42320  Biso   1.000  C
  N44      1.0000 0.50220  0.12570  0.56780  Biso   1.000  N
  H175     1.0000 0.41420  0.08350  0.60630  Biso   1.000  H
  H176     1.0000 0.58730  0.18130  0.54010  Biso   1.000  H
  Ag45     1.0000 0.49913  0.93976  0.97074  Biso   1.000  Ag
  Ag46     1.0000 0.75171  0.54849  0.50641  Biso   1.000  Ag
  O91      1.0000 0.57420  0.00630  0.43770  Biso   1.000  O
  C266     1.0000 0.54730  0.06350  0.37500  Biso   1.000  C
  N45      1.0000 0.48410  0.12680  0.08050  Biso   1.000  N
  C267     1.0000 0.59980  0.02830  0.34860  Biso   1.000  C
  C268     1.0000 0.50250  0.10860  0.35720  Biso   1.000  C
  C269     1.0000 0.43540  0.17400  0.07500  Biso   1.000  C
  C270     1.0000 0.50620  0.11310  0.12040  Biso   1.000  C
  C271     1.0000 0.60550  0.03730  0.30460  Biso   1.000  C
  H177     1.0000 0.63230  0.99750  0.36110  Biso   1.000  H
  H178     1.0000 0.46790  0.13330  0.37550  Biso   1.000  H
  C272     1.0000 0.50670  0.11890  0.31290  Biso   1.000  C
  C273     1.0000 0.40650  0.20660  0.11050  Biso   1.000  C
  H179     1.0000 0.41990  0.18580  0.04640  Biso   1.000  H
  C274     1.0000 0.48470  0.14750  0.15570  Biso   1.000  C
  H180     1.0000 0.53780  0.07860  0.12540  Biso   1.000  H
  H181     1.0000 0.64090  0.01240  0.28690  Biso   1.000  H
  C275     1.0000 0.56050  0.08190  0.28640  Biso   1.000  C
  C276     1.0000 0.45680  0.16920  0.29410  Biso   1.000  C
  N46      1.0000 0.43580  0.19330  0.15150  Biso   1.000  N
  H182     1.0000 0.36650  0.23790  0.10600  Biso   1.000  H
  H183     1.0000 0.50670  0.13710  0.18380  Biso   1.000  H
  H184     1.0000 0.56500  0.08830  0.25590  Biso   1.000  H
  O92      1.0000 0.41530  0.20030  0.32010  Biso   1.000  O
  O93      1.0000 0.46520  0.17650  0.25300  Biso   1.000  O
  Ag47     1.0000 0.38801  0.23915  0.21670  Biso   1.000  Ag
  Ag48     1.0000 0.34152  0.27754  0.29981  Biso   1.000  Ag
  O94      1.0000 0.31390  0.31150  0.19450  Biso   1.000  O
  O95      1.0000 0.27310  0.34450  0.26070  Biso   1.000  O
  N47      1.0000 0.29700  0.31600  0.36760  Biso   1.000  N
  C277     1.0000 0.27400  0.34660  0.22000  Biso   1.000  C
  C278     1.0000 0.32690  0.30050  0.40690  Biso   1.000  C
  C279     1.0000 0.24210  0.36370  0.36590  Biso   1.000  C
  C280     1.0000 0.22590  0.39690  0.19840  Biso   1.000  C
  H185     1.0000 0.36150  0.26660  0.40940  Biso   1.000  H
  C281     1.0000 0.31040  0.33090  0.44340  Biso   1.000  C
  H186     1.0000 0.21680  0.37640  0.33910  Biso   1.000  H
  C282     1.0000 0.22480  0.39230  0.40330  Biso   1.000  C
  C283     1.0000 0.23390  0.40260  0.15420  Biso   1.000  C
  C284     1.0000 0.17700  0.43400  0.22260  Biso   1.000  C
  N48      1.0000 0.25800  0.37730  0.44210  Biso   1.000  N
  H187     1.0000 0.33640  0.31900  0.47030  Biso   1.000  H
  H188     1.0000 0.18670  0.42490  0.40170  Biso   1.000  H
  H189     1.0000 0.26980  0.37630  0.13790  Biso   1.000  H
  C285     1.0000 0.18930  0.44710  0.13290  Biso   1.000  C
  H190     1.0000 0.17510  0.43030  0.25340  Biso   1.000  H
  C286     1.0000 0.12860  0.47830  0.20210  Biso   1.000  C
  C287     1.0000 0.19940  0.45690  0.08480  Biso   1.000  C
  C288     1.0000 0.13560  0.48400  0.15830  Biso   1.000  C
  H191     1.0000 0.09180  0.50370  0.21860  Biso   1.000  H
  O96      1.0000 0.25490  0.42010  0.56330  Biso   1.000  O
  H192     1.0000 0.10310  0.51390  0.14450  Biso   1.000  H
  O97      1.0000 0.28240  0.59050  0.44970  Biso   1.000  O
  Ag49     1.0000 0.30040  0.56542  0.51933  Biso   1.000  Ag
  N49      1.0000 0.24220  0.62690  0.57180  Biso   1.000  N
  O98      1.0000 0.34720  0.49580  0.56840  Biso   1.000  O
  C289     1.0000 0.26870  0.61260  0.61220  Biso   1.000  C
  C290     1.0000 0.19390  0.67370  0.56910  Biso   1.000  C
  C291     1.0000 0.24230  0.64250  0.64880  Biso   1.000  C
  H193     1.0000 0.30750  0.58050  0.61590  Biso   1.000  H
  C292     1.0000 0.16630  0.70380  0.60470  Biso   1.000  C
  H194     1.0000 0.17740  0.68730  0.54110  Biso   1.000  H
  N50      1.0000 0.18960  0.69010  0.64440  Biso   1.000  N
  H195     1.0000 0.26070  0.62990  0.67680  Biso   1.000  H
  H196     1.0000 0.12840  0.73620  0.60040  Biso   1.000  H
  Ag50     1.0000 0.14867  0.73373  0.71115  Biso   1.000  Ag
  O99      1.0000 0.07020  0.80470  0.68380  Biso   1.000  O
  O100     1.0000 0.22410  0.67340  0.75340  Biso   1.000  O
  C293     1.0000 0.02830  0.84140  0.70550  Biso   1.000  C
  C294     1.0000 0.20830  0.67030  0.79350  Biso   1.000  C
  O101     1.0000 0.01900  0.84190  0.74580  Biso   1.000  O
  C295     1.0000 0.98560  0.88730  0.67940  Biso   1.000  C
  O102     1.0000 0.15930  0.70290  0.81620  Biso   1.000  O
  C296     1.0000 0.25940  0.62090  0.81660  Biso   1.000  C
  Ag51     1.0000 0.08686  0.77808  0.78924  Biso   1.000  Ag
  C297     1.0000 0.92720  0.92860  0.69980  Biso   1.000  C
  C298     1.0000 0.99530  0.88930  0.63450  Biso   1.000  C
  C299     1.0000 0.31450  0.58640  0.79380  Biso   1.000  C
  C300     1.0000 0.24310  0.61400  0.86080  Biso   1.000  C
  N51      1.0000 0.04570  0.81690  0.85610  Biso   1.000  N
  H197     1.0000 0.91720  0.92820  0.73040  Biso   1.000  H
  C301     1.0000 0.88540  0.96940  0.67360  Biso   1.000  C
  H198     1.0000 0.03200  0.86160  0.62020  Biso   1.000  H
  C302     1.0000 0.95310  0.93060  0.61030  Biso   1.000  C
  C303     1.0000 0.36340  0.54250  0.81360  Biso   1.000  C
  H199     1.0000 0.32050  0.59180  0.76330  Biso   1.000  H
  H200     1.0000 0.20240  0.63860  0.87610  Biso   1.000  H
  C304     1.0000 0.28880  0.56920  0.88220  Biso   1.000  C
  Ag52     1.0000 0.97728  0.94456  0.98556  Biso   1.000  Ag
  C305     1.0000 0.98730  0.86030  0.85670  Biso   1.000  C
  C306     1.0000 0.08320  0.80160  0.89580  Biso   1.000  C
  C307     1.0000 0.89560  0.97070  0.63010  Biso   1.000  C
  H201     1.0000 0.84810  0.99750  0.68710  Biso   1.000  H
  C308     1.0000 0.96890  0.93370  0.56280  Biso   1.000  C
  H202     1.0000 0.40450  0.51890  0.79760  Biso   1.000  H
  C309     1.0000 0.34890  0.53480  0.85920  Biso   1.000  C
  C310     1.0000 0.27200  0.55860  0.92980  Biso   1.000  C
  O103     1.0000 0.99140  0.91600  0.05280  Biso   1.000  O
  H203     1.0000 0.96210  0.87310  0.82990  Biso   1.000  H
  C311     1.0000 0.96100  0.88810  0.89460  Biso   1.000  C
  H204     1.0000 0.12520  0.77070  0.89730  Biso   1.000  H
  C312     1.0000 0.06080  0.83030  0.93300  Biso   1.000  C
  H205     1.0000 0.86440  0.99830  0.61310  Biso   1.000  H
  O104     1.0000 0.92840  0.97070  0.53930  Biso   1.000  O
  O105     1.0000 0.02570  0.89720  0.54420  Biso   1.000  O
  H206     1.0000 0.38110  0.50540  0.87390  Biso   1.000  H
  O106     1.0000 0.31630  0.51650  0.94580  Biso   1.000  O
  C313     1.0000 0.03950  0.94900  0.07680  Biso   1.000  C
  N52      1.0000 0.00220  0.87430  0.93220  Biso   1.000  N
  H207     1.0000 0.91420  0.91650  0.89370  Biso   1.000  H
  H208     1.0000 0.08730  0.81870  0.95990  Biso   1.000  H
  Ag53     1.0000 0.99913  0.06024  0.52926  Biso   1.000  Ag
  Ag54     1.0000 0.25171  0.45151  0.99359  Biso   1.000  Ag
  O107     1.0000 0.07420  0.99370  0.06230  Biso   1.000  O
  C314     1.0000 0.04730  0.93650  0.12500  Biso   1.000  C
  N53      1.0000 0.98410  0.87320  0.41950  Biso   1.000  N
  C315     1.0000 0.09980  0.97170  0.15140  Biso   1.000  C
  C316     1.0000 0.00250  0.89140  0.14280  Biso   1.000  C
  C317     1.0000 0.93540  0.82600  0.42500  Biso   1.000  C
  C318     1.0000 0.00620  0.88690  0.37960  Biso   1.000  C
  C319     1.0000 0.10550  0.96270  0.19540  Biso   1.000  C
  H209     1.0000 0.13230  0.00250  0.13890  Biso   1.000  H
  H210     1.0000 0.96790  0.86670  0.12450  Biso   1.000  H
  C320     1.0000 0.00670  0.88110  0.18710  Biso   1.000  C
  C321     1.0000 0.90650  0.79340  0.38950  Biso   1.000  C
  H211     1.0000 0.91990  0.81420  0.45360  Biso   1.000  H
  C322     1.0000 0.98470  0.85250  0.34430  Biso   1.000  C
  H212     1.0000 0.03780  0.92140  0.37460  Biso   1.000  H
  H213     1.0000 0.14090  0.98760  0.21310  Biso   1.000  H
  C323     1.0000 0.06050  0.91810  0.21360  Biso   1.000  C
  C324     1.0000 0.95680  0.83080  0.20590  Biso   1.000  C
  N54      1.0000 0.93580  0.80670  0.34850  Biso   1.000  N
  H214     1.0000 0.86650  0.76210  0.39400  Biso   1.000  H
  H215     1.0000 0.00670  0.86290  0.31620  Biso   1.000  H
  H216     1.0000 0.06500  0.91170  0.24410  Biso   1.000  H
  O108     1.0000 0.91530  0.79970  0.17990  Biso   1.000  O
  O109     1.0000 0.96520  0.82350  0.24700  Biso   1.000  O
  Ag55     1.0000 0.88801  0.76085  0.28330  Biso   1.000  Ag
  Ag56     1.0000 0.84152  0.72246  0.20019  Biso   1.000  Ag
  O110     1.0000 0.81390  0.68850  0.30550  Biso   1.000  O
  O111     1.0000 0.77310  0.65550  0.23930  Biso   1.000  O
  N55      1.0000 0.79700  0.68400  0.13240  Biso   1.000  N
  C325     1.0000 0.77400  0.65340  0.28000  Biso   1.000  C
  C326     1.0000 0.82690  0.69950  0.09310  Biso   1.000  C
  C327     1.0000 0.74210  0.63630  0.13410  Biso   1.000  C
  C328     1.0000 0.72590  0.60310  0.30160  Biso   1.000  C
  H217     1.0000 0.86150  0.73340  0.09060  Biso   1.000  H
  C329     1.0000 0.81040  0.66910  0.05660  Biso   1.000  C
  H218     1.0000 0.71680  0.62360  0.16090  Biso   1.000  H
  C330     1.0000 0.72480  0.60770  0.09670  Biso   1.000  C
  C331     1.0000 0.73390  0.59740  0.34580  Biso   1.000  C
  C332     1.0000 0.67700  0.56600  0.27740  Biso   1.000  C
  N56      1.0000 0.75800  0.62270  0.05790  Biso   1.000  N
  H219     1.0000 0.83640  0.68100  0.02970  Biso   1.000  H
  H220     1.0000 0.68670  0.57510  0.09830  Biso   1.000  H
  H221     1.0000 0.76980  0.62370  0.36210  Biso   1.000  H
  C333     1.0000 0.68930  0.55290  0.36710  Biso   1.000  C
  H222     1.0000 0.67510  0.56970  0.24660  Biso   1.000  H
  C334     1.0000 0.62860  0.52170  0.29790  Biso   1.000  C
  C335     1.0000 0.69940  0.54310  0.41520  Biso   1.000  C
  C336     1.0000 0.63560  0.51600  0.34170  Biso   1.000  C
  H223     1.0000 0.59180  0.49630  0.28140  Biso   1.000  H
  O112     1.0000 0.75490  0.57990  0.93670  Biso   1.000  O
  H224     1.0000 0.60310  0.48610  0.35550  Biso   1.000  H
  O113     1.0000 0.21760  0.90950  0.44970  Biso   1.000  O
  Ag57     1.0000 0.19960  0.93458  0.51933  Biso   1.000  Ag
  N57      1.0000 0.25780  0.87310  0.57180  Biso   1.000  N
  O114     1.0000 0.15280  0.00420  0.56840  Biso   1.000  O
  C337     1.0000 0.23130  0.88740  0.61220  Biso   1.000  C
  C338     1.0000 0.30610  0.82630  0.56910  Biso   1.000  C
  C339     1.0000 0.25770  0.85750  0.64880  Biso   1.000  C
  H225     1.0000 0.19250  0.91950  0.61590  Biso   1.000  H
  C340     1.0000 0.33370  0.79620  0.60470  Biso   1.000  C
  H226     1.0000 0.32260  0.81270  0.54110  Biso   1.000  H
  N58      1.0000 0.31040  0.80990  0.64440  Biso   1.000  N
  H227     1.0000 0.23930  0.87010  0.67680  Biso   1.000  H
  H228     1.0000 0.37160  0.76380  0.60040  Biso   1.000  H
  Ag58     1.0000 0.35133  0.76627  0.71115  Biso   1.000  Ag
  O115     1.0000 0.42980  0.69530  0.68380  Biso   1.000  O
  O116     1.0000 0.27590  0.82660  0.75340  Biso   1.000  O
  C341     1.0000 0.47170  0.65860  0.70550  Biso   1.000  C
  C342     1.0000 0.29170  0.82970  0.79350  Biso   1.000  C
  O117     1.0000 0.48100  0.65810  0.74580  Biso   1.000  O
  C343     1.0000 0.51440  0.61270  0.67940  Biso   1.000  C
  O118     1.0000 0.34070  0.79710  0.81620  Biso   1.000  O
  C344     1.0000 0.24060  0.87910  0.81660  Biso   1.000  C
  Ag59     1.0000 0.41314  0.72192  0.78924  Biso   1.000  Ag
  C345     1.0000 0.57280  0.57140  0.69980  Biso   1.000  C
  C346     1.0000 0.50470  0.61070  0.63450  Biso   1.000  C
  C347     1.0000 0.18550  0.91360  0.79380  Biso   1.000  C
  C348     1.0000 0.25690  0.88600  0.86080  Biso   1.000  C
  N59      1.0000 0.45430  0.68310  0.85610  Biso   1.000  N
  H229     1.0000 0.58280  0.57180  0.73040  Biso   1.000  H
  C349     1.0000 0.61460  0.53060  0.67360  Biso   1.000  C
  H230     1.0000 0.46800  0.63840  0.62020  Biso   1.000  H
  C350     1.0000 0.54690  0.56940  0.61030  Biso   1.000  C
  C351     1.0000 0.13660  0.95750  0.81360  Biso   1.000  C
  H231     1.0000 0.17950  0.90820  0.76330  Biso   1.000  H
  H232     1.0000 0.29760  0.86140  0.87610  Biso   1.000  H
  C352     1.0000 0.21120  0.93080  0.88220  Biso   1.000  C
  Ag60     1.0000 0.52272  0.55544  0.98556  Biso   1.000  Ag
  C353     1.0000 0.51270  0.63970  0.85670  Biso   1.000  C
  C354     1.0000 0.41680  0.69840  0.89580  Biso   1.000  C
  C355     1.0000 0.60440  0.52930  0.63010  Biso   1.000  C
  H233     1.0000 0.65190  0.50250  0.68710  Biso   1.000  H
  C356     1.0000 0.53110  0.56630  0.56280  Biso   1.000  C
  H234     1.0000 0.09550  0.98110  0.79760  Biso   1.000  H
  C357     1.0000 0.15110  0.96520  0.85920  Biso   1.000  C
  C358     1.0000 0.22800  0.94140  0.92980  Biso   1.000  C
  O119     1.0000 0.50860  0.58400  0.05280  Biso   1.000  O
  H235     1.0000 0.53790  0.62690  0.82990  Biso   1.000  H
  C359     1.0000 0.53900  0.61190  0.89460  Biso   1.000  C
  H236     1.0000 0.37480  0.72930  0.89730  Biso   1.000  H
  C360     1.0000 0.43920  0.66970  0.93300  Biso   1.000  C
  H237     1.0000 0.63560  0.50170  0.61310  Biso   1.000  H
  O120     1.0000 0.57160  0.52930  0.53930  Biso   1.000  O
  O121     1.0000 0.47430  0.60280  0.54420  Biso   1.000  O
  H238     1.0000 0.11890  0.99460  0.87390  Biso   1.000  H
  O122     1.0000 0.18370  0.98350  0.94580  Biso   1.000  O
  C361     1.0000 0.46050  0.55100  0.07680  Biso   1.000  C
  N60      1.0000 0.49780  0.62570  0.93220  Biso   1.000  N
  H239     1.0000 0.58580  0.58350  0.89370  Biso   1.000  H
  H240     1.0000 0.41270  0.68130  0.95990  Biso   1.000  H
  Ag61     1.0000 0.50087  0.43976  0.52926  Biso   1.000  Ag
  Ag62     1.0000 0.24829  0.04849  0.99359  Biso   1.000  Ag
  O123     1.0000 0.42580  0.50630  0.06230  Biso   1.000  O
  C362     1.0000 0.45270  0.56350  0.12500  Biso   1.000  C
  N61      1.0000 0.51590  0.62680  0.41950  Biso   1.000  N
  C363     1.0000 0.40020  0.52830  0.15140  Biso   1.000  C
  C364     1.0000 0.49750  0.60860  0.14280  Biso   1.000  C
  C365     1.0000 0.56460  0.67400  0.42500  Biso   1.000  C
  C366     1.0000 0.49380  0.61310  0.37960  Biso   1.000  C
  C367     1.0000 0.39450  0.53730  0.19540  Biso   1.000  C
  H241     1.0000 0.36770  0.49750  0.13890  Biso   1.000  H
  H242     1.0000 0.53210  0.63330  0.12450  Biso   1.000  H
  C368     1.0000 0.49330  0.61890  0.18710  Biso   1.000  C
  C369     1.0000 0.59350  0.70660  0.38950  Biso   1.000  C
  H243     1.0000 0.58010  0.68580  0.45360  Biso   1.000  H
  C370     1.0000 0.51530  0.64750  0.34430  Biso   1.000  C
  H244     1.0000 0.46220  0.57860  0.37460  Biso   1.000  H
  H245     1.0000 0.35910  0.51240  0.21310  Biso   1.000  H
  C371     1.0000 0.43950  0.58190  0.21360  Biso   1.000  C
  C372     1.0000 0.54320  0.66920  0.20590  Biso   1.000  C
  N62      1.0000 0.56420  0.69330  0.34850  Biso   1.000  N
  H246     1.0000 0.63350  0.73790  0.39400  Biso   1.000  H
  H247     1.0000 0.49330  0.63710  0.31620  Biso   1.000  H
  H248     1.0000 0.43500  0.58830  0.24410  Biso   1.000  H
  O124     1.0000 0.58470  0.70030  0.17990  Biso   1.000  O
  O125     1.0000 0.53480  0.67650  0.24700  Biso   1.000  O
  Ag63     1.0000 0.61199  0.73915  0.28330  Biso   1.000  Ag
  Ag64     1.0000 0.65848  0.77754  0.20019  Biso   1.000  Ag
  O126     1.0000 0.68610  0.81150  0.30550  Biso   1.000  O
  O127     1.0000 0.72690  0.84450  0.23930  Biso   1.000  O
  N63      1.0000 0.70300  0.81600  0.13240  Biso   1.000  N
  C373     1.0000 0.72600  0.84660  0.28000  Biso   1.000  C
  C374     1.0000 0.67310  0.80050  0.09310  Biso   1.000  C
  C375     1.0000 0.75790  0.86370  0.13410  Biso   1.000  C
  C376     1.0000 0.77410  0.89690  0.30160  Biso   1.000  C
  H249     1.0000 0.63850  0.76660  0.09060  Biso   1.000  H
  C377     1.0000 0.68960  0.83090  0.05660  Biso   1.000  C
  H250     1.0000 0.78320  0.87640  0.16090  Biso   1.000  H
  C378     1.0000 0.77520  0.89230  0.09670  Biso   1.000  C
  C379     1.0000 0.76610  0.90260  0.34580  Biso   1.000  C
  C380     1.0000 0.82300  0.93400  0.27740  Biso   1.000  C
  N64      1.0000 0.74200  0.87730  0.05790  Biso   1.000  N
  H251     1.0000 0.66360  0.81900  0.02970  Biso   1.000  H
  H252     1.0000 0.81330  0.92490  0.09830  Biso   1.000  H
  H253     1.0000 0.73020  0.87630  0.36210  Biso   1.000  H
  C381     1.0000 0.81070  0.94710  0.36710  Biso   1.000  C
  H254     1.0000 0.82490  0.93030  0.24660  Biso   1.000  H
  C382     1.0000 0.87140  0.97830  0.29790  Biso   1.000  C
  C383     1.0000 0.80060  0.95690  0.41520  Biso   1.000  C
  C384     1.0000 0.86440  0.98400  0.34170  Biso   1.000  C
  H255     1.0000 0.90820  0.00370  0.28140  Biso   1.000  H
  O128     1.0000 0.74510  0.92010  0.93670  Biso   1.000  O
  H256     1.0000 0.89690  0.01390  0.35550  Biso   1.000  H
