data_image0
_cell_length_a       42.672
_cell_length_b       42.672
_cell_length_c       42.672
_cell_angle_alpha    90
_cell_angle_beta     90
_cell_angle_gamma    90

_symmetry_space_group_name_H-M    "P 1"
_symmetry_int_tables_number       1

loop_
  _symmetry_equiv_pos_as_xyz
  'x, y, z'

loop_
  _atom_site_label
  _atom_site_occupancy
  _atom_site_fract_x
  _atom_site_fract_y
  _atom_site_fract_z
  _atom_site_thermal_displace_type
  _atom_site_B_iso_or_equiv
  _atom_site_type_symbol
  N1       1.0000 0.06264  0.38049  0.99269  Biso   1.000  N
  N2       1.0000 0.97371  0.45663  0.00135  Biso   1.000  N
  C1       1.0000 0.03571  0.38128  0.00897  Biso   1.000  C
  C2       1.0000 0.01377  0.40458  0.00567  Biso   1.000  C
  C3       1.0000 0.01982  0.42839  0.98453  Biso   1.000  C
  C4       1.0000 0.04755  0.42793  0.96757  Biso   1.000  C
  C5       1.0000 0.06847  0.40370  0.97259  Biso   1.000  C
  C6       1.0000 0.99695  0.45415  0.98060  Biso   1.000  C
  H1       1.0000 0.03165  0.36490  0.02349  Biso   1.000  H
  H2       1.0000 0.99495  0.40435  0.01757  Biso   1.000  H
  H3       1.0000 0.05208  0.44395  0.95279  Biso   1.000  H
  H4       1.0000 0.08767  0.40359  0.96133  Biso   1.000  H
  N3       1.0000 0.68736  0.86951  0.49269  Biso   1.000  N
  N4       1.0000 0.77629  0.79337  0.50135  Biso   1.000  N
  C7       1.0000 0.71429  0.86872  0.50897  Biso   1.000  C
  C8       1.0000 0.73623  0.84542  0.50567  Biso   1.000  C
  C9       1.0000 0.73018  0.82161  0.48453  Biso   1.000  C
  C10      1.0000 0.70245  0.82207  0.46757  Biso   1.000  C
  C11      1.0000 0.68153  0.84630  0.47259  Biso   1.000  C
  C12      1.0000 0.75305  0.79585  0.48060  Biso   1.000  C
  H5       1.0000 0.71835  0.88510  0.52349  Biso   1.000  H
  H6       1.0000 0.75505  0.84565  0.51757  Biso   1.000  H
  H7       1.0000 0.69792  0.80605  0.45279  Biso   1.000  H
  H8       1.0000 0.66233  0.84641  0.46133  Biso   1.000  H
  N5       1.0000 0.18736  0.88049  0.75731  Biso   1.000  N
  N6       1.0000 0.27629  0.95663  0.74865  Biso   1.000  N
  C13      1.0000 0.21429  0.88128  0.74103  Biso   1.000  C
  C14      1.0000 0.23623  0.90458  0.74433  Biso   1.000  C
  C15      1.0000 0.23018  0.92839  0.76547  Biso   1.000  C
  C16      1.0000 0.20245  0.92793  0.78243  Biso   1.000  C
  C17      1.0000 0.18153  0.90370  0.77741  Biso   1.000  C
  C18      1.0000 0.25305  0.95415  0.76940  Biso   1.000  C
  H9       1.0000 0.21835  0.86490  0.72651  Biso   1.000  H
  H10      1.0000 0.25505  0.90435  0.73243  Biso   1.000  H
  H11      1.0000 0.19792  0.94395  0.79721  Biso   1.000  H
  H12      1.0000 0.16233  0.90359  0.78867  Biso   1.000  H
  N7       1.0000 0.56264  0.36951  0.25731  Biso   1.000  N
  N8       1.0000 0.47371  0.29337  0.24865  Biso   1.000  N
  C19      1.0000 0.53571  0.36872  0.24103  Biso   1.000  C
  C20      1.0000 0.51377  0.34542  0.24433  Biso   1.000  C
  C21      1.0000 0.51982  0.32161  0.26547  Biso   1.000  C
  C22      1.0000 0.54755  0.32207  0.28243  Biso   1.000  C
  C23      1.0000 0.56847  0.34630  0.27741  Biso   1.000  C
  C24      1.0000 0.49695  0.29585  0.26940  Biso   1.000  C
  H13      1.0000 0.53165  0.38510  0.22651  Biso   1.000  H
  H14      1.0000 0.49495  0.34565  0.23243  Biso   1.000  H
  H15      1.0000 0.55208  0.30605  0.29721  Biso   1.000  H
  H16      1.0000 0.58767  0.34641  0.28867  Biso   1.000  H
  N9       1.0000 0.99269  0.56264  0.88049  Biso   1.000  N
  N10      1.0000 0.00135  0.47371  0.95663  Biso   1.000  N
  C25      1.0000 0.00897  0.53571  0.88128  Biso   1.000  C
  C26      1.0000 0.00567  0.51377  0.90458  Biso   1.000  C
  C27      1.0000 0.98453  0.51982  0.92839  Biso   1.000  C
  C28      1.0000 0.96757  0.54755  0.92793  Biso   1.000  C
  C29      1.0000 0.97259  0.56847  0.90370  Biso   1.000  C
  C30      1.0000 0.98060  0.49695  0.95415  Biso   1.000  C
  H17      1.0000 0.02349  0.53165  0.86490  Biso   1.000  H
  H18      1.0000 0.01757  0.49495  0.90435  Biso   1.000  H
  H19      1.0000 0.95279  0.55208  0.94395  Biso   1.000  H
  H20      1.0000 0.96133  0.58767  0.90359  Biso   1.000  H
  N11      1.0000 0.49269  0.18736  0.36951  Biso   1.000  N
  N12      1.0000 0.50135  0.27629  0.29337  Biso   1.000  N
  C31      1.0000 0.50897  0.21429  0.36872  Biso   1.000  C
  C32      1.0000 0.50567  0.23623  0.34542  Biso   1.000  C
  C33      1.0000 0.48453  0.23018  0.32161  Biso   1.000  C
  C34      1.0000 0.46757  0.20245  0.32207  Biso   1.000  C
  C35      1.0000 0.47259  0.18153  0.34630  Biso   1.000  C
  C36      1.0000 0.48060  0.25305  0.29585  Biso   1.000  C
  H21      1.0000 0.52349  0.21835  0.38510  Biso   1.000  H
  H22      1.0000 0.51757  0.25505  0.34565  Biso   1.000  H
  H23      1.0000 0.45279  0.19792  0.30605  Biso   1.000  H
  H24      1.0000 0.46133  0.16233  0.34641  Biso   1.000  H
  N13      1.0000 0.75731  0.68736  0.38049  Biso   1.000  N
  N14      1.0000 0.74865  0.77629  0.45663  Biso   1.000  N
  C37      1.0000 0.74103  0.71429  0.38128  Biso   1.000  C
  C38      1.0000 0.74433  0.73623  0.40458  Biso   1.000  C
  C39      1.0000 0.76547  0.73018  0.42839  Biso   1.000  C
  C40      1.0000 0.78243  0.70245  0.42793  Biso   1.000  C
  C41      1.0000 0.77741  0.68153  0.40370  Biso   1.000  C
  C42      1.0000 0.76940  0.75305  0.45415  Biso   1.000  C
  H25      1.0000 0.72651  0.71835  0.36490  Biso   1.000  H
  H26      1.0000 0.73243  0.75505  0.40435  Biso   1.000  H
  H27      1.0000 0.79721  0.69792  0.44395  Biso   1.000  H
  H28      1.0000 0.78867  0.66233  0.40359  Biso   1.000  H
  N15      1.0000 0.25731  0.06264  0.86951  Biso   1.000  N
  N16      1.0000 0.24865  0.97371  0.79337  Biso   1.000  N
  C43      1.0000 0.24103  0.03571  0.86872  Biso   1.000  C
  C44      1.0000 0.24433  0.01377  0.84542  Biso   1.000  C
  C45      1.0000 0.26547  0.01982  0.82161  Biso   1.000  C
  C46      1.0000 0.28243  0.04755  0.82207  Biso   1.000  C
  C47      1.0000 0.27741  0.06847  0.84630  Biso   1.000  C
  C48      1.0000 0.26940  0.99695  0.79585  Biso   1.000  C
  H29      1.0000 0.22651  0.03165  0.88510  Biso   1.000  H
  H30      1.0000 0.23243  0.99495  0.84565  Biso   1.000  H
  H31      1.0000 0.29721  0.05208  0.80605  Biso   1.000  H
  H32      1.0000 0.28867  0.08767  0.84641  Biso   1.000  H
  N17      1.0000 0.88049  0.49269  0.06264  Biso   1.000  N
  N18      1.0000 0.95663  0.50135  0.97371  Biso   1.000  N
  C49      1.0000 0.88128  0.50897  0.03571  Biso   1.000  C
  C50      1.0000 0.90458  0.50567  0.01377  Biso   1.000  C
  C51      1.0000 0.92839  0.48453  0.01982  Biso   1.000  C
  C52      1.0000 0.92793  0.46757  0.04755  Biso   1.000  C
  C53      1.0000 0.90370  0.47259  0.06847  Biso   1.000  C
  C54      1.0000 0.95415  0.48060  0.99695  Biso   1.000  C
  H33      1.0000 0.86490  0.52349  0.03165  Biso   1.000  H
  H34      1.0000 0.90435  0.51757  0.99495  Biso   1.000  H
  H35      1.0000 0.94395  0.45279  0.05208  Biso   1.000  H
  H36      1.0000 0.90359  0.46133  0.08767  Biso   1.000  H
  N19      1.0000 0.36951  0.99269  0.68736  Biso   1.000  N
  N20      1.0000 0.29337  0.00135  0.77629  Biso   1.000  N
  C55      1.0000 0.36872  0.00897  0.71429  Biso   1.000  C
  C56      1.0000 0.34542  0.00567  0.73623  Biso   1.000  C
  C57      1.0000 0.32161  0.98453  0.73018  Biso   1.000  C
  C58      1.0000 0.32207  0.96757  0.70245  Biso   1.000  C
  C59      1.0000 0.34630  0.97259  0.68153  Biso   1.000  C
  C60      1.0000 0.29585  0.98060  0.75305  Biso   1.000  C
  H37      1.0000 0.38510  0.02349  0.71835  Biso   1.000  H
  H38      1.0000 0.34565  0.01757  0.75505  Biso   1.000  H
  H39      1.0000 0.30605  0.95279  0.69792  Biso   1.000  H
  H40      1.0000 0.34641  0.96133  0.66233  Biso   1.000  H
  N21      1.0000 0.38049  0.25731  0.18736  Biso   1.000  N
  N22      1.0000 0.45663  0.24865  0.27629  Biso   1.000  N
  C61      1.0000 0.38128  0.24103  0.21429  Biso   1.000  C
  C62      1.0000 0.40458  0.24433  0.23623  Biso   1.000  C
  C63      1.0000 0.42839  0.26547  0.23018  Biso   1.000  C
  C64      1.0000 0.42793  0.28243  0.20245  Biso   1.000  C
  C65      1.0000 0.40370  0.27741  0.18153  Biso   1.000  C
  C66      1.0000 0.45415  0.26940  0.25305  Biso   1.000  C
  H41      1.0000 0.36490  0.22651  0.21835  Biso   1.000  H
  H42      1.0000 0.40435  0.23243  0.25505  Biso   1.000  H
  H43      1.0000 0.44395  0.29721  0.19792  Biso   1.000  H
  H44      1.0000 0.40359  0.28867  0.16233  Biso   1.000  H
  N23      1.0000 0.86951  0.75731  0.56264  Biso   1.000  N
  N24      1.0000 0.79337  0.74865  0.47371  Biso   1.000  N
  C67      1.0000 0.86872  0.74103  0.53571  Biso   1.000  C
  C68      1.0000 0.84542  0.74433  0.51377  Biso   1.000  C
  C69      1.0000 0.82161  0.76547  0.51982  Biso   1.000  C
  C70      1.0000 0.82207  0.78243  0.54755  Biso   1.000  C
  C71      1.0000 0.84630  0.77741  0.56847  Biso   1.000  C
  C72      1.0000 0.79585  0.76940  0.49695  Biso   1.000  C
  H45      1.0000 0.88510  0.72651  0.53165  Biso   1.000  H
  H46      1.0000 0.84565  0.73243  0.49495  Biso   1.000  H
  H47      1.0000 0.80605  0.79721  0.55208  Biso   1.000  H
  H48      1.0000 0.84641  0.78867  0.58767  Biso   1.000  H
  N25      1.0000 0.13049  0.31264  0.00731  Biso   1.000  N
  N26      1.0000 0.20663  0.22371  0.99865  Biso   1.000  N
  C73      1.0000 0.13128  0.28571  0.99103  Biso   1.000  C
  C74      1.0000 0.15458  0.26377  0.99433  Biso   1.000  C
  C75      1.0000 0.17839  0.26982  0.01547  Biso   1.000  C
  C76      1.0000 0.17793  0.29755  0.03243  Biso   1.000  C
  C77      1.0000 0.15370  0.31847  0.02741  Biso   1.000  C
  C78      1.0000 0.20415  0.24695  0.01940  Biso   1.000  C
  H49      1.0000 0.11490  0.28165  0.97651  Biso   1.000  H
  H50      1.0000 0.15435  0.24495  0.98243  Biso   1.000  H
  H51      1.0000 0.19395  0.30208  0.04721  Biso   1.000  H
  H52      1.0000 0.15359  0.33767  0.03867  Biso   1.000  H
  N27      1.0000 0.61951  0.93736  0.50731  Biso   1.000  N
  N28      1.0000 0.54337  0.02629  0.49865  Biso   1.000  N
  C79      1.0000 0.61872  0.96429  0.49103  Biso   1.000  C
  C80      1.0000 0.59542  0.98623  0.49433  Biso   1.000  C
  C81      1.0000 0.57161  0.98018  0.51547  Biso   1.000  C
  C82      1.0000 0.57207  0.95245  0.53243  Biso   1.000  C
  C83      1.0000 0.59630  0.93153  0.52741  Biso   1.000  C
  C84      1.0000 0.54585  0.00305  0.51940  Biso   1.000  C
  H53      1.0000 0.63510  0.96835  0.47651  Biso   1.000  H
  H54      1.0000 0.59565  0.00505  0.48243  Biso   1.000  H
  H55      1.0000 0.55605  0.94792  0.54721  Biso   1.000  H
  H56      1.0000 0.59641  0.91233  0.53867  Biso   1.000  H
  N29      1.0000 0.63049  0.43736  0.24269  Biso   1.000  N
  N30      1.0000 0.70663  0.52629  0.25135  Biso   1.000  N
  C85      1.0000 0.63128  0.46429  0.25897  Biso   1.000  C
  C86      1.0000 0.65458  0.48623  0.25567  Biso   1.000  C
  C87      1.0000 0.67839  0.48018  0.23453  Biso   1.000  C
  C88      1.0000 0.67793  0.45245  0.21757  Biso   1.000  C
  C89      1.0000 0.65370  0.43153  0.22259  Biso   1.000  C
  C90      1.0000 0.70415  0.50305  0.23060  Biso   1.000  C
  H57      1.0000 0.61490  0.46835  0.27349  Biso   1.000  H
  H58      1.0000 0.65435  0.50505  0.26757  Biso   1.000  H
  H59      1.0000 0.69395  0.44792  0.20279  Biso   1.000  H
  H60      1.0000 0.65359  0.41233  0.21133  Biso   1.000  H
  N31      1.0000 0.11951  0.81264  0.74269  Biso   1.000  N
  N32      1.0000 0.04337  0.72371  0.75135  Biso   1.000  N
  C91      1.0000 0.11872  0.78571  0.75897  Biso   1.000  C
  C92      1.0000 0.09542  0.76377  0.75567  Biso   1.000  C
  C93      1.0000 0.07161  0.76982  0.73453  Biso   1.000  C
  C94      1.0000 0.07207  0.79755  0.71757  Biso   1.000  C
  C95      1.0000 0.09630  0.81847  0.72259  Biso   1.000  C
  C96      1.0000 0.04585  0.74695  0.73060  Biso   1.000  C
  H61      1.0000 0.13510  0.78165  0.77349  Biso   1.000  H
  H62      1.0000 0.09565  0.74495  0.76757  Biso   1.000  H
  H63      1.0000 0.05605  0.80208  0.70279  Biso   1.000  H
  H64      1.0000 0.09641  0.83767  0.71133  Biso   1.000  H
  N33      1.0000 0.31264  0.24269  0.11951  Biso   1.000  N
  N34      1.0000 0.22371  0.25135  0.04337  Biso   1.000  N
  C97      1.0000 0.28571  0.25897  0.11872  Biso   1.000  C
  C98      1.0000 0.26377  0.25567  0.09542  Biso   1.000  C
  C99      1.0000 0.26982  0.23453  0.07161  Biso   1.000  C
  C100     1.0000 0.29755  0.21757  0.07207  Biso   1.000  C
  C101     1.0000 0.31847  0.22259  0.09630  Biso   1.000  C
  C102     1.0000 0.24695  0.23060  0.04585  Biso   1.000  C
  H65      1.0000 0.28165  0.27349  0.13510  Biso   1.000  H
  H66      1.0000 0.24495  0.26757  0.09565  Biso   1.000  H
  H67      1.0000 0.30208  0.20279  0.05605  Biso   1.000  H
  H68      1.0000 0.33767  0.21133  0.09641  Biso   1.000  H
  N35      1.0000 0.93736  0.74269  0.63049  Biso   1.000  N
  N36      1.0000 0.02629  0.75135  0.70663  Biso   1.000  N
  C103     1.0000 0.96429  0.75897  0.63128  Biso   1.000  C
  C104     1.0000 0.98623  0.75567  0.65458  Biso   1.000  C
  C105     1.0000 0.98018  0.73453  0.67839  Biso   1.000  C
  C106     1.0000 0.95245  0.71757  0.67793  Biso   1.000  C
  C107     1.0000 0.93153  0.72259  0.65370  Biso   1.000  C
  C108     1.0000 0.00305  0.73060  0.70415  Biso   1.000  C
  H69      1.0000 0.96835  0.77349  0.61490  Biso   1.000  H
  H70      1.0000 0.00505  0.76757  0.65435  Biso   1.000  H
  H71      1.0000 0.94792  0.70279  0.69395  Biso   1.000  H
  H72      1.0000 0.91233  0.71133  0.65359  Biso   1.000  H
  N37      1.0000 0.43736  0.00731  0.61951  Biso   1.000  N
  N38      1.0000 0.52629  0.99865  0.54337  Biso   1.000  N
  C109     1.0000 0.46429  0.99103  0.61872  Biso   1.000  C
  C110     1.0000 0.48623  0.99433  0.59542  Biso   1.000  C
  C111     1.0000 0.48018  0.01547  0.57161  Biso   1.000  C
  C112     1.0000 0.45245  0.03243  0.57207  Biso   1.000  C
  C113     1.0000 0.43153  0.02741  0.59630  Biso   1.000  C
  C114     1.0000 0.50305  0.01940  0.54585  Biso   1.000  C
  H73      1.0000 0.46835  0.97651  0.63510  Biso   1.000  H
  H74      1.0000 0.50505  0.98243  0.59565  Biso   1.000  H
  H75      1.0000 0.44792  0.04721  0.55605  Biso   1.000  H
  H76      1.0000 0.41233  0.03867  0.59641  Biso   1.000  H
  N39      1.0000 0.81264  0.50731  0.13049  Biso   1.000  N
  N40      1.0000 0.72371  0.49865  0.20663  Biso   1.000  N
  C115     1.0000 0.78571  0.49103  0.13128  Biso   1.000  C
  C116     1.0000 0.76377  0.49433  0.15458  Biso   1.000  C
  C117     1.0000 0.76982  0.51547  0.17839  Biso   1.000  C
  C118     1.0000 0.79755  0.53243  0.17793  Biso   1.000  C
  C119     1.0000 0.81847  0.52741  0.15370  Biso   1.000  C
  C120     1.0000 0.74695  0.51940  0.20415  Biso   1.000  C
  H77      1.0000 0.78165  0.47651  0.11490  Biso   1.000  H
  H78      1.0000 0.74495  0.48243  0.15435  Biso   1.000  H
  H79      1.0000 0.80208  0.54721  0.19395  Biso   1.000  H
  H80      1.0000 0.83767  0.53867  0.15359  Biso   1.000  H
  N41      1.0000 0.24269  0.13049  0.93736  Biso   1.000  N
  N42      1.0000 0.25135  0.20663  0.02629  Biso   1.000  N
  C121     1.0000 0.25897  0.13128  0.96429  Biso   1.000  C
  C122     1.0000 0.25567  0.15458  0.98623  Biso   1.000  C
  C123     1.0000 0.23453  0.17839  0.98018  Biso   1.000  C
  C124     1.0000 0.21757  0.17793  0.95245  Biso   1.000  C
  C125     1.0000 0.22259  0.15370  0.93153  Biso   1.000  C
  C126     1.0000 0.23060  0.20415  0.00305  Biso   1.000  C
  H81      1.0000 0.27349  0.11490  0.96835  Biso   1.000  H
  H82      1.0000 0.26757  0.15435  0.00505  Biso   1.000  H
  H83      1.0000 0.20279  0.19395  0.94792  Biso   1.000  H
  H84      1.0000 0.21133  0.15359  0.91233  Biso   1.000  H
  N43      1.0000 0.74269  0.61951  0.31264  Biso   1.000  N
  N44      1.0000 0.75135  0.54337  0.22371  Biso   1.000  N
  C127     1.0000 0.75897  0.61872  0.28571  Biso   1.000  C
  C128     1.0000 0.75567  0.59542  0.26377  Biso   1.000  C
  C129     1.0000 0.73453  0.57161  0.26982  Biso   1.000  C
  C130     1.0000 0.71757  0.57207  0.29755  Biso   1.000  C
  C131     1.0000 0.72259  0.59630  0.31847  Biso   1.000  C
  C132     1.0000 0.73060  0.54585  0.24695  Biso   1.000  C
  H85      1.0000 0.77349  0.63510  0.28165  Biso   1.000  H
  H86      1.0000 0.76757  0.59565  0.24495  Biso   1.000  H
  H87      1.0000 0.70279  0.55605  0.30208  Biso   1.000  H
  H88      1.0000 0.71133  0.59641  0.33767  Biso   1.000  H
  N45      1.0000 0.00731  0.63049  0.81264  Biso   1.000  N
  N46      1.0000 0.99865  0.70663  0.72371  Biso   1.000  N
  C133     1.0000 0.99103  0.63128  0.78571  Biso   1.000  C
  C134     1.0000 0.99433  0.65458  0.76377  Biso   1.000  C
  C135     1.0000 0.01547  0.67839  0.76982  Biso   1.000  C
  C136     1.0000 0.03243  0.67793  0.79755  Biso   1.000  C
  C137     1.0000 0.02741  0.65370  0.81847  Biso   1.000  C
  C138     1.0000 0.01940  0.70415  0.74695  Biso   1.000  C
  H89      1.0000 0.97651  0.61490  0.78165  Biso   1.000  H
  H90      1.0000 0.98243  0.65435  0.74495  Biso   1.000  H
  H91      1.0000 0.04721  0.69395  0.80208  Biso   1.000  H
  H92      1.0000 0.03867  0.65359  0.83767  Biso   1.000  H
  N47      1.0000 0.50731  0.11951  0.43736  Biso   1.000  N
  N48      1.0000 0.49865  0.04337  0.52629  Biso   1.000  N
  C139     1.0000 0.49103  0.11872  0.46429  Biso   1.000  C
  C140     1.0000 0.49433  0.09542  0.48623  Biso   1.000  C
  C141     1.0000 0.51547  0.07161  0.48018  Biso   1.000  C
  C142     1.0000 0.53243  0.07207  0.45245  Biso   1.000  C
  C143     1.0000 0.52741  0.09630  0.43153  Biso   1.000  C
  C144     1.0000 0.51940  0.04585  0.50305  Biso   1.000  C
  H93      1.0000 0.47651  0.13510  0.46835  Biso   1.000  H
  H94      1.0000 0.48243  0.09565  0.50505  Biso   1.000  H
  H95      1.0000 0.54721  0.05605  0.44792  Biso   1.000  H
  H96      1.0000 0.53867  0.09641  0.41233  Biso   1.000  H
  Zn1      1.0000 0.09456  0.34456  0.00000  Biso   1.000  Zn
  Zn2      1.0000 0.65544  0.90544  0.50000  Biso   1.000  Zn
  Zn3      1.0000 0.15544  0.84456  0.75000  Biso   1.000  Zn
  Zn4      1.0000 0.59456  0.40544  0.25000  Biso   1.000  Zn
  Zn5      1.0000 0.00000  0.59456  0.84456  Biso   1.000  Zn
  Zn6      1.0000 0.50000  0.15544  0.40544  Biso   1.000  Zn
  Zn7      1.0000 0.75000  0.65544  0.34456  Biso   1.000  Zn
  Zn8      1.0000 0.25000  0.09456  0.90544  Biso   1.000  Zn
  Zn9      1.0000 0.84456  0.50000  0.09456  Biso   1.000  Zn
  Zn10     1.0000 0.40544  0.00000  0.65544  Biso   1.000  Zn
  Zn11     1.0000 0.34456  0.25000  0.15544  Biso   1.000  Zn
  Zn12     1.0000 0.90544  0.75000  0.59456  Biso   1.000  Zn
  N49      1.0000 0.06264  0.88049  0.49269  Biso   1.000  N
  N50      1.0000 0.97371  0.95663  0.50135  Biso   1.000  N
  C145     1.0000 0.03571  0.88128  0.50897  Biso   1.000  C
  C146     1.0000 0.01377  0.90458  0.50567  Biso   1.000  C
  C147     1.0000 0.01982  0.92839  0.48453  Biso   1.000  C
  C148     1.0000 0.04755  0.92793  0.46757  Biso   1.000  C
  C149     1.0000 0.06847  0.90370  0.47259  Biso   1.000  C
  C150     1.0000 0.99695  0.95415  0.48060  Biso   1.000  C
  H97      1.0000 0.03165  0.86490  0.52349  Biso   1.000  H
  H98      1.0000 0.99495  0.90435  0.51757  Biso   1.000  H
  H99      1.0000 0.05208  0.94395  0.45279  Biso   1.000  H
  H100     1.0000 0.08767  0.90359  0.46133  Biso   1.000  H
  N51      1.0000 0.68736  0.36951  0.99269  Biso   1.000  N
  N52      1.0000 0.77629  0.29337  0.00135  Biso   1.000  N
  C151     1.0000 0.71429  0.36872  0.00897  Biso   1.000  C
  C152     1.0000 0.73623  0.34542  0.00567  Biso   1.000  C
  C153     1.0000 0.73018  0.32161  0.98453  Biso   1.000  C
  C154     1.0000 0.70245  0.32207  0.96757  Biso   1.000  C
  C155     1.0000 0.68153  0.34630  0.97259  Biso   1.000  C
  C156     1.0000 0.75305  0.29585  0.98060  Biso   1.000  C
  H101     1.0000 0.71835  0.38510  0.02349  Biso   1.000  H
  H102     1.0000 0.75505  0.34565  0.01757  Biso   1.000  H
  H103     1.0000 0.69792  0.30605  0.95279  Biso   1.000  H
  H104     1.0000 0.66233  0.34641  0.96133  Biso   1.000  H
  N53      1.0000 0.18736  0.38049  0.25731  Biso   1.000  N
  N54      1.0000 0.27629  0.45663  0.24865  Biso   1.000  N
  C157     1.0000 0.21429  0.38128  0.24103  Biso   1.000  C
  C158     1.0000 0.23623  0.40458  0.24433  Biso   1.000  C
  C159     1.0000 0.23018  0.42839  0.26547  Biso   1.000  C
  C160     1.0000 0.20245  0.42793  0.28243  Biso   1.000  C
  C161     1.0000 0.18153  0.40370  0.27741  Biso   1.000  C
  C162     1.0000 0.25305  0.45415  0.26940  Biso   1.000  C
  H105     1.0000 0.21835  0.36490  0.22651  Biso   1.000  H
  H106     1.0000 0.25505  0.40435  0.23243  Biso   1.000  H
  H107     1.0000 0.19792  0.44395  0.29721  Biso   1.000  H
  H108     1.0000 0.16233  0.40359  0.28867  Biso   1.000  H
  N55      1.0000 0.56264  0.86951  0.75731  Biso   1.000  N
  N56      1.0000 0.47371  0.79337  0.74865  Biso   1.000  N
  C163     1.0000 0.53571  0.86872  0.74103  Biso   1.000  C
  C164     1.0000 0.51377  0.84542  0.74433  Biso   1.000  C
  C165     1.0000 0.51982  0.82161  0.76547  Biso   1.000  C
  C166     1.0000 0.54755  0.82207  0.78243  Biso   1.000  C
  C167     1.0000 0.56847  0.84630  0.77741  Biso   1.000  C
  C168     1.0000 0.49695  0.79585  0.76940  Biso   1.000  C
  H109     1.0000 0.53165  0.88510  0.72651  Biso   1.000  H
  H110     1.0000 0.49495  0.84565  0.73243  Biso   1.000  H
  H111     1.0000 0.55208  0.80605  0.79721  Biso   1.000  H
  H112     1.0000 0.58767  0.84641  0.78867  Biso   1.000  H
  N57      1.0000 0.99269  0.06264  0.38049  Biso   1.000  N
  N58      1.0000 0.00135  0.97371  0.45663  Biso   1.000  N
  C169     1.0000 0.00897  0.03571  0.38128  Biso   1.000  C
  C170     1.0000 0.00567  0.01377  0.40458  Biso   1.000  C
  C171     1.0000 0.98453  0.01982  0.42839  Biso   1.000  C
  C172     1.0000 0.96757  0.04755  0.42793  Biso   1.000  C
  C173     1.0000 0.97259  0.06847  0.40370  Biso   1.000  C
  C174     1.0000 0.98060  0.99695  0.45415  Biso   1.000  C
  H113     1.0000 0.02349  0.03165  0.36490  Biso   1.000  H
  H114     1.0000 0.01757  0.99495  0.40435  Biso   1.000  H
  H115     1.0000 0.95279  0.05208  0.44395  Biso   1.000  H
  H116     1.0000 0.96133  0.08767  0.40359  Biso   1.000  H
  N59      1.0000 0.49269  0.68736  0.86951  Biso   1.000  N
  N60      1.0000 0.50135  0.77629  0.79337  Biso   1.000  N
  C175     1.0000 0.50897  0.71429  0.86872  Biso   1.000  C
  C176     1.0000 0.50567  0.73623  0.84542  Biso   1.000  C
  C177     1.0000 0.48453  0.73018  0.82161  Biso   1.000  C
  C178     1.0000 0.46757  0.70245  0.82207  Biso   1.000  C
  C179     1.0000 0.47259  0.68153  0.84630  Biso   1.000  C
  C180     1.0000 0.48060  0.75305  0.79585  Biso   1.000  C
  H117     1.0000 0.52349  0.71835  0.88510  Biso   1.000  H
  H118     1.0000 0.51757  0.75505  0.84565  Biso   1.000  H
  H119     1.0000 0.45279  0.69792  0.80605  Biso   1.000  H
  H120     1.0000 0.46133  0.66233  0.84641  Biso   1.000  H
  N61      1.0000 0.75731  0.18736  0.88049  Biso   1.000  N
  N62      1.0000 0.74865  0.27629  0.95663  Biso   1.000  N
  C181     1.0000 0.74103  0.21429  0.88128  Biso   1.000  C
  C182     1.0000 0.74433  0.23623  0.90458  Biso   1.000  C
  C183     1.0000 0.76547  0.23018  0.92839  Biso   1.000  C
  C184     1.0000 0.78243  0.20245  0.92793  Biso   1.000  C
  C185     1.0000 0.77741  0.18153  0.90370  Biso   1.000  C
  C186     1.0000 0.76940  0.25305  0.95415  Biso   1.000  C
  H121     1.0000 0.72651  0.21835  0.86490  Biso   1.000  H
  H122     1.0000 0.73243  0.25505  0.90435  Biso   1.000  H
  H123     1.0000 0.79721  0.19792  0.94395  Biso   1.000  H
  H124     1.0000 0.78867  0.16233  0.90359  Biso   1.000  H
  N63      1.0000 0.25731  0.56264  0.36951  Biso   1.000  N
  N64      1.0000 0.24865  0.47371  0.29337  Biso   1.000  N
  C187     1.0000 0.24103  0.53571  0.36872  Biso   1.000  C
  C188     1.0000 0.24433  0.51377  0.34542  Biso   1.000  C
  C189     1.0000 0.26547  0.51982  0.32161  Biso   1.000  C
  C190     1.0000 0.28243  0.54755  0.32207  Biso   1.000  C
  C191     1.0000 0.27741  0.56847  0.34630  Biso   1.000  C
  C192     1.0000 0.26940  0.49695  0.29585  Biso   1.000  C
  H125     1.0000 0.22651  0.53165  0.38510  Biso   1.000  H
  H126     1.0000 0.23243  0.49495  0.34565  Biso   1.000  H
  H127     1.0000 0.29721  0.55208  0.30605  Biso   1.000  H
  H128     1.0000 0.28867  0.58767  0.34641  Biso   1.000  H
  N65      1.0000 0.88049  0.99269  0.56264  Biso   1.000  N
  N66      1.0000 0.95663  0.00135  0.47371  Biso   1.000  N
  C193     1.0000 0.88128  0.00897  0.53571  Biso   1.000  C
  C194     1.0000 0.90458  0.00567  0.51377  Biso   1.000  C
  C195     1.0000 0.92839  0.98453  0.51982  Biso   1.000  C
  C196     1.0000 0.92793  0.96757  0.54755  Biso   1.000  C
  C197     1.0000 0.90370  0.97259  0.56847  Biso   1.000  C
  C198     1.0000 0.95415  0.98060  0.49695  Biso   1.000  C
  H129     1.0000 0.86490  0.02349  0.53165  Biso   1.000  H
  H130     1.0000 0.90435  0.01757  0.49495  Biso   1.000  H
  H131     1.0000 0.94395  0.95279  0.55208  Biso   1.000  H
  H132     1.0000 0.90359  0.96133  0.58767  Biso   1.000  H
  N67      1.0000 0.36951  0.49269  0.18736  Biso   1.000  N
  N68      1.0000 0.29337  0.50135  0.27629  Biso   1.000  N
  C199     1.0000 0.36872  0.50897  0.21429  Biso   1.000  C
  C200     1.0000 0.34542  0.50567  0.23623  Biso   1.000  C
  C201     1.0000 0.32161  0.48453  0.23018  Biso   1.000  C
  C202     1.0000 0.32207  0.46757  0.20245  Biso   1.000  C
  C203     1.0000 0.34630  0.47259  0.18153  Biso   1.000  C
  C204     1.0000 0.29585  0.48060  0.25305  Biso   1.000  C
  H133     1.0000 0.38510  0.52349  0.21835  Biso   1.000  H
  H134     1.0000 0.34565  0.51757  0.25505  Biso   1.000  H
  H135     1.0000 0.30605  0.45279  0.19792  Biso   1.000  H
  H136     1.0000 0.34641  0.46133  0.16233  Biso   1.000  H
  N69      1.0000 0.38049  0.75731  0.68736  Biso   1.000  N
  N70      1.0000 0.45663  0.74865  0.77629  Biso   1.000  N
  C205     1.0000 0.38128  0.74103  0.71429  Biso   1.000  C
  C206     1.0000 0.40458  0.74433  0.73623  Biso   1.000  C
  C207     1.0000 0.42839  0.76547  0.73018  Biso   1.000  C
  C208     1.0000 0.42793  0.78243  0.70245  Biso   1.000  C
  C209     1.0000 0.40370  0.77741  0.68153  Biso   1.000  C
  C210     1.0000 0.45415  0.76940  0.75305  Biso   1.000  C
  H137     1.0000 0.36490  0.72651  0.71835  Biso   1.000  H
  H138     1.0000 0.40435  0.73243  0.75505  Biso   1.000  H
  H139     1.0000 0.44395  0.79721  0.69792  Biso   1.000  H
  H140     1.0000 0.40359  0.78867  0.66233  Biso   1.000  H
  N71      1.0000 0.86951  0.25731  0.06264  Biso   1.000  N
  N72      1.0000 0.79337  0.24865  0.97371  Biso   1.000  N
  C211     1.0000 0.86872  0.24103  0.03571  Biso   1.000  C
  C212     1.0000 0.84542  0.24433  0.01377  Biso   1.000  C
  C213     1.0000 0.82161  0.26547  0.01982  Biso   1.000  C
  C214     1.0000 0.82207  0.28243  0.04755  Biso   1.000  C
  C215     1.0000 0.84630  0.27741  0.06847  Biso   1.000  C
  C216     1.0000 0.79585  0.26940  0.99695  Biso   1.000  C
  H141     1.0000 0.88510  0.22651  0.03165  Biso   1.000  H
  H142     1.0000 0.84565  0.23243  0.99495  Biso   1.000  H
  H143     1.0000 0.80605  0.29721  0.05208  Biso   1.000  H
  H144     1.0000 0.84641  0.28867  0.08767  Biso   1.000  H
  N73      1.0000 0.13049  0.81264  0.50731  Biso   1.000  N
  N74      1.0000 0.20663  0.72371  0.49865  Biso   1.000  N
  C217     1.0000 0.13128  0.78571  0.49103  Biso   1.000  C
  C218     1.0000 0.15458  0.76377  0.49433  Biso   1.000  C
  C219     1.0000 0.17839  0.76982  0.51547  Biso   1.000  C
  C220     1.0000 0.17793  0.79755  0.53243  Biso   1.000  C
  C221     1.0000 0.15370  0.81847  0.52741  Biso   1.000  C
  C222     1.0000 0.20415  0.74695  0.51940  Biso   1.000  C
  H145     1.0000 0.11490  0.78165  0.47651  Biso   1.000  H
  H146     1.0000 0.15435  0.74495  0.48243  Biso   1.000  H
  H147     1.0000 0.19395  0.80208  0.54721  Biso   1.000  H
  H148     1.0000 0.15359  0.83767  0.53867  Biso   1.000  H
  N75      1.0000 0.61951  0.43736  0.00731  Biso   1.000  N
  N76      1.0000 0.54337  0.52629  0.99865  Biso   1.000  N
  C223     1.0000 0.61872  0.46429  0.99103  Biso   1.000  C
  C224     1.0000 0.59542  0.48623  0.99433  Biso   1.000  C
  C225     1.0000 0.57161  0.48018  0.01547  Biso   1.000  C
  C226     1.0000 0.57207  0.45245  0.03243  Biso   1.000  C
  C227     1.0000 0.59630  0.43153  0.02741  Biso   1.000  C
  C228     1.0000 0.54585  0.50305  0.01940  Biso   1.000  C
  H149     1.0000 0.63510  0.46835  0.97651  Biso   1.000  H
  H150     1.0000 0.59565  0.50505  0.98243  Biso   1.000  H
  H151     1.0000 0.55605  0.44792  0.04721  Biso   1.000  H
  H152     1.0000 0.59641  0.41233  0.03867  Biso   1.000  H
  N77      1.0000 0.63049  0.93736  0.74269  Biso   1.000  N
  N78      1.0000 0.70663  0.02629  0.75135  Biso   1.000  N
  C229     1.0000 0.63128  0.96429  0.75897  Biso   1.000  C
  C230     1.0000 0.65458  0.98623  0.75567  Biso   1.000  C
  C231     1.0000 0.67839  0.98018  0.73453  Biso   1.000  C
  C232     1.0000 0.67793  0.95245  0.71757  Biso   1.000  C
  C233     1.0000 0.65370  0.93153  0.72259  Biso   1.000  C
  C234     1.0000 0.70415  0.00305  0.73060  Biso   1.000  C
  H153     1.0000 0.61490  0.96835  0.77349  Biso   1.000  H
  H154     1.0000 0.65435  0.00505  0.76757  Biso   1.000  H
  H155     1.0000 0.69395  0.94792  0.70279  Biso   1.000  H
  H156     1.0000 0.65359  0.91233  0.71133  Biso   1.000  H
  N79      1.0000 0.11951  0.31264  0.24269  Biso   1.000  N
  N80      1.0000 0.04337  0.22371  0.25135  Biso   1.000  N
  C235     1.0000 0.11872  0.28571  0.25897  Biso   1.000  C
  C236     1.0000 0.09542  0.26377  0.25567  Biso   1.000  C
  C237     1.0000 0.07161  0.26982  0.23453  Biso   1.000  C
  C238     1.0000 0.07207  0.29755  0.21757  Biso   1.000  C
  C239     1.0000 0.09630  0.31847  0.22259  Biso   1.000  C
  C240     1.0000 0.04585  0.24695  0.23060  Biso   1.000  C
  H157     1.0000 0.13510  0.28165  0.27349  Biso   1.000  H
  H158     1.0000 0.09565  0.24495  0.26757  Biso   1.000  H
  H159     1.0000 0.05605  0.30208  0.20279  Biso   1.000  H
  H160     1.0000 0.09641  0.33767  0.21133  Biso   1.000  H
  N81      1.0000 0.31264  0.74269  0.61951  Biso   1.000  N
  N82      1.0000 0.22371  0.75135  0.54337  Biso   1.000  N
  C241     1.0000 0.28571  0.75897  0.61872  Biso   1.000  C
  C242     1.0000 0.26377  0.75567  0.59542  Biso   1.000  C
  C243     1.0000 0.26982  0.73453  0.57161  Biso   1.000  C
  C244     1.0000 0.29755  0.71757  0.57207  Biso   1.000  C
  C245     1.0000 0.31847  0.72259  0.59630  Biso   1.000  C
  C246     1.0000 0.24695  0.73060  0.54585  Biso   1.000  C
  H161     1.0000 0.28165  0.77349  0.63510  Biso   1.000  H
  H162     1.0000 0.24495  0.76757  0.59565  Biso   1.000  H
  H163     1.0000 0.30208  0.70279  0.55605  Biso   1.000  H
  H164     1.0000 0.33767  0.71133  0.59641  Biso   1.000  H
  N83      1.0000 0.93736  0.24269  0.13049  Biso   1.000  N
  N84      1.0000 0.02629  0.25135  0.20663  Biso   1.000  N
  C247     1.0000 0.96429  0.25897  0.13128  Biso   1.000  C
  C248     1.0000 0.98623  0.25567  0.15458  Biso   1.000  C
  C249     1.0000 0.98018  0.23453  0.17839  Biso   1.000  C
  C250     1.0000 0.95245  0.21757  0.17793  Biso   1.000  C
  C251     1.0000 0.93153  0.22259  0.15370  Biso   1.000  C
  C252     1.0000 0.00305  0.23060  0.20415  Biso   1.000  C
  H165     1.0000 0.96835  0.27349  0.11490  Biso   1.000  H
  H166     1.0000 0.00505  0.26757  0.15435  Biso   1.000  H
  H167     1.0000 0.94792  0.20279  0.19395  Biso   1.000  H
  H168     1.0000 0.91233  0.21133  0.15359  Biso   1.000  H
  N85      1.0000 0.43736  0.50731  0.11951  Biso   1.000  N
  N86      1.0000 0.52629  0.49865  0.04337  Biso   1.000  N
  C253     1.0000 0.46429  0.49103  0.11872  Biso   1.000  C
  C254     1.0000 0.48623  0.49433  0.09542  Biso   1.000  C
  C255     1.0000 0.48018  0.51547  0.07161  Biso   1.000  C
  C256     1.0000 0.45245  0.53243  0.07207  Biso   1.000  C
  C257     1.0000 0.43153  0.52741  0.09630  Biso   1.000  C
  C258     1.0000 0.50305  0.51940  0.04585  Biso   1.000  C
  H169     1.0000 0.46835  0.47651  0.13510  Biso   1.000  H
  H170     1.0000 0.50505  0.48243  0.09565  Biso   1.000  H
  H171     1.0000 0.44792  0.54721  0.05605  Biso   1.000  H
  H172     1.0000 0.41233  0.53867  0.09641  Biso   1.000  H
  N87      1.0000 0.81264  0.00731  0.63049  Biso   1.000  N
  N88      1.0000 0.72371  0.99865  0.70663  Biso   1.000  N
  C259     1.0000 0.78571  0.99103  0.63128  Biso   1.000  C
  C260     1.0000 0.76377  0.99433  0.65458  Biso   1.000  C
  C261     1.0000 0.76982  0.01547  0.67839  Biso   1.000  C
  C262     1.0000 0.79755  0.03243  0.67793  Biso   1.000  C
  C263     1.0000 0.81847  0.02741  0.65370  Biso   1.000  C
  C264     1.0000 0.74695  0.01940  0.70415  Biso   1.000  C
  H173     1.0000 0.78165  0.97651  0.61490  Biso   1.000  H
  H174     1.0000 0.74495  0.98243  0.65435  Biso   1.000  H
  H175     1.0000 0.80208  0.04721  0.69395  Biso   1.000  H
  H176     1.0000 0.83767  0.03867  0.65359  Biso   1.000  H
  N89      1.0000 0.24269  0.63049  0.43736  Biso   1.000  N
  N90      1.0000 0.25135  0.70663  0.52629  Biso   1.000  N
  C265     1.0000 0.25897  0.63128  0.46429  Biso   1.000  C
  C266     1.0000 0.25567  0.65458  0.48623  Biso   1.000  C
  C267     1.0000 0.23453  0.67839  0.48018  Biso   1.000  C
  C268     1.0000 0.21757  0.67793  0.45245  Biso   1.000  C
  C269     1.0000 0.22259  0.65370  0.43153  Biso   1.000  C
  C270     1.0000 0.23060  0.70415  0.50305  Biso   1.000  C
  H177     1.0000 0.27349  0.61490  0.46835  Biso   1.000  H
  H178     1.0000 0.26757  0.65435  0.50505  Biso   1.000  H
  H179     1.0000 0.20279  0.69395  0.44792  Biso   1.000  H
  H180     1.0000 0.21133  0.65359  0.41233  Biso   1.000  H
  N91      1.0000 0.74269  0.11951  0.81264  Biso   1.000  N
  N92      1.0000 0.75135  0.04337  0.72371  Biso   1.000  N
  C271     1.0000 0.75897  0.11872  0.78571  Biso   1.000  C
  C272     1.0000 0.75567  0.09542  0.76377  Biso   1.000  C
  C273     1.0000 0.73453  0.07161  0.76982  Biso   1.000  C
  C274     1.0000 0.71757  0.07207  0.79755  Biso   1.000  C
  C275     1.0000 0.72259  0.09630  0.81847  Biso   1.000  C
  C276     1.0000 0.73060  0.04585  0.74695  Biso   1.000  C
  H181     1.0000 0.77349  0.13510  0.78165  Biso   1.000  H
  H182     1.0000 0.76757  0.09565  0.74495  Biso   1.000  H
  H183     1.0000 0.70279  0.05605  0.80208  Biso   1.000  H
  H184     1.0000 0.71133  0.09641  0.83767  Biso   1.000  H
  N93      1.0000 0.00731  0.13049  0.31264  Biso   1.000  N
  N94      1.0000 0.99865  0.20663  0.22371  Biso   1.000  N
  C277     1.0000 0.99103  0.13128  0.28571  Biso   1.000  C
  C278     1.0000 0.99433  0.15458  0.26377  Biso   1.000  C
  C279     1.0000 0.01547  0.17839  0.26982  Biso   1.000  C
  C280     1.0000 0.03243  0.17793  0.29755  Biso   1.000  C
  C281     1.0000 0.02741  0.15370  0.31847  Biso   1.000  C
  C282     1.0000 0.01940  0.20415  0.24695  Biso   1.000  C
  H185     1.0000 0.97651  0.11490  0.28165  Biso   1.000  H
  H186     1.0000 0.98243  0.15435  0.24495  Biso   1.000  H
  H187     1.0000 0.04721  0.19395  0.30208  Biso   1.000  H
  H188     1.0000 0.03867  0.15359  0.33767  Biso   1.000  H
  N95      1.0000 0.50731  0.61951  0.93736  Biso   1.000  N
  N96      1.0000 0.49865  0.54337  0.02629  Biso   1.000  N
  C283     1.0000 0.49103  0.61872  0.96429  Biso   1.000  C
  C284     1.0000 0.49433  0.59542  0.98623  Biso   1.000  C
  C285     1.0000 0.51547  0.57161  0.98018  Biso   1.000  C
  C286     1.0000 0.53243  0.57207  0.95245  Biso   1.000  C
  C287     1.0000 0.52741  0.59630  0.93153  Biso   1.000  C
  C288     1.0000 0.51940  0.54585  0.00305  Biso   1.000  C
  H189     1.0000 0.47651  0.63510  0.96835  Biso   1.000  H
  H190     1.0000 0.48243  0.59565  0.00505  Biso   1.000  H
  H191     1.0000 0.54721  0.55605  0.94792  Biso   1.000  H
  H192     1.0000 0.53867  0.59641  0.91233  Biso   1.000  H
  Zn13     1.0000 0.09456  0.84456  0.50000  Biso   1.000  Zn
  Zn14     1.0000 0.65544  0.40544  0.00000  Biso   1.000  Zn
  Zn15     1.0000 0.15544  0.34456  0.25000  Biso   1.000  Zn
  Zn16     1.0000 0.59456  0.90544  0.75000  Biso   1.000  Zn
  Zn17     1.0000 0.00000  0.09456  0.34456  Biso   1.000  Zn
  Zn18     1.0000 0.50000  0.65544  0.90544  Biso   1.000  Zn
  Zn19     1.0000 0.75000  0.15544  0.84456  Biso   1.000  Zn
  Zn20     1.0000 0.25000  0.59456  0.40544  Biso   1.000  Zn
  Zn21     1.0000 0.84456  0.00000  0.59456  Biso   1.000  Zn
  Zn22     1.0000 0.40544  0.50000  0.15544  Biso   1.000  Zn
  Zn23     1.0000 0.34456  0.75000  0.65544  Biso   1.000  Zn
  Zn24     1.0000 0.90544  0.25000  0.09456  Biso   1.000  Zn
  N97      1.0000 0.56264  0.38049  0.49269  Biso   1.000  N
  N98      1.0000 0.47371  0.45663  0.50135  Biso   1.000  N
  C289     1.0000 0.53571  0.38128  0.50897  Biso   1.000  C
  C290     1.0000 0.51377  0.40458  0.50567  Biso   1.000  C
  C291     1.0000 0.51982  0.42839  0.48453  Biso   1.000  C
  C292     1.0000 0.54755  0.42793  0.46757  Biso   1.000  C
  C293     1.0000 0.56847  0.40370  0.47259  Biso   1.000  C
  C294     1.0000 0.49695  0.45415  0.48060  Biso   1.000  C
  H193     1.0000 0.53165  0.36490  0.52349  Biso   1.000  H
  H194     1.0000 0.49495  0.40435  0.51757  Biso   1.000  H
  H195     1.0000 0.55208  0.44395  0.45279  Biso   1.000  H
  H196     1.0000 0.58767  0.40359  0.46133  Biso   1.000  H
  N99      1.0000 0.18736  0.86951  0.99269  Biso   1.000  N
  N100     1.0000 0.27629  0.79337  0.00135  Biso   1.000  N
  C295     1.0000 0.21429  0.86872  0.00897  Biso   1.000  C
  C296     1.0000 0.23623  0.84542  0.00567  Biso   1.000  C
  C297     1.0000 0.23018  0.82161  0.98453  Biso   1.000  C
  C298     1.0000 0.20245  0.82207  0.96757  Biso   1.000  C
  C299     1.0000 0.18153  0.84630  0.97259  Biso   1.000  C
  C300     1.0000 0.25305  0.79585  0.98060  Biso   1.000  C
  H197     1.0000 0.21835  0.88510  0.02349  Biso   1.000  H
  H198     1.0000 0.25505  0.84565  0.01757  Biso   1.000  H
  H199     1.0000 0.19792  0.80605  0.95279  Biso   1.000  H
  H200     1.0000 0.16233  0.84641  0.96133  Biso   1.000  H
  N101     1.0000 0.68736  0.88049  0.25731  Biso   1.000  N
  N102     1.0000 0.77629  0.95663  0.24865  Biso   1.000  N
  C301     1.0000 0.71429  0.88128  0.24103  Biso   1.000  C
  C302     1.0000 0.73623  0.90458  0.24433  Biso   1.000  C
  C303     1.0000 0.73018  0.92839  0.26547  Biso   1.000  C
  C304     1.0000 0.70245  0.92793  0.28243  Biso   1.000  C
  C305     1.0000 0.68153  0.90370  0.27741  Biso   1.000  C
  C306     1.0000 0.75305  0.95415  0.26940  Biso   1.000  C
  H201     1.0000 0.71835  0.86490  0.22651  Biso   1.000  H
  H202     1.0000 0.75505  0.90435  0.23243  Biso   1.000  H
  H203     1.0000 0.69792  0.94395  0.29721  Biso   1.000  H
  H204     1.0000 0.66233  0.90359  0.28867  Biso   1.000  H
  N103     1.0000 0.06264  0.36951  0.75731  Biso   1.000  N
  N104     1.0000 0.97371  0.29337  0.74865  Biso   1.000  N
  C307     1.0000 0.03571  0.36872  0.74103  Biso   1.000  C
  C308     1.0000 0.01377  0.34542  0.74433  Biso   1.000  C
  C309     1.0000 0.01982  0.32161  0.76547  Biso   1.000  C
  C310     1.0000 0.04755  0.32207  0.78243  Biso   1.000  C
  C311     1.0000 0.06847  0.34630  0.77741  Biso   1.000  C
  C312     1.0000 0.99695  0.29585  0.76940  Biso   1.000  C
  H205     1.0000 0.03165  0.38510  0.72651  Biso   1.000  H
  H206     1.0000 0.99495  0.34565  0.73243  Biso   1.000  H
  H207     1.0000 0.05208  0.30605  0.79721  Biso   1.000  H
  H208     1.0000 0.08767  0.34641  0.78867  Biso   1.000  H
  N105     1.0000 0.49269  0.56264  0.38049  Biso   1.000  N
  N106     1.0000 0.50135  0.47371  0.45663  Biso   1.000  N
  C313     1.0000 0.50897  0.53571  0.38128  Biso   1.000  C
  C314     1.0000 0.50567  0.51377  0.40458  Biso   1.000  C
  C315     1.0000 0.48453  0.51982  0.42839  Biso   1.000  C
  C316     1.0000 0.46757  0.54755  0.42793  Biso   1.000  C
  C317     1.0000 0.47259  0.56847  0.40370  Biso   1.000  C
  C318     1.0000 0.48060  0.49695  0.45415  Biso   1.000  C
  H209     1.0000 0.52349  0.53165  0.36490  Biso   1.000  H
  H210     1.0000 0.51757  0.49495  0.40435  Biso   1.000  H
  H211     1.0000 0.45279  0.55208  0.44395  Biso   1.000  H
  H212     1.0000 0.46133  0.58767  0.40359  Biso   1.000  H
  N107     1.0000 0.99269  0.18736  0.86951  Biso   1.000  N
  N108     1.0000 0.00135  0.27629  0.79337  Biso   1.000  N
  C319     1.0000 0.00897  0.21429  0.86872  Biso   1.000  C
  C320     1.0000 0.00567  0.23623  0.84542  Biso   1.000  C
  C321     1.0000 0.98453  0.23018  0.82161  Biso   1.000  C
  C322     1.0000 0.96757  0.20245  0.82207  Biso   1.000  C
  C323     1.0000 0.97259  0.18153  0.84630  Biso   1.000  C
  C324     1.0000 0.98060  0.25305  0.79585  Biso   1.000  C
  H213     1.0000 0.02349  0.21835  0.88510  Biso   1.000  H
  H214     1.0000 0.01757  0.25505  0.84565  Biso   1.000  H
  H215     1.0000 0.95279  0.19792  0.80605  Biso   1.000  H
  H216     1.0000 0.96133  0.16233  0.84641  Biso   1.000  H
  N109     1.0000 0.25731  0.68736  0.88049  Biso   1.000  N
  N110     1.0000 0.24865  0.77629  0.95663  Biso   1.000  N
  C325     1.0000 0.24103  0.71429  0.88128  Biso   1.000  C
  C326     1.0000 0.24433  0.73623  0.90458  Biso   1.000  C
  C327     1.0000 0.26547  0.73018  0.92839  Biso   1.000  C
  C328     1.0000 0.28243  0.70245  0.92793  Biso   1.000  C
  C329     1.0000 0.27741  0.68153  0.90370  Biso   1.000  C
  C330     1.0000 0.26940  0.75305  0.95415  Biso   1.000  C
  H217     1.0000 0.22651  0.71835  0.86490  Biso   1.000  H
  H218     1.0000 0.23243  0.75505  0.90435  Biso   1.000  H
  H219     1.0000 0.29721  0.69792  0.94395  Biso   1.000  H
  H220     1.0000 0.28867  0.66233  0.90359  Biso   1.000  H
  N111     1.0000 0.75731  0.06264  0.36951  Biso   1.000  N
  N112     1.0000 0.74865  0.97371  0.29337  Biso   1.000  N
  C331     1.0000 0.74103  0.03571  0.36872  Biso   1.000  C
  C332     1.0000 0.74433  0.01377  0.34542  Biso   1.000  C
  C333     1.0000 0.76547  0.01982  0.32161  Biso   1.000  C
  C334     1.0000 0.78243  0.04755  0.32207  Biso   1.000  C
  C335     1.0000 0.77741  0.06847  0.34630  Biso   1.000  C
  C336     1.0000 0.76940  0.99695  0.29585  Biso   1.000  C
  H221     1.0000 0.72651  0.03165  0.38510  Biso   1.000  H
  H222     1.0000 0.73243  0.99495  0.34565  Biso   1.000  H
  H223     1.0000 0.79721  0.05208  0.30605  Biso   1.000  H
  H224     1.0000 0.78867  0.08767  0.34641  Biso   1.000  H
  N113     1.0000 0.38049  0.49269  0.56264  Biso   1.000  N
  N114     1.0000 0.45663  0.50135  0.47371  Biso   1.000  N
  C337     1.0000 0.38128  0.50897  0.53571  Biso   1.000  C
  C338     1.0000 0.40458  0.50567  0.51377  Biso   1.000  C
  C339     1.0000 0.42839  0.48453  0.51982  Biso   1.000  C
  C340     1.0000 0.42793  0.46757  0.54755  Biso   1.000  C
  C341     1.0000 0.40370  0.47259  0.56847  Biso   1.000  C
  C342     1.0000 0.45415  0.48060  0.49695  Biso   1.000  C
  H225     1.0000 0.36490  0.52349  0.53165  Biso   1.000  H
  H226     1.0000 0.40435  0.51757  0.49495  Biso   1.000  H
  H227     1.0000 0.44395  0.45279  0.55208  Biso   1.000  H
  H228     1.0000 0.40359  0.46133  0.58767  Biso   1.000  H
  N115     1.0000 0.86951  0.99269  0.18736  Biso   1.000  N
  N116     1.0000 0.79337  0.00135  0.27629  Biso   1.000  N
  C343     1.0000 0.86872  0.00897  0.21429  Biso   1.000  C
  C344     1.0000 0.84542  0.00567  0.23623  Biso   1.000  C
  C345     1.0000 0.82161  0.98453  0.23018  Biso   1.000  C
  C346     1.0000 0.82207  0.96757  0.20245  Biso   1.000  C
  C347     1.0000 0.84630  0.97259  0.18153  Biso   1.000  C
  C348     1.0000 0.79585  0.98060  0.25305  Biso   1.000  C
  H229     1.0000 0.88510  0.02349  0.21835  Biso   1.000  H
  H230     1.0000 0.84565  0.01757  0.25505  Biso   1.000  H
  H231     1.0000 0.80605  0.95279  0.19792  Biso   1.000  H
  H232     1.0000 0.84641  0.96133  0.16233  Biso   1.000  H
  N117     1.0000 0.88049  0.25731  0.68736  Biso   1.000  N
  N118     1.0000 0.95663  0.24865  0.77629  Biso   1.000  N
  C349     1.0000 0.88128  0.24103  0.71429  Biso   1.000  C
  C350     1.0000 0.90458  0.24433  0.73623  Biso   1.000  C
  C351     1.0000 0.92839  0.26547  0.73018  Biso   1.000  C
  C352     1.0000 0.92793  0.28243  0.70245  Biso   1.000  C
  C353     1.0000 0.90370  0.27741  0.68153  Biso   1.000  C
  C354     1.0000 0.95415  0.26940  0.75305  Biso   1.000  C
  H233     1.0000 0.86490  0.22651  0.71835  Biso   1.000  H
  H234     1.0000 0.90435  0.23243  0.75505  Biso   1.000  H
  H235     1.0000 0.94395  0.29721  0.69792  Biso   1.000  H
  H236     1.0000 0.90359  0.28867  0.66233  Biso   1.000  H
  N119     1.0000 0.36951  0.75731  0.06264  Biso   1.000  N
  N120     1.0000 0.29337  0.74865  0.97371  Biso   1.000  N
  C355     1.0000 0.36872  0.74103  0.03571  Biso   1.000  C
  C356     1.0000 0.34542  0.74433  0.01377  Biso   1.000  C
  C357     1.0000 0.32161  0.76547  0.01982  Biso   1.000  C
  C358     1.0000 0.32207  0.78243  0.04755  Biso   1.000  C
  C359     1.0000 0.34630  0.77741  0.06847  Biso   1.000  C
  C360     1.0000 0.29585  0.76940  0.99695  Biso   1.000  C
  H237     1.0000 0.38510  0.72651  0.03165  Biso   1.000  H
  H238     1.0000 0.34565  0.73243  0.99495  Biso   1.000  H
  H239     1.0000 0.30605  0.79721  0.05208  Biso   1.000  H
  H240     1.0000 0.34641  0.78867  0.08767  Biso   1.000  H
  N121     1.0000 0.63049  0.31264  0.50731  Biso   1.000  N
  N122     1.0000 0.70663  0.22371  0.49865  Biso   1.000  N
  C361     1.0000 0.63128  0.28571  0.49103  Biso   1.000  C
  C362     1.0000 0.65458  0.26377  0.49433  Biso   1.000  C
  C363     1.0000 0.67839  0.26982  0.51547  Biso   1.000  C
  C364     1.0000 0.67793  0.29755  0.53243  Biso   1.000  C
  C365     1.0000 0.65370  0.31847  0.52741  Biso   1.000  C
  C366     1.0000 0.70415  0.24695  0.51940  Biso   1.000  C
  H241     1.0000 0.61490  0.28165  0.47651  Biso   1.000  H
  H242     1.0000 0.65435  0.24495  0.48243  Biso   1.000  H
  H243     1.0000 0.69395  0.30208  0.54721  Biso   1.000  H
  H244     1.0000 0.65359  0.33767  0.53867  Biso   1.000  H
  N123     1.0000 0.11951  0.93736  0.00731  Biso   1.000  N
  N124     1.0000 0.04337  0.02629  0.99865  Biso   1.000  N
  C367     1.0000 0.11872  0.96429  0.99103  Biso   1.000  C
  C368     1.0000 0.09542  0.98623  0.99433  Biso   1.000  C
  C369     1.0000 0.07161  0.98018  0.01547  Biso   1.000  C
  C370     1.0000 0.07207  0.95245  0.03243  Biso   1.000  C
  C371     1.0000 0.09630  0.93153  0.02741  Biso   1.000  C
  C372     1.0000 0.04585  0.00305  0.01940  Biso   1.000  C
  H245     1.0000 0.13510  0.96835  0.97651  Biso   1.000  H
  H246     1.0000 0.09565  0.00505  0.98243  Biso   1.000  H
  H247     1.0000 0.05605  0.94792  0.04721  Biso   1.000  H
  H248     1.0000 0.09641  0.91233  0.03867  Biso   1.000  H
  N125     1.0000 0.13049  0.43736  0.74269  Biso   1.000  N
  N126     1.0000 0.20663  0.52629  0.75135  Biso   1.000  N
  C373     1.0000 0.13128  0.46429  0.75897  Biso   1.000  C
  C374     1.0000 0.15458  0.48623  0.75567  Biso   1.000  C
  C375     1.0000 0.17839  0.48018  0.73453  Biso   1.000  C
  C376     1.0000 0.17793  0.45245  0.71757  Biso   1.000  C
  C377     1.0000 0.15370  0.43153  0.72259  Biso   1.000  C
  C378     1.0000 0.20415  0.50305  0.73060  Biso   1.000  C
  H249     1.0000 0.11490  0.46835  0.77349  Biso   1.000  H
  H250     1.0000 0.15435  0.50505  0.76757  Biso   1.000  H
  H251     1.0000 0.19395  0.44792  0.70279  Biso   1.000  H
  H252     1.0000 0.15359  0.41233  0.71133  Biso   1.000  H
  N127     1.0000 0.61951  0.81264  0.24269  Biso   1.000  N
  N128     1.0000 0.54337  0.72371  0.25135  Biso   1.000  N
  C379     1.0000 0.61872  0.78571  0.25897  Biso   1.000  C
  C380     1.0000 0.59542  0.76377  0.25567  Biso   1.000  C
  C381     1.0000 0.57161  0.76982  0.23453  Biso   1.000  C
  C382     1.0000 0.57207  0.79755  0.21757  Biso   1.000  C
  C383     1.0000 0.59630  0.81847  0.22259  Biso   1.000  C
  C384     1.0000 0.54585  0.74695  0.23060  Biso   1.000  C
  H253     1.0000 0.63510  0.78165  0.27349  Biso   1.000  H
  H254     1.0000 0.59565  0.74495  0.26757  Biso   1.000  H
  H255     1.0000 0.55605  0.80208  0.20279  Biso   1.000  H
  H256     1.0000 0.59641  0.83767  0.21133  Biso   1.000  H
  N129     1.0000 0.81264  0.24269  0.61951  Biso   1.000  N
  N130     1.0000 0.72371  0.25135  0.54337  Biso   1.000  N
  C385     1.0000 0.78571  0.25897  0.61872  Biso   1.000  C
  C386     1.0000 0.76377  0.25567  0.59542  Biso   1.000  C
  C387     1.0000 0.76982  0.23453  0.57161  Biso   1.000  C
  C388     1.0000 0.79755  0.21757  0.57207  Biso   1.000  C
  C389     1.0000 0.81847  0.22259  0.59630  Biso   1.000  C
  C390     1.0000 0.74695  0.23060  0.54585  Biso   1.000  C
  H257     1.0000 0.78165  0.27349  0.63510  Biso   1.000  H
  H258     1.0000 0.74495  0.26757  0.59565  Biso   1.000  H
  H259     1.0000 0.80208  0.20279  0.55605  Biso   1.000  H
  H260     1.0000 0.83767  0.21133  0.59641  Biso   1.000  H
  N131     1.0000 0.43736  0.74269  0.13049  Biso   1.000  N
  N132     1.0000 0.52629  0.75135  0.20663  Biso   1.000  N
  C391     1.0000 0.46429  0.75897  0.13128  Biso   1.000  C
  C392     1.0000 0.48623  0.75567  0.15458  Biso   1.000  C
  C393     1.0000 0.48018  0.73453  0.17839  Biso   1.000  C
  C394     1.0000 0.45245  0.71757  0.17793  Biso   1.000  C
  C395     1.0000 0.43153  0.72259  0.15370  Biso   1.000  C
  C396     1.0000 0.50305  0.73060  0.20415  Biso   1.000  C
  H261     1.0000 0.46835  0.77349  0.11490  Biso   1.000  H
  H262     1.0000 0.50505  0.76757  0.15435  Biso   1.000  H
  H263     1.0000 0.44792  0.70279  0.19395  Biso   1.000  H
  H264     1.0000 0.41233  0.71133  0.15359  Biso   1.000  H
  N133     1.0000 0.93736  0.00731  0.11951  Biso   1.000  N
  N134     1.0000 0.02629  0.99865  0.04337  Biso   1.000  N
  C397     1.0000 0.96429  0.99103  0.11872  Biso   1.000  C
  C398     1.0000 0.98623  0.99433  0.09542  Biso   1.000  C
  C399     1.0000 0.98018  0.01547  0.07161  Biso   1.000  C
  C400     1.0000 0.95245  0.03243  0.07207  Biso   1.000  C
  C401     1.0000 0.93153  0.02741  0.09630  Biso   1.000  C
  C402     1.0000 0.00305  0.01940  0.04585  Biso   1.000  C
  H265     1.0000 0.96835  0.97651  0.13510  Biso   1.000  H
  H266     1.0000 0.00505  0.98243  0.09565  Biso   1.000  H
  H267     1.0000 0.94792  0.04721  0.05605  Biso   1.000  H
  H268     1.0000 0.91233  0.03867  0.09641  Biso   1.000  H
  N135     1.0000 0.31264  0.50731  0.63049  Biso   1.000  N
  N136     1.0000 0.22371  0.49865  0.70663  Biso   1.000  N
  C403     1.0000 0.28571  0.49103  0.63128  Biso   1.000  C
  C404     1.0000 0.26377  0.49433  0.65458  Biso   1.000  C
  C405     1.0000 0.26982  0.51547  0.67839  Biso   1.000  C
  C406     1.0000 0.29755  0.53243  0.67793  Biso   1.000  C
  C407     1.0000 0.31847  0.52741  0.65370  Biso   1.000  C
  C408     1.0000 0.24695  0.51940  0.70415  Biso   1.000  C
  H269     1.0000 0.28165  0.47651  0.61490  Biso   1.000  H
  H270     1.0000 0.24495  0.48243  0.65435  Biso   1.000  H
  H271     1.0000 0.30208  0.54721  0.69395  Biso   1.000  H
  H272     1.0000 0.33767  0.53867  0.65359  Biso   1.000  H
  N137     1.0000 0.74269  0.13049  0.43736  Biso   1.000  N
  N138     1.0000 0.75135  0.20663  0.52629  Biso   1.000  N
  C409     1.0000 0.75897  0.13128  0.46429  Biso   1.000  C
  C410     1.0000 0.75567  0.15458  0.48623  Biso   1.000  C
  C411     1.0000 0.73453  0.17839  0.48018  Biso   1.000  C
  C412     1.0000 0.71757  0.17793  0.45245  Biso   1.000  C
  C413     1.0000 0.72259  0.15370  0.43153  Biso   1.000  C
  C414     1.0000 0.73060  0.20415  0.50305  Biso   1.000  C
  H273     1.0000 0.77349  0.11490  0.46835  Biso   1.000  H
  H274     1.0000 0.76757  0.15435  0.50505  Biso   1.000  H
  H275     1.0000 0.70279  0.19395  0.44792  Biso   1.000  H
  H276     1.0000 0.71133  0.15359  0.41233  Biso   1.000  H
  N139     1.0000 0.24269  0.61951  0.81264  Biso   1.000  N
  N140     1.0000 0.25135  0.54337  0.72371  Biso   1.000  N
  C415     1.0000 0.25897  0.61872  0.78571  Biso   1.000  C
  C416     1.0000 0.25567  0.59542  0.76377  Biso   1.000  C
  C417     1.0000 0.23453  0.57161  0.76982  Biso   1.000  C
  C418     1.0000 0.21757  0.57207  0.79755  Biso   1.000  C
  C419     1.0000 0.22259  0.59630  0.81847  Biso   1.000  C
  C420     1.0000 0.23060  0.54585  0.74695  Biso   1.000  C
  H277     1.0000 0.27349  0.63510  0.78165  Biso   1.000  H
  H278     1.0000 0.26757  0.59565  0.74495  Biso   1.000  H
  H279     1.0000 0.20279  0.55605  0.80208  Biso   1.000  H
  H280     1.0000 0.21133  0.59641  0.83767  Biso   1.000  H
  N141     1.0000 0.50731  0.63049  0.31264  Biso   1.000  N
  N142     1.0000 0.49865  0.70663  0.22371  Biso   1.000  N
  C421     1.0000 0.49103  0.63128  0.28571  Biso   1.000  C
  C422     1.0000 0.49433  0.65458  0.26377  Biso   1.000  C
  C423     1.0000 0.51547  0.67839  0.26982  Biso   1.000  C
  C424     1.0000 0.53243  0.67793  0.29755  Biso   1.000  C
  C425     1.0000 0.52741  0.65370  0.31847  Biso   1.000  C
  C426     1.0000 0.51940  0.70415  0.24695  Biso   1.000  C
  H281     1.0000 0.47651  0.61490  0.28165  Biso   1.000  H
  H282     1.0000 0.48243  0.65435  0.24495  Biso   1.000  H
  H283     1.0000 0.54721  0.69395  0.30208  Biso   1.000  H
  H284     1.0000 0.53867  0.65359  0.33767  Biso   1.000  H
  N143     1.0000 0.00731  0.11951  0.93736  Biso   1.000  N
  N144     1.0000 0.99865  0.04337  0.02629  Biso   1.000  N
  C427     1.0000 0.99103  0.11872  0.96429  Biso   1.000  C
  C428     1.0000 0.99433  0.09542  0.98623  Biso   1.000  C
  C429     1.0000 0.01547  0.07161  0.98018  Biso   1.000  C
  C430     1.0000 0.03243  0.07207  0.95245  Biso   1.000  C
  C431     1.0000 0.02741  0.09630  0.93153  Biso   1.000  C
  C432     1.0000 0.01940  0.04585  0.00305  Biso   1.000  C
  H285     1.0000 0.97651  0.13510  0.96835  Biso   1.000  H
  H286     1.0000 0.98243  0.09565  0.00505  Biso   1.000  H
  H287     1.0000 0.04721  0.05605  0.94792  Biso   1.000  H
  H288     1.0000 0.03867  0.09641  0.91233  Biso   1.000  H
  Zn25     1.0000 0.59456  0.34456  0.50000  Biso   1.000  Zn
  Zn26     1.0000 0.15544  0.90544  0.00000  Biso   1.000  Zn
  Zn27     1.0000 0.65544  0.84456  0.25000  Biso   1.000  Zn
  Zn28     1.0000 0.09456  0.40544  0.75000  Biso   1.000  Zn
  Zn29     1.0000 0.50000  0.59456  0.34456  Biso   1.000  Zn
  Zn30     1.0000 0.00000  0.15544  0.90544  Biso   1.000  Zn
  Zn31     1.0000 0.25000  0.65544  0.84456  Biso   1.000  Zn
  Zn32     1.0000 0.75000  0.09456  0.40544  Biso   1.000  Zn
  Zn33     1.0000 0.34456  0.50000  0.59456  Biso   1.000  Zn
  Zn34     1.0000 0.90544  0.00000  0.15544  Biso   1.000  Zn
  Zn35     1.0000 0.84456  0.25000  0.65544  Biso   1.000  Zn
  Zn36     1.0000 0.40544  0.75000  0.09456  Biso   1.000  Zn
  N145     1.0000 0.56264  0.88049  0.99269  Biso   1.000  N
  N146     1.0000 0.47371  0.95663  0.00135  Biso   1.000  N
  C433     1.0000 0.53571  0.88128  0.00897  Biso   1.000  C
  C434     1.0000 0.51377  0.90458  0.00567  Biso   1.000  C
  C435     1.0000 0.51982  0.92839  0.98453  Biso   1.000  C
  C436     1.0000 0.54755  0.92793  0.96757  Biso   1.000  C
  C437     1.0000 0.56847  0.90370  0.97259  Biso   1.000  C
  C438     1.0000 0.49695  0.95415  0.98060  Biso   1.000  C
  H289     1.0000 0.53165  0.86490  0.02349  Biso   1.000  H
  H290     1.0000 0.49495  0.90435  0.01757  Biso   1.000  H
  H291     1.0000 0.55208  0.94395  0.95279  Biso   1.000  H
  H292     1.0000 0.58767  0.90359  0.96133  Biso   1.000  H
  N147     1.0000 0.18736  0.36951  0.49269  Biso   1.000  N
  N148     1.0000 0.27629  0.29337  0.50135  Biso   1.000  N
  C439     1.0000 0.21429  0.36872  0.50897  Biso   1.000  C
  C440     1.0000 0.23623  0.34542  0.50567  Biso   1.000  C
  C441     1.0000 0.23018  0.32161  0.48453  Biso   1.000  C
  C442     1.0000 0.20245  0.32207  0.46757  Biso   1.000  C
  C443     1.0000 0.18153  0.34630  0.47259  Biso   1.000  C
  C444     1.0000 0.25305  0.29585  0.48060  Biso   1.000  C
  H293     1.0000 0.21835  0.38510  0.52349  Biso   1.000  H
  H294     1.0000 0.25505  0.34565  0.51757  Biso   1.000  H
  H295     1.0000 0.19792  0.30605  0.45279  Biso   1.000  H
  H296     1.0000 0.16233  0.34641  0.46133  Biso   1.000  H
  N149     1.0000 0.68736  0.38049  0.75731  Biso   1.000  N
  N150     1.0000 0.77629  0.45663  0.74865  Biso   1.000  N
  C445     1.0000 0.71429  0.38128  0.74103  Biso   1.000  C
  C446     1.0000 0.73623  0.40458  0.74433  Biso   1.000  C
  C447     1.0000 0.73018  0.42839  0.76547  Biso   1.000  C
  C448     1.0000 0.70245  0.42793  0.78243  Biso   1.000  C
  C449     1.0000 0.68153  0.40370  0.77741  Biso   1.000  C
  C450     1.0000 0.75305  0.45415  0.76940  Biso   1.000  C
  H297     1.0000 0.71835  0.36490  0.72651  Biso   1.000  H
  H298     1.0000 0.75505  0.40435  0.73243  Biso   1.000  H
  H299     1.0000 0.69792  0.44395  0.79721  Biso   1.000  H
  H300     1.0000 0.66233  0.40359  0.78867  Biso   1.000  H
  N151     1.0000 0.06264  0.86951  0.25731  Biso   1.000  N
  N152     1.0000 0.97371  0.79337  0.24865  Biso   1.000  N
  C451     1.0000 0.03571  0.86872  0.24103  Biso   1.000  C
  C452     1.0000 0.01377  0.84542  0.24433  Biso   1.000  C
  C453     1.0000 0.01982  0.82161  0.26547  Biso   1.000  C
  C454     1.0000 0.04755  0.82207  0.28243  Biso   1.000  C
  C455     1.0000 0.06847  0.84630  0.27741  Biso   1.000  C
  C456     1.0000 0.99695  0.79585  0.26940  Biso   1.000  C
  H301     1.0000 0.03165  0.88510  0.22651  Biso   1.000  H
  H302     1.0000 0.99495  0.84565  0.23243  Biso   1.000  H
  H303     1.0000 0.05208  0.80605  0.29721  Biso   1.000  H
  H304     1.0000 0.08767  0.84641  0.28867  Biso   1.000  H
  N153     1.0000 0.49269  0.06264  0.88049  Biso   1.000  N
  N154     1.0000 0.50135  0.97371  0.95663  Biso   1.000  N
  C457     1.0000 0.50897  0.03571  0.88128  Biso   1.000  C
  C458     1.0000 0.50567  0.01377  0.90458  Biso   1.000  C
  C459     1.0000 0.48453  0.01982  0.92839  Biso   1.000  C
  C460     1.0000 0.46757  0.04755  0.92793  Biso   1.000  C
  C461     1.0000 0.47259  0.06847  0.90370  Biso   1.000  C
  C462     1.0000 0.48060  0.99695  0.95415  Biso   1.000  C
  H305     1.0000 0.52349  0.03165  0.86490  Biso   1.000  H
  H306     1.0000 0.51757  0.99495  0.90435  Biso   1.000  H
  H307     1.0000 0.45279  0.05208  0.94395  Biso   1.000  H
  H308     1.0000 0.46133  0.08767  0.90359  Biso   1.000  H
  N155     1.0000 0.99269  0.68736  0.36951  Biso   1.000  N
  N156     1.0000 0.00135  0.77629  0.29337  Biso   1.000  N
  C463     1.0000 0.00897  0.71429  0.36872  Biso   1.000  C
  C464     1.0000 0.00567  0.73623  0.34542  Biso   1.000  C
  C465     1.0000 0.98453  0.73018  0.32161  Biso   1.000  C
  C466     1.0000 0.96757  0.70245  0.32207  Biso   1.000  C
  C467     1.0000 0.97259  0.68153  0.34630  Biso   1.000  C
  C468     1.0000 0.98060  0.75305  0.29585  Biso   1.000  C
  H309     1.0000 0.02349  0.71835  0.38510  Biso   1.000  H
  H310     1.0000 0.01757  0.75505  0.34565  Biso   1.000  H
  H311     1.0000 0.95279  0.69792  0.30605  Biso   1.000  H
  H312     1.0000 0.96133  0.66233  0.34641  Biso   1.000  H
  N157     1.0000 0.25731  0.18736  0.38049  Biso   1.000  N
  N158     1.0000 0.24865  0.27629  0.45663  Biso   1.000  N
  C469     1.0000 0.24103  0.21429  0.38128  Biso   1.000  C
  C470     1.0000 0.24433  0.23623  0.40458  Biso   1.000  C
  C471     1.0000 0.26547  0.23018  0.42839  Biso   1.000  C
  C472     1.0000 0.28243  0.20245  0.42793  Biso   1.000  C
  C473     1.0000 0.27741  0.18153  0.40370  Biso   1.000  C
  C474     1.0000 0.26940  0.25305  0.45415  Biso   1.000  C
  H313     1.0000 0.22651  0.21835  0.36490  Biso   1.000  H
  H314     1.0000 0.23243  0.25505  0.40435  Biso   1.000  H
  H315     1.0000 0.29721  0.19792  0.44395  Biso   1.000  H
  H316     1.0000 0.28867  0.16233  0.40359  Biso   1.000  H
  N159     1.0000 0.75731  0.56264  0.86951  Biso   1.000  N
  N160     1.0000 0.74865  0.47371  0.79337  Biso   1.000  N
  C475     1.0000 0.74103  0.53571  0.86872  Biso   1.000  C
  C476     1.0000 0.74433  0.51377  0.84542  Biso   1.000  C
  C477     1.0000 0.76547  0.51982  0.82161  Biso   1.000  C
  C478     1.0000 0.78243  0.54755  0.82207  Biso   1.000  C
  C479     1.0000 0.77741  0.56847  0.84630  Biso   1.000  C
  C480     1.0000 0.76940  0.49695  0.79585  Biso   1.000  C
  H317     1.0000 0.72651  0.53165  0.88510  Biso   1.000  H
  H318     1.0000 0.73243  0.49495  0.84565  Biso   1.000  H
  H319     1.0000 0.79721  0.55208  0.80605  Biso   1.000  H
  H320     1.0000 0.78867  0.58767  0.84641  Biso   1.000  H
  N161     1.0000 0.38049  0.99269  0.06264  Biso   1.000  N
  N162     1.0000 0.45663  0.00135  0.97371  Biso   1.000  N
  C481     1.0000 0.38128  0.00897  0.03571  Biso   1.000  C
  C482     1.0000 0.40458  0.00567  0.01377  Biso   1.000  C
  C483     1.0000 0.42839  0.98453  0.01982  Biso   1.000  C
  C484     1.0000 0.42793  0.96757  0.04755  Biso   1.000  C
  C485     1.0000 0.40370  0.97259  0.06847  Biso   1.000  C
  C486     1.0000 0.45415  0.98060  0.99695  Biso   1.000  C
  H321     1.0000 0.36490  0.02349  0.03165  Biso   1.000  H
  H322     1.0000 0.40435  0.01757  0.99495  Biso   1.000  H
  H323     1.0000 0.44395  0.95279  0.05208  Biso   1.000  H
  H324     1.0000 0.40359  0.96133  0.08767  Biso   1.000  H
  N163     1.0000 0.86951  0.49269  0.68736  Biso   1.000  N
  N164     1.0000 0.79337  0.50135  0.77629  Biso   1.000  N
  C487     1.0000 0.86872  0.50897  0.71429  Biso   1.000  C
  C488     1.0000 0.84542  0.50567  0.73623  Biso   1.000  C
  C489     1.0000 0.82161  0.48453  0.73018  Biso   1.000  C
  C490     1.0000 0.82207  0.46757  0.70245  Biso   1.000  C
  C491     1.0000 0.84630  0.47259  0.68153  Biso   1.000  C
  C492     1.0000 0.79585  0.48060  0.75305  Biso   1.000  C
  H325     1.0000 0.88510  0.52349  0.71835  Biso   1.000  H
  H326     1.0000 0.84565  0.51757  0.75505  Biso   1.000  H
  H327     1.0000 0.80605  0.45279  0.69792  Biso   1.000  H
  H328     1.0000 0.84641  0.46133  0.66233  Biso   1.000  H
  N165     1.0000 0.88049  0.75731  0.18736  Biso   1.000  N
  N166     1.0000 0.95663  0.74865  0.27629  Biso   1.000  N
  C493     1.0000 0.88128  0.74103  0.21429  Biso   1.000  C
  C494     1.0000 0.90458  0.74433  0.23623  Biso   1.000  C
  C495     1.0000 0.92839  0.76547  0.23018  Biso   1.000  C
  C496     1.0000 0.92793  0.78243  0.20245  Biso   1.000  C
  C497     1.0000 0.90370  0.77741  0.18153  Biso   1.000  C
  C498     1.0000 0.95415  0.76940  0.25305  Biso   1.000  C
  H329     1.0000 0.86490  0.72651  0.21835  Biso   1.000  H
  H330     1.0000 0.90435  0.73243  0.25505  Biso   1.000  H
  H331     1.0000 0.94395  0.79721  0.19792  Biso   1.000  H
  H332     1.0000 0.90359  0.78867  0.16233  Biso   1.000  H
  N167     1.0000 0.36951  0.25731  0.56264  Biso   1.000  N
  N168     1.0000 0.29337  0.24865  0.47371  Biso   1.000  N
  C499     1.0000 0.36872  0.24103  0.53571  Biso   1.000  C
  C500     1.0000 0.34542  0.24433  0.51377  Biso   1.000  C
  C501     1.0000 0.32161  0.26547  0.51982  Biso   1.000  C
  C502     1.0000 0.32207  0.28243  0.54755  Biso   1.000  C
  C503     1.0000 0.34630  0.27741  0.56847  Biso   1.000  C
  C504     1.0000 0.29585  0.26940  0.49695  Biso   1.000  C
  H333     1.0000 0.38510  0.22651  0.53165  Biso   1.000  H
  H334     1.0000 0.34565  0.23243  0.49495  Biso   1.000  H
  H335     1.0000 0.30605  0.29721  0.55208  Biso   1.000  H
  H336     1.0000 0.34641  0.28867  0.58767  Biso   1.000  H
  N169     1.0000 0.63049  0.81264  0.00731  Biso   1.000  N
  N170     1.0000 0.70663  0.72371  0.99865  Biso   1.000  N
  C505     1.0000 0.63128  0.78571  0.99103  Biso   1.000  C
  C506     1.0000 0.65458  0.76377  0.99433  Biso   1.000  C
  C507     1.0000 0.67839  0.76982  0.01547  Biso   1.000  C
  C508     1.0000 0.67793  0.79755  0.03243  Biso   1.000  C
  C509     1.0000 0.65370  0.81847  0.02741  Biso   1.000  C
  C510     1.0000 0.70415  0.74695  0.01940  Biso   1.000  C
  H337     1.0000 0.61490  0.78165  0.97651  Biso   1.000  H
  H338     1.0000 0.65435  0.74495  0.98243  Biso   1.000  H
  H339     1.0000 0.69395  0.80208  0.04721  Biso   1.000  H
  H340     1.0000 0.65359  0.83767  0.03867  Biso   1.000  H
  N171     1.0000 0.11951  0.43736  0.50731  Biso   1.000  N
  N172     1.0000 0.04337  0.52629  0.49865  Biso   1.000  N
  C511     1.0000 0.11872  0.46429  0.49103  Biso   1.000  C
  C512     1.0000 0.09542  0.48623  0.49433  Biso   1.000  C
  C513     1.0000 0.07161  0.48018  0.51547  Biso   1.000  C
  C514     1.0000 0.07207  0.45245  0.53243  Biso   1.000  C
  C515     1.0000 0.09630  0.43153  0.52741  Biso   1.000  C
  C516     1.0000 0.04585  0.50305  0.51940  Biso   1.000  C
  H341     1.0000 0.13510  0.46835  0.47651  Biso   1.000  H
  H342     1.0000 0.09565  0.50505  0.48243  Biso   1.000  H
  H343     1.0000 0.05605  0.44792  0.54721  Biso   1.000  H
  H344     1.0000 0.09641  0.41233  0.53867  Biso   1.000  H
  N173     1.0000 0.13049  0.93736  0.24269  Biso   1.000  N
  N174     1.0000 0.20663  0.02629  0.25135  Biso   1.000  N
  C517     1.0000 0.13128  0.96429  0.25897  Biso   1.000  C
  C518     1.0000 0.15458  0.98623  0.25567  Biso   1.000  C
  C519     1.0000 0.17839  0.98018  0.23453  Biso   1.000  C
  C520     1.0000 0.17793  0.95245  0.21757  Biso   1.000  C
  C521     1.0000 0.15370  0.93153  0.22259  Biso   1.000  C
  C522     1.0000 0.20415  0.00305  0.23060  Biso   1.000  C
  H345     1.0000 0.11490  0.96835  0.27349  Biso   1.000  H
  H346     1.0000 0.15435  0.00505  0.26757  Biso   1.000  H
  H347     1.0000 0.19395  0.94792  0.20279  Biso   1.000  H
  H348     1.0000 0.15359  0.91233  0.21133  Biso   1.000  H
  N175     1.0000 0.61951  0.31264  0.74269  Biso   1.000  N
  N176     1.0000 0.54337  0.22371  0.75135  Biso   1.000  N
  C523     1.0000 0.61872  0.28571  0.75897  Biso   1.000  C
  C524     1.0000 0.59542  0.26377  0.75567  Biso   1.000  C
  C525     1.0000 0.57161  0.26982  0.73453  Biso   1.000  C
  C526     1.0000 0.57207  0.29755  0.71757  Biso   1.000  C
  C527     1.0000 0.59630  0.31847  0.72259  Biso   1.000  C
  C528     1.0000 0.54585  0.24695  0.73060  Biso   1.000  C
  H349     1.0000 0.63510  0.28165  0.77349  Biso   1.000  H
  H350     1.0000 0.59565  0.24495  0.76757  Biso   1.000  H
  H351     1.0000 0.55605  0.30208  0.70279  Biso   1.000  H
  H352     1.0000 0.59641  0.33767  0.71133  Biso   1.000  H
  N177     1.0000 0.81264  0.74269  0.11951  Biso   1.000  N
  N178     1.0000 0.72371  0.75135  0.04337  Biso   1.000  N
  C529     1.0000 0.78571  0.75897  0.11872  Biso   1.000  C
  C530     1.0000 0.76377  0.75567  0.09542  Biso   1.000  C
  C531     1.0000 0.76982  0.73453  0.07161  Biso   1.000  C
  C532     1.0000 0.79755  0.71757  0.07207  Biso   1.000  C
  C533     1.0000 0.81847  0.72259  0.09630  Biso   1.000  C
  C534     1.0000 0.74695  0.73060  0.04585  Biso   1.000  C
  H353     1.0000 0.78165  0.77349  0.13510  Biso   1.000  H
  H354     1.0000 0.74495  0.76757  0.09565  Biso   1.000  H
  H355     1.0000 0.80208  0.70279  0.05605  Biso   1.000  H
  H356     1.0000 0.83767  0.71133  0.09641  Biso   1.000  H
  N179     1.0000 0.43736  0.24269  0.63049  Biso   1.000  N
  N180     1.0000 0.52629  0.25135  0.70663  Biso   1.000  N
  C535     1.0000 0.46429  0.25897  0.63128  Biso   1.000  C
  C536     1.0000 0.48623  0.25567  0.65458  Biso   1.000  C
  C537     1.0000 0.48018  0.23453  0.67839  Biso   1.000  C
  C538     1.0000 0.45245  0.21757  0.67793  Biso   1.000  C
  C539     1.0000 0.43153  0.22259  0.65370  Biso   1.000  C
  C540     1.0000 0.50305  0.23060  0.70415  Biso   1.000  C
  H357     1.0000 0.46835  0.27349  0.61490  Biso   1.000  H
  H358     1.0000 0.50505  0.26757  0.65435  Biso   1.000  H
  H359     1.0000 0.44792  0.20279  0.69395  Biso   1.000  H
  H360     1.0000 0.41233  0.21133  0.65359  Biso   1.000  H
  N181     1.0000 0.93736  0.50731  0.61951  Biso   1.000  N
  N182     1.0000 0.02629  0.49865  0.54337  Biso   1.000  N
  C541     1.0000 0.96429  0.49103  0.61872  Biso   1.000  C
  C542     1.0000 0.98623  0.49433  0.59542  Biso   1.000  C
  C543     1.0000 0.98018  0.51547  0.57161  Biso   1.000  C
  C544     1.0000 0.95245  0.53243  0.57207  Biso   1.000  C
  C545     1.0000 0.93153  0.52741  0.59630  Biso   1.000  C
  C546     1.0000 0.00305  0.51940  0.54585  Biso   1.000  C
  H361     1.0000 0.96835  0.47651  0.63510  Biso   1.000  H
  H362     1.0000 0.00505  0.48243  0.59565  Biso   1.000  H
  H363     1.0000 0.94792  0.54721  0.55605  Biso   1.000  H
  H364     1.0000 0.91233  0.53867  0.59641  Biso   1.000  H
  N183     1.0000 0.31264  0.00731  0.13049  Biso   1.000  N
  N184     1.0000 0.22371  0.99865  0.20663  Biso   1.000  N
  C547     1.0000 0.28571  0.99103  0.13128  Biso   1.000  C
  C548     1.0000 0.26377  0.99433  0.15458  Biso   1.000  C
  C549     1.0000 0.26982  0.01547  0.17839  Biso   1.000  C
  C550     1.0000 0.29755  0.03243  0.17793  Biso   1.000  C
  C551     1.0000 0.31847  0.02741  0.15370  Biso   1.000  C
  C552     1.0000 0.24695  0.01940  0.20415  Biso   1.000  C
  H365     1.0000 0.28165  0.97651  0.11490  Biso   1.000  H
  H366     1.0000 0.24495  0.98243  0.15435  Biso   1.000  H
  H367     1.0000 0.30208  0.04721  0.19395  Biso   1.000  H
  H368     1.0000 0.33767  0.03867  0.15359  Biso   1.000  H
  N185     1.0000 0.74269  0.63049  0.93736  Biso   1.000  N
  N186     1.0000 0.75135  0.70663  0.02629  Biso   1.000  N
  C553     1.0000 0.75897  0.63128  0.96429  Biso   1.000  C
  C554     1.0000 0.75567  0.65458  0.98623  Biso   1.000  C
  C555     1.0000 0.73453  0.67839  0.98018  Biso   1.000  C
  C556     1.0000 0.71757  0.67793  0.95245  Biso   1.000  C
  C557     1.0000 0.72259  0.65370  0.93153  Biso   1.000  C
  C558     1.0000 0.73060  0.70415  0.00305  Biso   1.000  C
  H369     1.0000 0.77349  0.61490  0.96835  Biso   1.000  H
  H370     1.0000 0.76757  0.65435  0.00505  Biso   1.000  H
  H371     1.0000 0.70279  0.69395  0.94792  Biso   1.000  H
  H372     1.0000 0.71133  0.65359  0.91233  Biso   1.000  H
  N187     1.0000 0.24269  0.11951  0.31264  Biso   1.000  N
  N188     1.0000 0.25135  0.04337  0.22371  Biso   1.000  N
  C559     1.0000 0.25897  0.11872  0.28571  Biso   1.000  C
  C560     1.0000 0.25567  0.09542  0.26377  Biso   1.000  C
  C561     1.0000 0.23453  0.07161  0.26982  Biso   1.000  C
  C562     1.0000 0.21757  0.07207  0.29755  Biso   1.000  C
  C563     1.0000 0.22259  0.09630  0.31847  Biso   1.000  C
  C564     1.0000 0.23060  0.04585  0.24695  Biso   1.000  C
  H373     1.0000 0.27349  0.13510  0.28165  Biso   1.000  H
  H374     1.0000 0.26757  0.09565  0.24495  Biso   1.000  H
  H375     1.0000 0.20279  0.05605  0.30208  Biso   1.000  H
  H376     1.0000 0.21133  0.09641  0.33767  Biso   1.000  H
  N189     1.0000 0.50731  0.13049  0.81264  Biso   1.000  N
  N190     1.0000 0.49865  0.20663  0.72371  Biso   1.000  N
  C565     1.0000 0.49103  0.13128  0.78571  Biso   1.000  C
  C566     1.0000 0.49433  0.15458  0.76377  Biso   1.000  C
  C567     1.0000 0.51547  0.17839  0.76982  Biso   1.000  C
  C568     1.0000 0.53243  0.17793  0.79755  Biso   1.000  C
  C569     1.0000 0.52741  0.15370  0.81847  Biso   1.000  C
  C570     1.0000 0.51940  0.20415  0.74695  Biso   1.000  C
  H377     1.0000 0.47651  0.11490  0.78165  Biso   1.000  H
  H378     1.0000 0.48243  0.15435  0.74495  Biso   1.000  H
  H379     1.0000 0.54721  0.19395  0.80208  Biso   1.000  H
  H380     1.0000 0.53867  0.15359  0.83767  Biso   1.000  H
  N191     1.0000 0.00731  0.61951  0.43736  Biso   1.000  N
  N192     1.0000 0.99865  0.54337  0.52629  Biso   1.000  N
  C571     1.0000 0.99103  0.61872  0.46429  Biso   1.000  C
  C572     1.0000 0.99433  0.59542  0.48623  Biso   1.000  C
  C573     1.0000 0.01547  0.57161  0.48018  Biso   1.000  C
  C574     1.0000 0.03243  0.57207  0.45245  Biso   1.000  C
  C575     1.0000 0.02741  0.59630  0.43153  Biso   1.000  C
  C576     1.0000 0.01940  0.54585  0.50305  Biso   1.000  C
  H381     1.0000 0.97651  0.63510  0.46835  Biso   1.000  H
  H382     1.0000 0.98243  0.59565  0.50505  Biso   1.000  H
  H383     1.0000 0.04721  0.55605  0.44792  Biso   1.000  H
  H384     1.0000 0.03867  0.59641  0.41233  Biso   1.000  H
  Zn37     1.0000 0.59456  0.84456  0.00000  Biso   1.000  Zn
  Zn38     1.0000 0.15544  0.40544  0.50000  Biso   1.000  Zn
  Zn39     1.0000 0.65544  0.34456  0.75000  Biso   1.000  Zn
  Zn40     1.0000 0.09456  0.90544  0.25000  Biso   1.000  Zn
  Zn41     1.0000 0.50000  0.09456  0.84456  Biso   1.000  Zn
  Zn42     1.0000 0.00000  0.65544  0.40544  Biso   1.000  Zn
  Zn43     1.0000 0.25000  0.15544  0.34456  Biso   1.000  Zn
  Zn44     1.0000 0.75000  0.59456  0.90544  Biso   1.000  Zn
  Zn45     1.0000 0.34456  0.00000  0.09456  Biso   1.000  Zn
  Zn46     1.0000 0.90544  0.50000  0.65544  Biso   1.000  Zn
  Zn47     1.0000 0.84456  0.75000  0.15544  Biso   1.000  Zn
  Zn48     1.0000 0.40544  0.25000  0.59456  Biso   1.000  Zn
  N193     1.0000 0.93736  0.61951  0.00731  Biso   1.000  N
  N194     1.0000 0.02629  0.54337  0.99865  Biso   1.000  N
  C577     1.0000 0.96429  0.61872  0.99103  Biso   1.000  C
  C578     1.0000 0.98623  0.59542  0.99433  Biso   1.000  C
  C579     1.0000 0.98018  0.57161  0.01547  Biso   1.000  C
  C580     1.0000 0.95245  0.57207  0.03243  Biso   1.000  C
  C581     1.0000 0.93153  0.59630  0.02741  Biso   1.000  C
  C582     1.0000 0.00305  0.54585  0.01940  Biso   1.000  C
  H385     1.0000 0.96835  0.63510  0.97651  Biso   1.000  H
  H386     1.0000 0.00505  0.59565  0.98243  Biso   1.000  H
  H387     1.0000 0.94792  0.55605  0.04721  Biso   1.000  H
  H388     1.0000 0.91233  0.59641  0.03867  Biso   1.000  H
  N195     1.0000 0.31264  0.13049  0.50731  Biso   1.000  N
  N196     1.0000 0.22371  0.20663  0.49865  Biso   1.000  N
  C583     1.0000 0.28571  0.13128  0.49103  Biso   1.000  C
  C584     1.0000 0.26377  0.15458  0.49433  Biso   1.000  C
  C585     1.0000 0.26982  0.17839  0.51547  Biso   1.000  C
  C586     1.0000 0.29755  0.17793  0.53243  Biso   1.000  C
  C587     1.0000 0.31847  0.15370  0.52741  Biso   1.000  C
  C588     1.0000 0.24695  0.20415  0.51940  Biso   1.000  C
  H389     1.0000 0.28165  0.11490  0.47651  Biso   1.000  H
  H390     1.0000 0.24495  0.15435  0.48243  Biso   1.000  H
  H391     1.0000 0.30208  0.19395  0.54721  Biso   1.000  H
  H392     1.0000 0.33767  0.15359  0.53867  Biso   1.000  H
  N197     1.0000 0.81264  0.11951  0.24269  Biso   1.000  N
  N198     1.0000 0.72371  0.04337  0.25135  Biso   1.000  N
  C589     1.0000 0.78571  0.11872  0.25897  Biso   1.000  C
  C590     1.0000 0.76377  0.09542  0.25567  Biso   1.000  C
  C591     1.0000 0.76982  0.07161  0.23453  Biso   1.000  C
  C592     1.0000 0.79755  0.07207  0.21757  Biso   1.000  C
  C593     1.0000 0.81847  0.09630  0.22259  Biso   1.000  C
  C594     1.0000 0.74695  0.04585  0.23060  Biso   1.000  C
  H393     1.0000 0.78165  0.13510  0.27349  Biso   1.000  H
  H394     1.0000 0.74495  0.09565  0.26757  Biso   1.000  H
  H395     1.0000 0.80208  0.05605  0.20279  Biso   1.000  H
  H396     1.0000 0.83767  0.09641  0.21133  Biso   1.000  H
  N199     1.0000 0.43736  0.63049  0.74269  Biso   1.000  N
  N200     1.0000 0.52629  0.70663  0.75135  Biso   1.000  N
  C595     1.0000 0.46429  0.63128  0.75897  Biso   1.000  C
  C596     1.0000 0.48623  0.65458  0.75567  Biso   1.000  C
  C597     1.0000 0.48018  0.67839  0.73453  Biso   1.000  C
  C598     1.0000 0.45245  0.67793  0.71757  Biso   1.000  C
  C599     1.0000 0.43153  0.65370  0.72259  Biso   1.000  C
  C600     1.0000 0.50305  0.70415  0.73060  Biso   1.000  C
  H397     1.0000 0.46835  0.61490  0.77349  Biso   1.000  H
  H398     1.0000 0.50505  0.65435  0.76757  Biso   1.000  H
  H399     1.0000 0.44792  0.69395  0.70279  Biso   1.000  H
  H400     1.0000 0.41233  0.65359  0.71133  Biso   1.000  H
  N201     1.0000 0.00731  0.43736  0.11951  Biso   1.000  N
  N202     1.0000 0.99865  0.52629  0.04337  Biso   1.000  N
  C601     1.0000 0.99103  0.46429  0.11872  Biso   1.000  C
  C602     1.0000 0.99433  0.48623  0.09542  Biso   1.000  C
  C603     1.0000 0.01547  0.48018  0.07161  Biso   1.000  C
  C604     1.0000 0.03243  0.45245  0.07207  Biso   1.000  C
  C605     1.0000 0.02741  0.43153  0.09630  Biso   1.000  C
  C606     1.0000 0.01940  0.50305  0.04585  Biso   1.000  C
  H401     1.0000 0.97651  0.46835  0.13510  Biso   1.000  H
  H402     1.0000 0.98243  0.50505  0.09565  Biso   1.000  H
  H403     1.0000 0.04721  0.44792  0.05605  Biso   1.000  H
  H404     1.0000 0.03867  0.41233  0.09641  Biso   1.000  H
  N203     1.0000 0.50731  0.81264  0.63049  Biso   1.000  N
  N204     1.0000 0.49865  0.72371  0.70663  Biso   1.000  N
  C607     1.0000 0.49103  0.78571  0.63128  Biso   1.000  C
  C608     1.0000 0.49433  0.76377  0.65458  Biso   1.000  C
  C609     1.0000 0.51547  0.76982  0.67839  Biso   1.000  C
  C610     1.0000 0.53243  0.79755  0.67793  Biso   1.000  C
  C611     1.0000 0.52741  0.81847  0.65370  Biso   1.000  C
  C612     1.0000 0.51940  0.74695  0.70415  Biso   1.000  C
  H405     1.0000 0.47651  0.78165  0.61490  Biso   1.000  H
  H406     1.0000 0.48243  0.74495  0.65435  Biso   1.000  H
  H407     1.0000 0.54721  0.80208  0.69395  Biso   1.000  H
  H408     1.0000 0.53867  0.83767  0.65359  Biso   1.000  H
  N205     1.0000 0.24269  0.31264  0.61951  Biso   1.000  N
  N206     1.0000 0.25135  0.22371  0.54337  Biso   1.000  N
  C613     1.0000 0.25897  0.28571  0.61872  Biso   1.000  C
  C614     1.0000 0.25567  0.26377  0.59542  Biso   1.000  C
  C615     1.0000 0.23453  0.26982  0.57161  Biso   1.000  C
  C616     1.0000 0.21757  0.29755  0.57207  Biso   1.000  C
  C617     1.0000 0.22259  0.31847  0.59630  Biso   1.000  C
  C618     1.0000 0.23060  0.24695  0.54585  Biso   1.000  C
  H409     1.0000 0.27349  0.28165  0.63510  Biso   1.000  H
  H410     1.0000 0.26757  0.24495  0.59565  Biso   1.000  H
  H411     1.0000 0.20279  0.30208  0.55605  Biso   1.000  H
  H412     1.0000 0.21133  0.33767  0.59641  Biso   1.000  H
  N207     1.0000 0.74269  0.93736  0.13049  Biso   1.000  N
  N208     1.0000 0.75135  0.02629  0.20663  Biso   1.000  N
  C619     1.0000 0.75897  0.96429  0.13128  Biso   1.000  C
  C620     1.0000 0.75567  0.98623  0.15458  Biso   1.000  C
  C621     1.0000 0.73453  0.98018  0.17839  Biso   1.000  C
  C622     1.0000 0.71757  0.95245  0.17793  Biso   1.000  C
  C623     1.0000 0.72259  0.93153  0.15370  Biso   1.000  C
  C624     1.0000 0.73060  0.00305  0.20415  Biso   1.000  C
  H413     1.0000 0.77349  0.96835  0.11490  Biso   1.000  H
  H414     1.0000 0.76757  0.00505  0.15435  Biso   1.000  H
  H415     1.0000 0.70279  0.94792  0.19395  Biso   1.000  H
  H416     1.0000 0.71133  0.91233  0.15359  Biso   1.000  H
  N209     1.0000 0.11951  0.50731  0.93736  Biso   1.000  N
  N210     1.0000 0.04337  0.49865  0.02629  Biso   1.000  N
  C625     1.0000 0.11872  0.49103  0.96429  Biso   1.000  C
  C626     1.0000 0.09542  0.49433  0.98623  Biso   1.000  C
  C627     1.0000 0.07161  0.51547  0.98018  Biso   1.000  C
  C628     1.0000 0.07207  0.53243  0.95245  Biso   1.000  C
  C629     1.0000 0.09630  0.52741  0.93153  Biso   1.000  C
  C630     1.0000 0.04585  0.51940  0.00305  Biso   1.000  C
  H417     1.0000 0.13510  0.47651  0.96835  Biso   1.000  H
  H418     1.0000 0.09565  0.48243  0.00505  Biso   1.000  H
  H419     1.0000 0.05605  0.54721  0.94792  Biso   1.000  H
  H420     1.0000 0.09641  0.53867  0.91233  Biso   1.000  H
  N211     1.0000 0.63049  0.00731  0.31264  Biso   1.000  N
  N212     1.0000 0.70663  0.99865  0.22371  Biso   1.000  N
  C631     1.0000 0.63128  0.99103  0.28571  Biso   1.000  C
  C632     1.0000 0.65458  0.99433  0.26377  Biso   1.000  C
  C633     1.0000 0.67839  0.01547  0.26982  Biso   1.000  C
  C634     1.0000 0.67793  0.03243  0.29755  Biso   1.000  C
  C635     1.0000 0.65370  0.02741  0.31847  Biso   1.000  C
  C636     1.0000 0.70415  0.01940  0.24695  Biso   1.000  C
  H421     1.0000 0.61490  0.97651  0.28165  Biso   1.000  H
  H422     1.0000 0.65435  0.98243  0.24495  Biso   1.000  H
  H423     1.0000 0.69395  0.04721  0.30208  Biso   1.000  H
  H424     1.0000 0.65359  0.03867  0.33767  Biso   1.000  H
  N213     1.0000 0.61951  0.74269  0.81264  Biso   1.000  N
  N214     1.0000 0.54337  0.75135  0.72371  Biso   1.000  N
  C637     1.0000 0.61872  0.75897  0.78571  Biso   1.000  C
  C638     1.0000 0.59542  0.75567  0.76377  Biso   1.000  C
  C639     1.0000 0.57161  0.73453  0.76982  Biso   1.000  C
  C640     1.0000 0.57207  0.71757  0.79755  Biso   1.000  C
  C641     1.0000 0.59630  0.72259  0.81847  Biso   1.000  C
  C642     1.0000 0.54585  0.73060  0.74695  Biso   1.000  C
  H425     1.0000 0.63510  0.77349  0.78165  Biso   1.000  H
  H426     1.0000 0.59565  0.76757  0.74495  Biso   1.000  H
  H427     1.0000 0.55605  0.70279  0.80208  Biso   1.000  H
  H428     1.0000 0.59641  0.71133  0.83767  Biso   1.000  H
  N215     1.0000 0.13049  0.24269  0.43736  Biso   1.000  N
  N216     1.0000 0.20663  0.25135  0.52629  Biso   1.000  N
  C643     1.0000 0.13128  0.25897  0.46429  Biso   1.000  C
  C644     1.0000 0.15458  0.25567  0.48623  Biso   1.000  C
  C645     1.0000 0.17839  0.23453  0.48018  Biso   1.000  C
  C646     1.0000 0.17793  0.21757  0.45245  Biso   1.000  C
  C647     1.0000 0.15370  0.22259  0.43153  Biso   1.000  C
  C648     1.0000 0.20415  0.23060  0.50305  Biso   1.000  C
  H429     1.0000 0.11490  0.27349  0.46835  Biso   1.000  H
  H430     1.0000 0.15435  0.26757  0.50505  Biso   1.000  H
  H431     1.0000 0.19395  0.20279  0.44792  Biso   1.000  H
  H432     1.0000 0.15359  0.21133  0.41233  Biso   1.000  H
  N217     1.0000 0.86951  0.68736  0.99269  Biso   1.000  N
  N218     1.0000 0.79337  0.77629  0.00135  Biso   1.000  N
  C649     1.0000 0.86872  0.71429  0.00897  Biso   1.000  C
  C650     1.0000 0.84542  0.73623  0.00567  Biso   1.000  C
  C651     1.0000 0.82161  0.73018  0.98453  Biso   1.000  C
  C652     1.0000 0.82207  0.70245  0.96757  Biso   1.000  C
  C653     1.0000 0.84630  0.68153  0.97259  Biso   1.000  C
  C654     1.0000 0.79585  0.75305  0.98060  Biso   1.000  C
  H433     1.0000 0.88510  0.71835  0.02349  Biso   1.000  H
  H434     1.0000 0.84565  0.75505  0.01757  Biso   1.000  H
  H435     1.0000 0.80605  0.69792  0.95279  Biso   1.000  H
  H436     1.0000 0.84641  0.66233  0.96133  Biso   1.000  H
  N219     1.0000 0.38049  0.06264  0.49269  Biso   1.000  N
  N220     1.0000 0.45663  0.97371  0.50135  Biso   1.000  N
  C655     1.0000 0.38128  0.03571  0.50897  Biso   1.000  C
  C656     1.0000 0.40458  0.01377  0.50567  Biso   1.000  C
  C657     1.0000 0.42839  0.01982  0.48453  Biso   1.000  C
  C658     1.0000 0.42793  0.04755  0.46757  Biso   1.000  C
  C659     1.0000 0.40370  0.06847  0.47259  Biso   1.000  C
  C660     1.0000 0.45415  0.99695  0.48060  Biso   1.000  C
  H437     1.0000 0.36490  0.03165  0.52349  Biso   1.000  H
  H438     1.0000 0.40435  0.99495  0.51757  Biso   1.000  H
  H439     1.0000 0.44395  0.05208  0.45279  Biso   1.000  H
  H440     1.0000 0.40359  0.08767  0.46133  Biso   1.000  H
  N221     1.0000 0.36951  0.56264  0.75731  Biso   1.000  N
  N222     1.0000 0.29337  0.47371  0.74865  Biso   1.000  N
  C661     1.0000 0.36872  0.53571  0.74103  Biso   1.000  C
  C662     1.0000 0.34542  0.51377  0.74433  Biso   1.000  C
  C663     1.0000 0.32161  0.51982  0.76547  Biso   1.000  C
  C664     1.0000 0.32207  0.54755  0.78243  Biso   1.000  C
  C665     1.0000 0.34630  0.56847  0.77741  Biso   1.000  C
  C666     1.0000 0.29585  0.49695  0.76940  Biso   1.000  C
  H441     1.0000 0.38510  0.53165  0.72651  Biso   1.000  H
  H442     1.0000 0.34565  0.49495  0.73243  Biso   1.000  H
  H443     1.0000 0.30605  0.55208  0.79721  Biso   1.000  H
  H444     1.0000 0.34641  0.58767  0.78867  Biso   1.000  H
  N223     1.0000 0.88049  0.18736  0.25731  Biso   1.000  N
  N224     1.0000 0.95663  0.27629  0.24865  Biso   1.000  N
  C667     1.0000 0.88128  0.21429  0.24103  Biso   1.000  C
  C668     1.0000 0.90458  0.23623  0.24433  Biso   1.000  C
  C669     1.0000 0.92839  0.23018  0.26547  Biso   1.000  C
  C670     1.0000 0.92793  0.20245  0.28243  Biso   1.000  C
  C671     1.0000 0.90370  0.18153  0.27741  Biso   1.000  C
  C672     1.0000 0.95415  0.25305  0.26940  Biso   1.000  C
  H445     1.0000 0.86490  0.21835  0.22651  Biso   1.000  H
  H446     1.0000 0.90435  0.25505  0.23243  Biso   1.000  H
  H447     1.0000 0.94395  0.19792  0.29721  Biso   1.000  H
  H448     1.0000 0.90359  0.16233  0.28867  Biso   1.000  H
  N225     1.0000 0.68736  0.75731  0.88049  Biso   1.000  N
  N226     1.0000 0.77629  0.74865  0.95663  Biso   1.000  N
  C673     1.0000 0.71429  0.74103  0.88128  Biso   1.000  C
  C674     1.0000 0.73623  0.74433  0.90458  Biso   1.000  C
  C675     1.0000 0.73018  0.76547  0.92839  Biso   1.000  C
  C676     1.0000 0.70245  0.78243  0.92793  Biso   1.000  C
  C677     1.0000 0.68153  0.77741  0.90370  Biso   1.000  C
  C678     1.0000 0.75305  0.76940  0.95415  Biso   1.000  C
  H449     1.0000 0.71835  0.72651  0.86490  Biso   1.000  H
  H450     1.0000 0.75505  0.73243  0.90435  Biso   1.000  H
  H451     1.0000 0.69792  0.79721  0.94395  Biso   1.000  H
  H452     1.0000 0.66233  0.78867  0.90359  Biso   1.000  H
  N227     1.0000 0.06264  0.25731  0.36951  Biso   1.000  N
  N228     1.0000 0.97371  0.24865  0.29337  Biso   1.000  N
  C679     1.0000 0.03571  0.24103  0.36872  Biso   1.000  C
  C680     1.0000 0.01377  0.24433  0.34542  Biso   1.000  C
  C681     1.0000 0.01982  0.26547  0.32161  Biso   1.000  C
  C682     1.0000 0.04755  0.28243  0.32207  Biso   1.000  C
  C683     1.0000 0.06847  0.27741  0.34630  Biso   1.000  C
  C684     1.0000 0.99695  0.26940  0.29585  Biso   1.000  C
  H453     1.0000 0.03165  0.22651  0.38510  Biso   1.000  H
  H454     1.0000 0.99495  0.23243  0.34565  Biso   1.000  H
  H455     1.0000 0.05208  0.29721  0.30605  Biso   1.000  H
  H456     1.0000 0.08767  0.28867  0.34641  Biso   1.000  H
  N229     1.0000 0.56264  0.99269  0.38049  Biso   1.000  N
  N230     1.0000 0.47371  0.00135  0.45663  Biso   1.000  N
  C685     1.0000 0.53571  0.00897  0.38128  Biso   1.000  C
  C686     1.0000 0.51377  0.00567  0.40458  Biso   1.000  C
  C687     1.0000 0.51982  0.98453  0.42839  Biso   1.000  C
  C688     1.0000 0.54755  0.96757  0.42793  Biso   1.000  C
  C689     1.0000 0.56847  0.97259  0.40370  Biso   1.000  C
  C690     1.0000 0.49695  0.98060  0.45415  Biso   1.000  C
  H457     1.0000 0.53165  0.02349  0.36490  Biso   1.000  H
  H458     1.0000 0.49495  0.01757  0.40435  Biso   1.000  H
  H459     1.0000 0.55208  0.95279  0.44395  Biso   1.000  H
  H460     1.0000 0.58767  0.96133  0.40359  Biso   1.000  H
  N231     1.0000 0.18736  0.49269  0.86951  Biso   1.000  N
  N232     1.0000 0.27629  0.50135  0.79337  Biso   1.000  N
  C691     1.0000 0.21429  0.50897  0.86872  Biso   1.000  C
  C692     1.0000 0.23623  0.50567  0.84542  Biso   1.000  C
  C693     1.0000 0.23018  0.48453  0.82161  Biso   1.000  C
  C694     1.0000 0.20245  0.46757  0.82207  Biso   1.000  C
  C695     1.0000 0.18153  0.47259  0.84630  Biso   1.000  C
  C696     1.0000 0.25305  0.48060  0.79585  Biso   1.000  C
  H461     1.0000 0.21835  0.52349  0.88510  Biso   1.000  H
  H462     1.0000 0.25505  0.51757  0.84565  Biso   1.000  H
  H463     1.0000 0.19792  0.45279  0.80605  Biso   1.000  H
  H464     1.0000 0.16233  0.46133  0.84641  Biso   1.000  H
  N233     1.0000 0.75731  0.86951  0.06264  Biso   1.000  N
  N234     1.0000 0.74865  0.79337  0.97371  Biso   1.000  N
  C697     1.0000 0.74103  0.86872  0.03571  Biso   1.000  C
  C698     1.0000 0.74433  0.84542  0.01377  Biso   1.000  C
  C699     1.0000 0.76547  0.82161  0.01982  Biso   1.000  C
  C700     1.0000 0.78243  0.82207  0.04755  Biso   1.000  C
  C701     1.0000 0.77741  0.84630  0.06847  Biso   1.000  C
  C702     1.0000 0.76940  0.79585  0.99695  Biso   1.000  C
  H465     1.0000 0.72651  0.88510  0.03165  Biso   1.000  H
  H466     1.0000 0.73243  0.84565  0.99495  Biso   1.000  H
  H467     1.0000 0.79721  0.80605  0.05208  Biso   1.000  H
  H468     1.0000 0.78867  0.84641  0.08767  Biso   1.000  H
  N235     1.0000 0.25731  0.38049  0.68736  Biso   1.000  N
  N236     1.0000 0.24865  0.45663  0.77629  Biso   1.000  N
  C703     1.0000 0.24103  0.38128  0.71429  Biso   1.000  C
  C704     1.0000 0.24433  0.40458  0.73623  Biso   1.000  C
  C705     1.0000 0.26547  0.42839  0.73018  Biso   1.000  C
  C706     1.0000 0.28243  0.42793  0.70245  Biso   1.000  C
  C707     1.0000 0.27741  0.40370  0.68153  Biso   1.000  C
  C708     1.0000 0.26940  0.45415  0.75305  Biso   1.000  C
  H469     1.0000 0.22651  0.36490  0.71835  Biso   1.000  H
  H470     1.0000 0.23243  0.40435  0.75505  Biso   1.000  H
  H471     1.0000 0.29721  0.44395  0.69792  Biso   1.000  H
  H472     1.0000 0.28867  0.40359  0.66233  Biso   1.000  H
  N237     1.0000 0.99269  0.36951  0.18736  Biso   1.000  N
  N238     1.0000 0.00135  0.29337  0.27629  Biso   1.000  N
  C709     1.0000 0.00897  0.36872  0.21429  Biso   1.000  C
  C710     1.0000 0.00567  0.34542  0.23623  Biso   1.000  C
  C711     1.0000 0.98453  0.32161  0.23018  Biso   1.000  C
  C712     1.0000 0.96757  0.32207  0.20245  Biso   1.000  C
  C713     1.0000 0.97259  0.34630  0.18153  Biso   1.000  C
  C714     1.0000 0.98060  0.29585  0.25305  Biso   1.000  C
  H473     1.0000 0.02349  0.38510  0.21835  Biso   1.000  H
  H474     1.0000 0.01757  0.34565  0.25505  Biso   1.000  H
  H475     1.0000 0.95279  0.30605  0.19792  Biso   1.000  H
  H476     1.0000 0.96133  0.34641  0.16233  Biso   1.000  H
  N239     1.0000 0.49269  0.88049  0.56264  Biso   1.000  N
  N240     1.0000 0.50135  0.95663  0.47371  Biso   1.000  N
  C715     1.0000 0.50897  0.88128  0.53571  Biso   1.000  C
  C716     1.0000 0.50567  0.90458  0.51377  Biso   1.000  C
  C717     1.0000 0.48453  0.92839  0.51982  Biso   1.000  C
  C718     1.0000 0.46757  0.92793  0.54755  Biso   1.000  C
  C719     1.0000 0.47259  0.90370  0.56847  Biso   1.000  C
  C720     1.0000 0.48060  0.95415  0.49695  Biso   1.000  C
  H477     1.0000 0.52349  0.86490  0.53165  Biso   1.000  H
  H478     1.0000 0.51757  0.90435  0.49495  Biso   1.000  H
  H479     1.0000 0.45279  0.94395  0.55208  Biso   1.000  H
  H480     1.0000 0.46133  0.90359  0.58767  Biso   1.000  H
  Zn49     1.0000 0.90544  0.65544  0.00000  Biso   1.000  Zn
  Zn50     1.0000 0.34456  0.09456  0.50000  Biso   1.000  Zn
  Zn51     1.0000 0.84456  0.15544  0.25000  Biso   1.000  Zn
  Zn52     1.0000 0.40544  0.59456  0.75000  Biso   1.000  Zn
  Zn53     1.0000 0.00000  0.40544  0.15544  Biso   1.000  Zn
  Zn54     1.0000 0.50000  0.84456  0.59456  Biso   1.000  Zn
  Zn55     1.0000 0.25000  0.34456  0.65544  Biso   1.000  Zn
  Zn56     1.0000 0.75000  0.90544  0.09456  Biso   1.000  Zn
  Zn57     1.0000 0.15544  0.50000  0.90544  Biso   1.000  Zn
  Zn58     1.0000 0.59456  0.00000  0.34456  Biso   1.000  Zn
  Zn59     1.0000 0.65544  0.75000  0.84456  Biso   1.000  Zn
  Zn60     1.0000 0.09456  0.25000  0.40544  Biso   1.000  Zn
  N241     1.0000 0.93736  0.11951  0.50731  Biso   1.000  N
  N242     1.0000 0.02629  0.04337  0.49865  Biso   1.000  N
  C721     1.0000 0.96429  0.11872  0.49103  Biso   1.000  C
  C722     1.0000 0.98623  0.09542  0.49433  Biso   1.000  C
  C723     1.0000 0.98018  0.07161  0.51547  Biso   1.000  C
  C724     1.0000 0.95245  0.07207  0.53243  Biso   1.000  C
  C725     1.0000 0.93153  0.09630  0.52741  Biso   1.000  C
  C726     1.0000 0.00305  0.04585  0.51940  Biso   1.000  C
  H481     1.0000 0.96835  0.13510  0.47651  Biso   1.000  H
  H482     1.0000 0.00505  0.09565  0.48243  Biso   1.000  H
  H483     1.0000 0.94792  0.05605  0.54721  Biso   1.000  H
  H484     1.0000 0.91233  0.09641  0.53867  Biso   1.000  H
  N243     1.0000 0.31264  0.63049  0.00731  Biso   1.000  N
  N244     1.0000 0.22371  0.70663  0.99865  Biso   1.000  N
  C727     1.0000 0.28571  0.63128  0.99103  Biso   1.000  C
  C728     1.0000 0.26377  0.65458  0.99433  Biso   1.000  C
  C729     1.0000 0.26982  0.67839  0.01547  Biso   1.000  C
  C730     1.0000 0.29755  0.67793  0.03243  Biso   1.000  C
  C731     1.0000 0.31847  0.65370  0.02741  Biso   1.000  C
  C732     1.0000 0.24695  0.70415  0.01940  Biso   1.000  C
  H485     1.0000 0.28165  0.61490  0.97651  Biso   1.000  H
  H486     1.0000 0.24495  0.65435  0.98243  Biso   1.000  H
  H487     1.0000 0.30208  0.69395  0.04721  Biso   1.000  H
  H488     1.0000 0.33767  0.65359  0.03867  Biso   1.000  H
  N245     1.0000 0.81264  0.61951  0.74269  Biso   1.000  N
  N246     1.0000 0.72371  0.54337  0.75135  Biso   1.000  N
  C733     1.0000 0.78571  0.61872  0.75897  Biso   1.000  C
  C734     1.0000 0.76377  0.59542  0.75567  Biso   1.000  C
  C735     1.0000 0.76982  0.57161  0.73453  Biso   1.000  C
  C736     1.0000 0.79755  0.57207  0.71757  Biso   1.000  C
  C737     1.0000 0.81847  0.59630  0.72259  Biso   1.000  C
  C738     1.0000 0.74695  0.54585  0.73060  Biso   1.000  C
  H489     1.0000 0.78165  0.63510  0.77349  Biso   1.000  H
  H490     1.0000 0.74495  0.59565  0.76757  Biso   1.000  H
  H491     1.0000 0.80208  0.55605  0.70279  Biso   1.000  H
  H492     1.0000 0.83767  0.59641  0.71133  Biso   1.000  H
  N247     1.0000 0.43736  0.13049  0.24269  Biso   1.000  N
  N248     1.0000 0.52629  0.20663  0.25135  Biso   1.000  N
  C739     1.0000 0.46429  0.13128  0.25897  Biso   1.000  C
  C740     1.0000 0.48623  0.15458  0.25567  Biso   1.000  C
  C741     1.0000 0.48018  0.17839  0.23453  Biso   1.000  C
  C742     1.0000 0.45245  0.17793  0.21757  Biso   1.000  C
  C743     1.0000 0.43153  0.15370  0.22259  Biso   1.000  C
  C744     1.0000 0.50305  0.20415  0.23060  Biso   1.000  C
  H493     1.0000 0.46835  0.11490  0.27349  Biso   1.000  H
  H494     1.0000 0.50505  0.15435  0.26757  Biso   1.000  H
  H495     1.0000 0.44792  0.19395  0.20279  Biso   1.000  H
  H496     1.0000 0.41233  0.15359  0.21133  Biso   1.000  H
  N249     1.0000 0.00731  0.93736  0.61951  Biso   1.000  N
  N250     1.0000 0.99865  0.02629  0.54337  Biso   1.000  N
  C745     1.0000 0.99103  0.96429  0.61872  Biso   1.000  C
  C746     1.0000 0.99433  0.98623  0.59542  Biso   1.000  C
  C747     1.0000 0.01547  0.98018  0.57161  Biso   1.000  C
  C748     1.0000 0.03243  0.95245  0.57207  Biso   1.000  C
  C749     1.0000 0.02741  0.93153  0.59630  Biso   1.000  C
  C750     1.0000 0.01940  0.00305  0.54585  Biso   1.000  C
  H497     1.0000 0.97651  0.96835  0.63510  Biso   1.000  H
  H498     1.0000 0.98243  0.00505  0.59565  Biso   1.000  H
  H499     1.0000 0.04721  0.94792  0.55605  Biso   1.000  H
  H500     1.0000 0.03867  0.91233  0.59641  Biso   1.000  H
  N251     1.0000 0.50731  0.31264  0.13049  Biso   1.000  N
  N252     1.0000 0.49865  0.22371  0.20663  Biso   1.000  N
  C751     1.0000 0.49103  0.28571  0.13128  Biso   1.000  C
  C752     1.0000 0.49433  0.26377  0.15458  Biso   1.000  C
  C753     1.0000 0.51547  0.26982  0.17839  Biso   1.000  C
  C754     1.0000 0.53243  0.29755  0.17793  Biso   1.000  C
  C755     1.0000 0.52741  0.31847  0.15370  Biso   1.000  C
  C756     1.0000 0.51940  0.24695  0.20415  Biso   1.000  C
  H501     1.0000 0.47651  0.28165  0.11490  Biso   1.000  H
  H502     1.0000 0.48243  0.24495  0.15435  Biso   1.000  H
  H503     1.0000 0.54721  0.30208  0.19395  Biso   1.000  H
  H504     1.0000 0.53867  0.33767  0.15359  Biso   1.000  H
  N253     1.0000 0.24269  0.81264  0.11951  Biso   1.000  N
  N254     1.0000 0.25135  0.72371  0.04337  Biso   1.000  N
  C757     1.0000 0.25897  0.78571  0.11872  Biso   1.000  C
  C758     1.0000 0.25567  0.76377  0.09542  Biso   1.000  C
  C759     1.0000 0.23453  0.76982  0.07161  Biso   1.000  C
  C760     1.0000 0.21757  0.79755  0.07207  Biso   1.000  C
  C761     1.0000 0.22259  0.81847  0.09630  Biso   1.000  C
  C762     1.0000 0.23060  0.74695  0.04585  Biso   1.000  C
  H505     1.0000 0.27349  0.78165  0.13510  Biso   1.000  H
  H506     1.0000 0.26757  0.74495  0.09565  Biso   1.000  H
  H507     1.0000 0.20279  0.80208  0.05605  Biso   1.000  H
  H508     1.0000 0.21133  0.83767  0.09641  Biso   1.000  H
  N255     1.0000 0.74269  0.43736  0.63049  Biso   1.000  N
  N256     1.0000 0.75135  0.52629  0.70663  Biso   1.000  N
  C763     1.0000 0.75897  0.46429  0.63128  Biso   1.000  C
  C764     1.0000 0.75567  0.48623  0.65458  Biso   1.000  C
  C765     1.0000 0.73453  0.48018  0.67839  Biso   1.000  C
  C766     1.0000 0.71757  0.45245  0.67793  Biso   1.000  C
  C767     1.0000 0.72259  0.43153  0.65370  Biso   1.000  C
  C768     1.0000 0.73060  0.50305  0.70415  Biso   1.000  C
  H509     1.0000 0.77349  0.46835  0.61490  Biso   1.000  H
  H510     1.0000 0.76757  0.50505  0.65435  Biso   1.000  H
  H511     1.0000 0.70279  0.44792  0.69395  Biso   1.000  H
  H512     1.0000 0.71133  0.41233  0.65359  Biso   1.000  H
  N257     1.0000 0.11951  0.00731  0.43736  Biso   1.000  N
  N258     1.0000 0.04337  0.99865  0.52629  Biso   1.000  N
  C769     1.0000 0.11872  0.99103  0.46429  Biso   1.000  C
  C770     1.0000 0.09542  0.99433  0.48623  Biso   1.000  C
  C771     1.0000 0.07161  0.01547  0.48018  Biso   1.000  C
  C772     1.0000 0.07207  0.03243  0.45245  Biso   1.000  C
  C773     1.0000 0.09630  0.02741  0.43153  Biso   1.000  C
  C774     1.0000 0.04585  0.01940  0.50305  Biso   1.000  C
  H513     1.0000 0.13510  0.97651  0.46835  Biso   1.000  H
  H514     1.0000 0.09565  0.98243  0.50505  Biso   1.000  H
  H515     1.0000 0.05605  0.04721  0.44792  Biso   1.000  H
  H516     1.0000 0.09641  0.03867  0.41233  Biso   1.000  H
  N259     1.0000 0.63049  0.50731  0.81264  Biso   1.000  N
  N260     1.0000 0.70663  0.49865  0.72371  Biso   1.000  N
  C775     1.0000 0.63128  0.49103  0.78571  Biso   1.000  C
  C776     1.0000 0.65458  0.49433  0.76377  Biso   1.000  C
  C777     1.0000 0.67839  0.51547  0.76982  Biso   1.000  C
  C778     1.0000 0.67793  0.53243  0.79755  Biso   1.000  C
  C779     1.0000 0.65370  0.52741  0.81847  Biso   1.000  C
  C780     1.0000 0.70415  0.51940  0.74695  Biso   1.000  C
  H517     1.0000 0.61490  0.47651  0.78165  Biso   1.000  H
  H518     1.0000 0.65435  0.48243  0.74495  Biso   1.000  H
  H519     1.0000 0.69395  0.54721  0.80208  Biso   1.000  H
  H520     1.0000 0.65359  0.53867  0.83767  Biso   1.000  H
  N261     1.0000 0.61951  0.24269  0.31264  Biso   1.000  N
  N262     1.0000 0.54337  0.25135  0.22371  Biso   1.000  N
  C781     1.0000 0.61872  0.25897  0.28571  Biso   1.000  C
  C782     1.0000 0.59542  0.25567  0.26377  Biso   1.000  C
  C783     1.0000 0.57161  0.23453  0.26982  Biso   1.000  C
  C784     1.0000 0.57207  0.21757  0.29755  Biso   1.000  C
  C785     1.0000 0.59630  0.22259  0.31847  Biso   1.000  C
  C786     1.0000 0.54585  0.23060  0.24695  Biso   1.000  C
  H521     1.0000 0.63510  0.27349  0.28165  Biso   1.000  H
  H522     1.0000 0.59565  0.26757  0.24495  Biso   1.000  H
  H523     1.0000 0.55605  0.20279  0.30208  Biso   1.000  H
  H524     1.0000 0.59641  0.21133  0.33767  Biso   1.000  H
  N263     1.0000 0.13049  0.74269  0.93736  Biso   1.000  N
  N264     1.0000 0.20663  0.75135  0.02629  Biso   1.000  N
  C787     1.0000 0.13128  0.75897  0.96429  Biso   1.000  C
  C788     1.0000 0.15458  0.75567  0.98623  Biso   1.000  C
  C789     1.0000 0.17839  0.73453  0.98018  Biso   1.000  C
  C790     1.0000 0.17793  0.71757  0.95245  Biso   1.000  C
  C791     1.0000 0.15370  0.72259  0.93153  Biso   1.000  C
  C792     1.0000 0.20415  0.73060  0.00305  Biso   1.000  C
  H525     1.0000 0.11490  0.77349  0.96835  Biso   1.000  H
  H526     1.0000 0.15435  0.76757  0.00505  Biso   1.000  H
  H527     1.0000 0.19395  0.70279  0.94792  Biso   1.000  H
  H528     1.0000 0.15359  0.71133  0.91233  Biso   1.000  H
  N265     1.0000 0.86951  0.18736  0.49269  Biso   1.000  N
  N266     1.0000 0.79337  0.27629  0.50135  Biso   1.000  N
  C793     1.0000 0.86872  0.21429  0.50897  Biso   1.000  C
  C794     1.0000 0.84542  0.23623  0.50567  Biso   1.000  C
  C795     1.0000 0.82161  0.23018  0.48453  Biso   1.000  C
  C796     1.0000 0.82207  0.20245  0.46757  Biso   1.000  C
  C797     1.0000 0.84630  0.18153  0.47259  Biso   1.000  C
  C798     1.0000 0.79585  0.25305  0.48060  Biso   1.000  C
  H529     1.0000 0.88510  0.21835  0.52349  Biso   1.000  H
  H530     1.0000 0.84565  0.25505  0.51757  Biso   1.000  H
  H531     1.0000 0.80605  0.19792  0.45279  Biso   1.000  H
  H532     1.0000 0.84641  0.16233  0.46133  Biso   1.000  H
  N267     1.0000 0.38049  0.56264  0.99269  Biso   1.000  N
  N268     1.0000 0.45663  0.47371  0.00135  Biso   1.000  N
  C799     1.0000 0.38128  0.53571  0.00897  Biso   1.000  C
  C800     1.0000 0.40458  0.51377  0.00567  Biso   1.000  C
  C801     1.0000 0.42839  0.51982  0.98453  Biso   1.000  C
  C802     1.0000 0.42793  0.54755  0.96757  Biso   1.000  C
  C803     1.0000 0.40370  0.56847  0.97259  Biso   1.000  C
  C804     1.0000 0.45415  0.49695  0.98060  Biso   1.000  C
  H533     1.0000 0.36490  0.53165  0.02349  Biso   1.000  H
  H534     1.0000 0.40435  0.49495  0.01757  Biso   1.000  H
  H535     1.0000 0.44395  0.55208  0.95279  Biso   1.000  H
  H536     1.0000 0.40359  0.58767  0.96133  Biso   1.000  H
  N269     1.0000 0.36951  0.06264  0.25731  Biso   1.000  N
  N270     1.0000 0.29337  0.97371  0.24865  Biso   1.000  N
  C805     1.0000 0.36872  0.03571  0.24103  Biso   1.000  C
  C806     1.0000 0.34542  0.01377  0.24433  Biso   1.000  C
  C807     1.0000 0.32161  0.01982  0.26547  Biso   1.000  C
  C808     1.0000 0.32207  0.04755  0.28243  Biso   1.000  C
  C809     1.0000 0.34630  0.06847  0.27741  Biso   1.000  C
  C810     1.0000 0.29585  0.99695  0.26940  Biso   1.000  C
  H537     1.0000 0.38510  0.03165  0.22651  Biso   1.000  H
  H538     1.0000 0.34565  0.99495  0.23243  Biso   1.000  H
  H539     1.0000 0.30605  0.05208  0.29721  Biso   1.000  H
  H540     1.0000 0.34641  0.08767  0.28867  Biso   1.000  H
  N271     1.0000 0.88049  0.68736  0.75731  Biso   1.000  N
  N272     1.0000 0.95663  0.77629  0.74865  Biso   1.000  N
  C811     1.0000 0.88128  0.71429  0.74103  Biso   1.000  C
  C812     1.0000 0.90458  0.73623  0.74433  Biso   1.000  C
  C813     1.0000 0.92839  0.73018  0.76547  Biso   1.000  C
  C814     1.0000 0.92793  0.70245  0.78243  Biso   1.000  C
  C815     1.0000 0.90370  0.68153  0.77741  Biso   1.000  C
  C816     1.0000 0.95415  0.75305  0.76940  Biso   1.000  C
  H541     1.0000 0.86490  0.71835  0.72651  Biso   1.000  H
  H542     1.0000 0.90435  0.75505  0.73243  Biso   1.000  H
  H543     1.0000 0.94395  0.69792  0.79721  Biso   1.000  H
  H544     1.0000 0.90359  0.66233  0.78867  Biso   1.000  H
  N273     1.0000 0.68736  0.25731  0.38049  Biso   1.000  N
  N274     1.0000 0.77629  0.24865  0.45663  Biso   1.000  N
  C817     1.0000 0.71429  0.24103  0.38128  Biso   1.000  C
  C818     1.0000 0.73623  0.24433  0.40458  Biso   1.000  C
  C819     1.0000 0.73018  0.26547  0.42839  Biso   1.000  C
  C820     1.0000 0.70245  0.28243  0.42793  Biso   1.000  C
  C821     1.0000 0.68153  0.27741  0.40370  Biso   1.000  C
  C822     1.0000 0.75305  0.26940  0.45415  Biso   1.000  C
  H545     1.0000 0.71835  0.22651  0.36490  Biso   1.000  H
  H546     1.0000 0.75505  0.23243  0.40435  Biso   1.000  H
  H547     1.0000 0.69792  0.29721  0.44395  Biso   1.000  H
  H548     1.0000 0.66233  0.28867  0.40359  Biso   1.000  H
  N275     1.0000 0.06264  0.75731  0.86951  Biso   1.000  N
  N276     1.0000 0.97371  0.74865  0.79337  Biso   1.000  N
  C823     1.0000 0.03571  0.74103  0.86872  Biso   1.000  C
  C824     1.0000 0.01377  0.74433  0.84542  Biso   1.000  C
  C825     1.0000 0.01982  0.76547  0.82161  Biso   1.000  C
  C826     1.0000 0.04755  0.78243  0.82207  Biso   1.000  C
  C827     1.0000 0.06847  0.77741  0.84630  Biso   1.000  C
  C828     1.0000 0.99695  0.76940  0.79585  Biso   1.000  C
  H549     1.0000 0.03165  0.72651  0.88510  Biso   1.000  H
  H550     1.0000 0.99495  0.73243  0.84565  Biso   1.000  H
  H551     1.0000 0.05208  0.79721  0.80605  Biso   1.000  H
  H552     1.0000 0.08767  0.78867  0.84641  Biso   1.000  H
  N277     1.0000 0.56264  0.49269  0.88049  Biso   1.000  N
  N278     1.0000 0.47371  0.50135  0.95663  Biso   1.000  N
  C829     1.0000 0.53571  0.50897  0.88128  Biso   1.000  C
  C830     1.0000 0.51377  0.50567  0.90458  Biso   1.000  C
  C831     1.0000 0.51982  0.48453  0.92839  Biso   1.000  C
  C832     1.0000 0.54755  0.46757  0.92793  Biso   1.000  C
  C833     1.0000 0.56847  0.47259  0.90370  Biso   1.000  C
  C834     1.0000 0.49695  0.48060  0.95415  Biso   1.000  C
  H553     1.0000 0.53165  0.52349  0.86490  Biso   1.000  H
  H554     1.0000 0.49495  0.51757  0.90435  Biso   1.000  H
  H555     1.0000 0.55208  0.45279  0.94395  Biso   1.000  H
  H556     1.0000 0.58767  0.46133  0.90359  Biso   1.000  H
  N279     1.0000 0.18736  0.99269  0.36951  Biso   1.000  N
  N280     1.0000 0.27629  0.00135  0.29337  Biso   1.000  N
  C835     1.0000 0.21429  0.00897  0.36872  Biso   1.000  C
  C836     1.0000 0.23623  0.00567  0.34542  Biso   1.000  C
  C837     1.0000 0.23018  0.98453  0.32161  Biso   1.000  C
  C838     1.0000 0.20245  0.96757  0.32207  Biso   1.000  C
  C839     1.0000 0.18153  0.97259  0.34630  Biso   1.000  C
  C840     1.0000 0.25305  0.98060  0.29585  Biso   1.000  C
  H557     1.0000 0.21835  0.02349  0.38510  Biso   1.000  H
  H558     1.0000 0.25505  0.01757  0.34565  Biso   1.000  H
  H559     1.0000 0.19792  0.95279  0.30605  Biso   1.000  H
  H560     1.0000 0.16233  0.96133  0.34641  Biso   1.000  H
  N281     1.0000 0.75731  0.36951  0.56264  Biso   1.000  N
  N282     1.0000 0.74865  0.29337  0.47371  Biso   1.000  N
  C841     1.0000 0.74103  0.36872  0.53571  Biso   1.000  C
  C842     1.0000 0.74433  0.34542  0.51377  Biso   1.000  C
  C843     1.0000 0.76547  0.32161  0.51982  Biso   1.000  C
  C844     1.0000 0.78243  0.32207  0.54755  Biso   1.000  C
  C845     1.0000 0.77741  0.34630  0.56847  Biso   1.000  C
  C846     1.0000 0.76940  0.29585  0.49695  Biso   1.000  C
  H561     1.0000 0.72651  0.38510  0.53165  Biso   1.000  H
  H562     1.0000 0.73243  0.34565  0.49495  Biso   1.000  H
  H563     1.0000 0.79721  0.30605  0.55208  Biso   1.000  H
  H564     1.0000 0.78867  0.34641  0.58767  Biso   1.000  H
  N283     1.0000 0.25731  0.88049  0.18736  Biso   1.000  N
  N284     1.0000 0.24865  0.95663  0.27629  Biso   1.000  N
  C847     1.0000 0.24103  0.88128  0.21429  Biso   1.000  C
  C848     1.0000 0.24433  0.90458  0.23623  Biso   1.000  C
  C849     1.0000 0.26547  0.92839  0.23018  Biso   1.000  C
  C850     1.0000 0.28243  0.92793  0.20245  Biso   1.000  C
  C851     1.0000 0.27741  0.90370  0.18153  Biso   1.000  C
  C852     1.0000 0.26940  0.95415  0.25305  Biso   1.000  C
  H565     1.0000 0.22651  0.86490  0.21835  Biso   1.000  H
  H566     1.0000 0.23243  0.90435  0.25505  Biso   1.000  H
  H567     1.0000 0.29721  0.94395  0.19792  Biso   1.000  H
  H568     1.0000 0.28867  0.90359  0.16233  Biso   1.000  H
  N285     1.0000 0.99269  0.86951  0.68736  Biso   1.000  N
  N286     1.0000 0.00135  0.79337  0.77629  Biso   1.000  N
  C853     1.0000 0.00897  0.86872  0.71429  Biso   1.000  C
  C854     1.0000 0.00567  0.84542  0.73623  Biso   1.000  C
  C855     1.0000 0.98453  0.82161  0.73018  Biso   1.000  C
  C856     1.0000 0.96757  0.82207  0.70245  Biso   1.000  C
  C857     1.0000 0.97259  0.84630  0.68153  Biso   1.000  C
  C858     1.0000 0.98060  0.79585  0.75305  Biso   1.000  C
  H569     1.0000 0.02349  0.88510  0.71835  Biso   1.000  H
  H570     1.0000 0.01757  0.84565  0.75505  Biso   1.000  H
  H571     1.0000 0.95279  0.80605  0.69792  Biso   1.000  H
  H572     1.0000 0.96133  0.84641  0.66233  Biso   1.000  H
  N287     1.0000 0.49269  0.38049  0.06264  Biso   1.000  N
  N288     1.0000 0.50135  0.45663  0.97371  Biso   1.000  N
  C859     1.0000 0.50897  0.38128  0.03571  Biso   1.000  C
  C860     1.0000 0.50567  0.40458  0.01377  Biso   1.000  C
  C861     1.0000 0.48453  0.42839  0.01982  Biso   1.000  C
  C862     1.0000 0.46757  0.42793  0.04755  Biso   1.000  C
  C863     1.0000 0.47259  0.40370  0.06847  Biso   1.000  C
  C864     1.0000 0.48060  0.45415  0.99695  Biso   1.000  C
  H573     1.0000 0.52349  0.36490  0.03165  Biso   1.000  H
  H574     1.0000 0.51757  0.40435  0.99495  Biso   1.000  H
  H575     1.0000 0.45279  0.44395  0.05208  Biso   1.000  H
  H576     1.0000 0.46133  0.40359  0.08767  Biso   1.000  H
  Zn61     1.0000 0.90544  0.15544  0.50000  Biso   1.000  Zn
  Zn62     1.0000 0.34456  0.59456  0.00000  Biso   1.000  Zn
  Zn63     1.0000 0.84456  0.65544  0.75000  Biso   1.000  Zn
  Zn64     1.0000 0.40544  0.09456  0.25000  Biso   1.000  Zn
  Zn65     1.0000 0.00000  0.90544  0.65544  Biso   1.000  Zn
  Zn66     1.0000 0.50000  0.34456  0.09456  Biso   1.000  Zn
  Zn67     1.0000 0.25000  0.84456  0.15544  Biso   1.000  Zn
  Zn68     1.0000 0.75000  0.40544  0.59456  Biso   1.000  Zn
  Zn69     1.0000 0.15544  0.00000  0.40544  Biso   1.000  Zn
  Zn70     1.0000 0.59456  0.50000  0.84456  Biso   1.000  Zn
  Zn71     1.0000 0.65544  0.25000  0.34456  Biso   1.000  Zn
  Zn72     1.0000 0.09456  0.75000  0.90544  Biso   1.000  Zn
  N289     1.0000 0.43736  0.61951  0.50731  Biso   1.000  N
  N290     1.0000 0.52629  0.54337  0.49865  Biso   1.000  N
  C865     1.0000 0.46429  0.61872  0.49103  Biso   1.000  C
  C866     1.0000 0.48623  0.59542  0.49433  Biso   1.000  C
  C867     1.0000 0.48018  0.57161  0.51547  Biso   1.000  C
  C868     1.0000 0.45245  0.57207  0.53243  Biso   1.000  C
  C869     1.0000 0.43153  0.59630  0.52741  Biso   1.000  C
  C870     1.0000 0.50305  0.54585  0.51940  Biso   1.000  C
  H577     1.0000 0.46835  0.63510  0.47651  Biso   1.000  H
  H578     1.0000 0.50505  0.59565  0.48243  Biso   1.000  H
  H579     1.0000 0.44792  0.55605  0.54721  Biso   1.000  H
  H580     1.0000 0.41233  0.59641  0.53867  Biso   1.000  H
  N291     1.0000 0.81264  0.13049  0.00731  Biso   1.000  N
  N292     1.0000 0.72371  0.20663  0.99865  Biso   1.000  N
  C871     1.0000 0.78571  0.13128  0.99103  Biso   1.000  C
  C872     1.0000 0.76377  0.15458  0.99433  Biso   1.000  C
  C873     1.0000 0.76982  0.17839  0.01547  Biso   1.000  C
  C874     1.0000 0.79755  0.17793  0.03243  Biso   1.000  C
  C875     1.0000 0.81847  0.15370  0.02741  Biso   1.000  C
  C876     1.0000 0.74695  0.20415  0.01940  Biso   1.000  C
  H581     1.0000 0.78165  0.11490  0.97651  Biso   1.000  H
  H582     1.0000 0.74495  0.15435  0.98243  Biso   1.000  H
  H583     1.0000 0.80208  0.19395  0.04721  Biso   1.000  H
  H584     1.0000 0.83767  0.15359  0.03867  Biso   1.000  H
  N293     1.0000 0.31264  0.11951  0.74269  Biso   1.000  N
  N294     1.0000 0.22371  0.04337  0.75135  Biso   1.000  N
  C877     1.0000 0.28571  0.11872  0.75897  Biso   1.000  C
  C878     1.0000 0.26377  0.09542  0.75567  Biso   1.000  C
  C879     1.0000 0.26982  0.07161  0.73453  Biso   1.000  C
  C880     1.0000 0.29755  0.07207  0.71757  Biso   1.000  C
  C881     1.0000 0.31847  0.09630  0.72259  Biso   1.000  C
  C882     1.0000 0.24695  0.04585  0.73060  Biso   1.000  C
  H585     1.0000 0.28165  0.13510  0.77349  Biso   1.000  H
  H586     1.0000 0.24495  0.09565  0.76757  Biso   1.000  H
  H587     1.0000 0.30208  0.05605  0.70279  Biso   1.000  H
  H588     1.0000 0.33767  0.09641  0.71133  Biso   1.000  H
  N295     1.0000 0.93736  0.63049  0.24269  Biso   1.000  N
  N296     1.0000 0.02629  0.70663  0.25135  Biso   1.000  N
  C883     1.0000 0.96429  0.63128  0.25897  Biso   1.000  C
  C884     1.0000 0.98623  0.65458  0.25567  Biso   1.000  C
  C885     1.0000 0.98018  0.67839  0.23453  Biso   1.000  C
  C886     1.0000 0.95245  0.67793  0.21757  Biso   1.000  C
  C887     1.0000 0.93153  0.65370  0.22259  Biso   1.000  C
  C888     1.0000 0.00305  0.70415  0.23060  Biso   1.000  C
  H589     1.0000 0.96835  0.61490  0.27349  Biso   1.000  H
  H590     1.0000 0.00505  0.65435  0.26757  Biso   1.000  H
  H591     1.0000 0.94792  0.69395  0.20279  Biso   1.000  H
  H592     1.0000 0.91233  0.65359  0.21133  Biso   1.000  H
  N297     1.0000 0.50731  0.43736  0.61951  Biso   1.000  N
  N298     1.0000 0.49865  0.52629  0.54337  Biso   1.000  N
  C889     1.0000 0.49103  0.46429  0.61872  Biso   1.000  C
  C890     1.0000 0.49433  0.48623  0.59542  Biso   1.000  C
  C891     1.0000 0.51547  0.48018  0.57161  Biso   1.000  C
  C892     1.0000 0.53243  0.45245  0.57207  Biso   1.000  C
  C893     1.0000 0.52741  0.43153  0.59630  Biso   1.000  C
  C894     1.0000 0.51940  0.50305  0.54585  Biso   1.000  C
  H593     1.0000 0.47651  0.46835  0.63510  Biso   1.000  H
  H594     1.0000 0.48243  0.50505  0.59565  Biso   1.000  H
  H595     1.0000 0.54721  0.44792  0.55605  Biso   1.000  H
  H596     1.0000 0.53867  0.41233  0.59641  Biso   1.000  H
  N299     1.0000 0.00731  0.81264  0.13049  Biso   1.000  N
  N300     1.0000 0.99865  0.72371  0.20663  Biso   1.000  N
  C895     1.0000 0.99103  0.78571  0.13128  Biso   1.000  C
  C896     1.0000 0.99433  0.76377  0.15458  Biso   1.000  C
  C897     1.0000 0.01547  0.76982  0.17839  Biso   1.000  C
  C898     1.0000 0.03243  0.79755  0.17793  Biso   1.000  C
  C899     1.0000 0.02741  0.81847  0.15370  Biso   1.000  C
  C900     1.0000 0.01940  0.74695  0.20415  Biso   1.000  C
  H597     1.0000 0.97651  0.78165  0.11490  Biso   1.000  H
  H598     1.0000 0.98243  0.74495  0.15435  Biso   1.000  H
  H599     1.0000 0.04721  0.80208  0.19395  Biso   1.000  H
  H600     1.0000 0.03867  0.83767  0.15359  Biso   1.000  H
  N301     1.0000 0.74269  0.31264  0.11951  Biso   1.000  N
  N302     1.0000 0.75135  0.22371  0.04337  Biso   1.000  N
  C901     1.0000 0.75897  0.28571  0.11872  Biso   1.000  C
  C902     1.0000 0.75567  0.26377  0.09542  Biso   1.000  C
  C903     1.0000 0.73453  0.26982  0.07161  Biso   1.000  C
  C904     1.0000 0.71757  0.29755  0.07207  Biso   1.000  C
  C905     1.0000 0.72259  0.31847  0.09630  Biso   1.000  C
  C906     1.0000 0.73060  0.24695  0.04585  Biso   1.000  C
  H601     1.0000 0.77349  0.28165  0.13510  Biso   1.000  H
  H602     1.0000 0.76757  0.24495  0.09565  Biso   1.000  H
  H603     1.0000 0.70279  0.30208  0.05605  Biso   1.000  H
  H604     1.0000 0.71133  0.33767  0.09641  Biso   1.000  H
  N303     1.0000 0.24269  0.93736  0.63049  Biso   1.000  N
  N304     1.0000 0.25135  0.02629  0.70663  Biso   1.000  N
  C907     1.0000 0.25897  0.96429  0.63128  Biso   1.000  C
  C908     1.0000 0.25567  0.98623  0.65458  Biso   1.000  C
  C909     1.0000 0.23453  0.98018  0.67839  Biso   1.000  C
  C910     1.0000 0.21757  0.95245  0.67793  Biso   1.000  C
  C911     1.0000 0.22259  0.93153  0.65370  Biso   1.000  C
  C912     1.0000 0.23060  0.00305  0.70415  Biso   1.000  C
  H605     1.0000 0.27349  0.96835  0.61490  Biso   1.000  H
  H606     1.0000 0.26757  0.00505  0.65435  Biso   1.000  H
  H607     1.0000 0.20279  0.94792  0.69395  Biso   1.000  H
  H608     1.0000 0.21133  0.91233  0.65359  Biso   1.000  H
  N305     1.0000 0.61951  0.50731  0.43736  Biso   1.000  N
  N306     1.0000 0.54337  0.49865  0.52629  Biso   1.000  N
  C913     1.0000 0.61872  0.49103  0.46429  Biso   1.000  C
  C914     1.0000 0.59542  0.49433  0.48623  Biso   1.000  C
  C915     1.0000 0.57161  0.51547  0.48018  Biso   1.000  C
  C916     1.0000 0.57207  0.53243  0.45245  Biso   1.000  C
  C917     1.0000 0.59630  0.52741  0.43153  Biso   1.000  C
  C918     1.0000 0.54585  0.51940  0.50305  Biso   1.000  C
  H609     1.0000 0.63510  0.47651  0.46835  Biso   1.000  H
  H610     1.0000 0.59565  0.48243  0.50505  Biso   1.000  H
  H611     1.0000 0.55605  0.54721  0.44792  Biso   1.000  H
  H612     1.0000 0.59641  0.53867  0.41233  Biso   1.000  H
  N307     1.0000 0.13049  0.00731  0.81264  Biso   1.000  N
  N308     1.0000 0.20663  0.99865  0.72371  Biso   1.000  N
  C919     1.0000 0.13128  0.99103  0.78571  Biso   1.000  C
  C920     1.0000 0.15458  0.99433  0.76377  Biso   1.000  C
  C921     1.0000 0.17839  0.01547  0.76982  Biso   1.000  C
  C922     1.0000 0.17793  0.03243  0.79755  Biso   1.000  C
  C923     1.0000 0.15370  0.02741  0.81847  Biso   1.000  C
  C924     1.0000 0.20415  0.01940  0.74695  Biso   1.000  C
  H613     1.0000 0.11490  0.97651  0.78165  Biso   1.000  H
  H614     1.0000 0.15435  0.98243  0.74495  Biso   1.000  H
  H615     1.0000 0.19395  0.04721  0.80208  Biso   1.000  H
  H616     1.0000 0.15359  0.03867  0.83767  Biso   1.000  H
  N309     1.0000 0.11951  0.74269  0.31264  Biso   1.000  N
  N310     1.0000 0.04337  0.75135  0.22371  Biso   1.000  N
  C925     1.0000 0.11872  0.75897  0.28571  Biso   1.000  C
  C926     1.0000 0.09542  0.75567  0.26377  Biso   1.000  C
  C927     1.0000 0.07161  0.73453  0.26982  Biso   1.000  C
  C928     1.0000 0.07207  0.71757  0.29755  Biso   1.000  C
  C929     1.0000 0.09630  0.72259  0.31847  Biso   1.000  C
  C930     1.0000 0.04585  0.73060  0.24695  Biso   1.000  C
  H617     1.0000 0.13510  0.77349  0.28165  Biso   1.000  H
  H618     1.0000 0.09565  0.76757  0.24495  Biso   1.000  H
  H619     1.0000 0.05605  0.70279  0.30208  Biso   1.000  H
  H620     1.0000 0.09641  0.71133  0.33767  Biso   1.000  H
  N311     1.0000 0.63049  0.24269  0.93736  Biso   1.000  N
  N312     1.0000 0.70663  0.25135  0.02629  Biso   1.000  N
  C931     1.0000 0.63128  0.25897  0.96429  Biso   1.000  C
  C932     1.0000 0.65458  0.25567  0.98623  Biso   1.000  C
  C933     1.0000 0.67839  0.23453  0.98018  Biso   1.000  C
  C934     1.0000 0.67793  0.21757  0.95245  Biso   1.000  C
  C935     1.0000 0.65370  0.22259  0.93153  Biso   1.000  C
  C936     1.0000 0.70415  0.23060  0.00305  Biso   1.000  C
  H621     1.0000 0.61490  0.27349  0.96835  Biso   1.000  H
  H622     1.0000 0.65435  0.26757  0.00505  Biso   1.000  H
  H623     1.0000 0.69395  0.20279  0.94792  Biso   1.000  H
  H624     1.0000 0.65359  0.21133  0.91233  Biso   1.000  H
  N313     1.0000 0.36951  0.68736  0.49269  Biso   1.000  N
  N314     1.0000 0.29337  0.77629  0.50135  Biso   1.000  N
  C937     1.0000 0.36872  0.71429  0.50897  Biso   1.000  C
  C938     1.0000 0.34542  0.73623  0.50567  Biso   1.000  C
  C939     1.0000 0.32161  0.73018  0.48453  Biso   1.000  C
  C940     1.0000 0.32207  0.70245  0.46757  Biso   1.000  C
  C941     1.0000 0.34630  0.68153  0.47259  Biso   1.000  C
  C942     1.0000 0.29585  0.75305  0.48060  Biso   1.000  C
  H625     1.0000 0.38510  0.71835  0.52349  Biso   1.000  H
  H626     1.0000 0.34565  0.75505  0.51757  Biso   1.000  H
  H627     1.0000 0.30605  0.69792  0.45279  Biso   1.000  H
  H628     1.0000 0.34641  0.66233  0.46133  Biso   1.000  H
  N315     1.0000 0.88049  0.06264  0.99269  Biso   1.000  N
  N316     1.0000 0.95663  0.97371  0.00135  Biso   1.000  N
  C943     1.0000 0.88128  0.03571  0.00897  Biso   1.000  C
  C944     1.0000 0.90458  0.01377  0.00567  Biso   1.000  C
  C945     1.0000 0.92839  0.01982  0.98453  Biso   1.000  C
  C946     1.0000 0.92793  0.04755  0.96757  Biso   1.000  C
  C947     1.0000 0.90370  0.06847  0.97259  Biso   1.000  C
  C948     1.0000 0.95415  0.99695  0.98060  Biso   1.000  C
  H629     1.0000 0.86490  0.03165  0.02349  Biso   1.000  H
  H630     1.0000 0.90435  0.99495  0.01757  Biso   1.000  H
  H631     1.0000 0.94395  0.05208  0.95279  Biso   1.000  H
  H632     1.0000 0.90359  0.08767  0.96133  Biso   1.000  H
  N317     1.0000 0.86951  0.56264  0.25731  Biso   1.000  N
  N318     1.0000 0.79337  0.47371  0.24865  Biso   1.000  N
  C949     1.0000 0.86872  0.53571  0.24103  Biso   1.000  C
  C950     1.0000 0.84542  0.51377  0.24433  Biso   1.000  C
  C951     1.0000 0.82161  0.51982  0.26547  Biso   1.000  C
  C952     1.0000 0.82207  0.54755  0.28243  Biso   1.000  C
  C953     1.0000 0.84630  0.56847  0.27741  Biso   1.000  C
  C954     1.0000 0.79585  0.49695  0.26940  Biso   1.000  C
  H633     1.0000 0.88510  0.53165  0.22651  Biso   1.000  H
  H634     1.0000 0.84565  0.49495  0.23243  Biso   1.000  H
  H635     1.0000 0.80605  0.55208  0.29721  Biso   1.000  H
  H636     1.0000 0.84641  0.58767  0.28867  Biso   1.000  H
  N319     1.0000 0.38049  0.18736  0.75731  Biso   1.000  N
  N320     1.0000 0.45663  0.27629  0.74865  Biso   1.000  N
  C955     1.0000 0.38128  0.21429  0.74103  Biso   1.000  C
  C956     1.0000 0.40458  0.23623  0.74433  Biso   1.000  C
  C957     1.0000 0.42839  0.23018  0.76547  Biso   1.000  C
  C958     1.0000 0.42793  0.20245  0.78243  Biso   1.000  C
  C959     1.0000 0.40370  0.18153  0.77741  Biso   1.000  C
  C960     1.0000 0.45415  0.25305  0.76940  Biso   1.000  C
  H637     1.0000 0.36490  0.21835  0.72651  Biso   1.000  H
  H638     1.0000 0.40435  0.25505  0.73243  Biso   1.000  H
  H639     1.0000 0.44395  0.19792  0.79721  Biso   1.000  H
  H640     1.0000 0.40359  0.16233  0.78867  Biso   1.000  H
  N321     1.0000 0.18736  0.75731  0.38049  Biso   1.000  N
  N322     1.0000 0.27629  0.74865  0.45663  Biso   1.000  N
  C961     1.0000 0.21429  0.74103  0.38128  Biso   1.000  C
  C962     1.0000 0.23623  0.74433  0.40458  Biso   1.000  C
  C963     1.0000 0.23018  0.76547  0.42839  Biso   1.000  C
  C964     1.0000 0.20245  0.78243  0.42793  Biso   1.000  C
  C965     1.0000 0.18153  0.77741  0.40370  Biso   1.000  C
  C966     1.0000 0.25305  0.76940  0.45415  Biso   1.000  C
  H641     1.0000 0.21835  0.72651  0.36490  Biso   1.000  H
  H642     1.0000 0.25505  0.73243  0.40435  Biso   1.000  H
  H643     1.0000 0.19792  0.79721  0.44395  Biso   1.000  H
  H644     1.0000 0.16233  0.78867  0.40359  Biso   1.000  H
  N323     1.0000 0.56264  0.25731  0.86951  Biso   1.000  N
  N324     1.0000 0.47371  0.24865  0.79337  Biso   1.000  N
  C967     1.0000 0.53571  0.24103  0.86872  Biso   1.000  C
  C968     1.0000 0.51377  0.24433  0.84542  Biso   1.000  C
  C969     1.0000 0.51982  0.26547  0.82161  Biso   1.000  C
  C970     1.0000 0.54755  0.28243  0.82207  Biso   1.000  C
  C971     1.0000 0.56847  0.27741  0.84630  Biso   1.000  C
  C972     1.0000 0.49695  0.26940  0.79585  Biso   1.000  C
  H645     1.0000 0.53165  0.22651  0.88510  Biso   1.000  H
  H646     1.0000 0.49495  0.23243  0.84565  Biso   1.000  H
  H647     1.0000 0.55208  0.29721  0.80605  Biso   1.000  H
  H648     1.0000 0.58767  0.28867  0.84641  Biso   1.000  H
  N325     1.0000 0.06264  0.99269  0.88049  Biso   1.000  N
  N326     1.0000 0.97371  0.00135  0.95663  Biso   1.000  N
  C973     1.0000 0.03571  0.00897  0.88128  Biso   1.000  C
  C974     1.0000 0.01377  0.00567  0.90458  Biso   1.000  C
  C975     1.0000 0.01982  0.98453  0.92839  Biso   1.000  C
  C976     1.0000 0.04755  0.96757  0.92793  Biso   1.000  C
  C977     1.0000 0.06847  0.97259  0.90370  Biso   1.000  C
  C978     1.0000 0.99695  0.98060  0.95415  Biso   1.000  C
  H649     1.0000 0.03165  0.02349  0.86490  Biso   1.000  H
  H650     1.0000 0.99495  0.01757  0.90435  Biso   1.000  H
  H651     1.0000 0.05208  0.95279  0.94395  Biso   1.000  H
  H652     1.0000 0.08767  0.96133  0.90359  Biso   1.000  H
  N327     1.0000 0.68736  0.49269  0.36951  Biso   1.000  N
  N328     1.0000 0.77629  0.50135  0.29337  Biso   1.000  N
  C979     1.0000 0.71429  0.50897  0.36872  Biso   1.000  C
  C980     1.0000 0.73623  0.50567  0.34542  Biso   1.000  C
  C981     1.0000 0.73018  0.48453  0.32161  Biso   1.000  C
  C982     1.0000 0.70245  0.46757  0.32207  Biso   1.000  C
  C983     1.0000 0.68153  0.47259  0.34630  Biso   1.000  C
  C984     1.0000 0.75305  0.48060  0.29585  Biso   1.000  C
  H653     1.0000 0.71835  0.52349  0.38510  Biso   1.000  H
  H654     1.0000 0.75505  0.51757  0.34565  Biso   1.000  H
  H655     1.0000 0.69792  0.45279  0.30605  Biso   1.000  H
  H656     1.0000 0.66233  0.46133  0.34641  Biso   1.000  H
  N329     1.0000 0.25731  0.86951  0.56264  Biso   1.000  N
  N330     1.0000 0.24865  0.79337  0.47371  Biso   1.000  N
  C985     1.0000 0.24103  0.86872  0.53571  Biso   1.000  C
  C986     1.0000 0.24433  0.84542  0.51377  Biso   1.000  C
  C987     1.0000 0.26547  0.82161  0.51982  Biso   1.000  C
  C988     1.0000 0.28243  0.82207  0.54755  Biso   1.000  C
  C989     1.0000 0.27741  0.84630  0.56847  Biso   1.000  C
  C990     1.0000 0.26940  0.79585  0.49695  Biso   1.000  C
  H657     1.0000 0.22651  0.88510  0.53165  Biso   1.000  H
  H658     1.0000 0.23243  0.84565  0.49495  Biso   1.000  H
  H659     1.0000 0.29721  0.80605  0.55208  Biso   1.000  H
  H660     1.0000 0.28867  0.84641  0.58767  Biso   1.000  H
  N331     1.0000 0.75731  0.38049  0.18736  Biso   1.000  N
  N332     1.0000 0.74865  0.45663  0.27629  Biso   1.000  N
  C991     1.0000 0.74103  0.38128  0.21429  Biso   1.000  C
  C992     1.0000 0.74433  0.40458  0.23623  Biso   1.000  C
  C993     1.0000 0.76547  0.42839  0.23018  Biso   1.000  C
  C994     1.0000 0.78243  0.42793  0.20245  Biso   1.000  C
  C995     1.0000 0.77741  0.40370  0.18153  Biso   1.000  C
  C996     1.0000 0.76940  0.45415  0.25305  Biso   1.000  C
  H661     1.0000 0.72651  0.36490  0.21835  Biso   1.000  H
  H662     1.0000 0.73243  0.40435  0.25505  Biso   1.000  H
  H663     1.0000 0.79721  0.44395  0.19792  Biso   1.000  H
  H664     1.0000 0.78867  0.40359  0.16233  Biso   1.000  H
  N333     1.0000 0.49269  0.36951  0.68736  Biso   1.000  N
  N334     1.0000 0.50135  0.29337  0.77629  Biso   1.000  N
  C997     1.0000 0.50897  0.36872  0.71429  Biso   1.000  C
  C998     1.0000 0.50567  0.34542  0.73623  Biso   1.000  C
  C999     1.0000 0.48453  0.32161  0.73018  Biso   1.000  C
  C1000    1.0000 0.46757  0.32207  0.70245  Biso   1.000  C
  C1001    1.0000 0.47259  0.34630  0.68153  Biso   1.000  C
  C1002    1.0000 0.48060  0.29585  0.75305  Biso   1.000  C
  H665     1.0000 0.52349  0.38510  0.71835  Biso   1.000  H
  H666     1.0000 0.51757  0.34565  0.75505  Biso   1.000  H
  H667     1.0000 0.45279  0.30605  0.69792  Biso   1.000  H
  H668     1.0000 0.46133  0.34641  0.66233  Biso   1.000  H
  N335     1.0000 0.99269  0.88049  0.06264  Biso   1.000  N
  N336     1.0000 0.00135  0.95663  0.97371  Biso   1.000  N
  C1003    1.0000 0.00897  0.88128  0.03571  Biso   1.000  C
  C1004    1.0000 0.00567  0.90458  0.01377  Biso   1.000  C
  C1005    1.0000 0.98453  0.92839  0.01982  Biso   1.000  C
  C1006    1.0000 0.96757  0.92793  0.04755  Biso   1.000  C
  C1007    1.0000 0.97259  0.90370  0.06847  Biso   1.000  C
  C1008    1.0000 0.98060  0.95415  0.99695  Biso   1.000  C
  H669     1.0000 0.02349  0.86490  0.03165  Biso   1.000  H
  H670     1.0000 0.01757  0.90435  0.99495  Biso   1.000  H
  H671     1.0000 0.95279  0.94395  0.05208  Biso   1.000  H
  H672     1.0000 0.96133  0.90359  0.08767  Biso   1.000  H
  Zn73     1.0000 0.40544  0.65544  0.50000  Biso   1.000  Zn
  Zn74     1.0000 0.84456  0.09456  0.00000  Biso   1.000  Zn
  Zn75     1.0000 0.34456  0.15544  0.75000  Biso   1.000  Zn
  Zn76     1.0000 0.90544  0.59456  0.25000  Biso   1.000  Zn
  Zn77     1.0000 0.50000  0.40544  0.65544  Biso   1.000  Zn
  Zn78     1.0000 0.00000  0.84456  0.09456  Biso   1.000  Zn
  Zn79     1.0000 0.75000  0.34456  0.15544  Biso   1.000  Zn
  Zn80     1.0000 0.25000  0.90544  0.59456  Biso   1.000  Zn
  Zn81     1.0000 0.65544  0.50000  0.40544  Biso   1.000  Zn
  Zn82     1.0000 0.09456  0.00000  0.84456  Biso   1.000  Zn
  Zn83     1.0000 0.15544  0.75000  0.34456  Biso   1.000  Zn
  Zn84     1.0000 0.59456  0.25000  0.90544  Biso   1.000  Zn
  N337     1.0000 0.43736  0.11951  0.00731  Biso   1.000  N
  N338     1.0000 0.52629  0.04337  0.99865  Biso   1.000  N
  C1009    1.0000 0.46429  0.11872  0.99103  Biso   1.000  C
  C1010    1.0000 0.48623  0.09542  0.99433  Biso   1.000  C
  C1011    1.0000 0.48018  0.07161  0.01547  Biso   1.000  C
  C1012    1.0000 0.45245  0.07207  0.03243  Biso   1.000  C
  C1013    1.0000 0.43153  0.09630  0.02741  Biso   1.000  C
  C1014    1.0000 0.50305  0.04585  0.01940  Biso   1.000  C
  H673     1.0000 0.46835  0.13510  0.97651  Biso   1.000  H
  H674     1.0000 0.50505  0.09565  0.98243  Biso   1.000  H
  H675     1.0000 0.44792  0.05605  0.04721  Biso   1.000  H
  H676     1.0000 0.41233  0.09641  0.03867  Biso   1.000  H
  N339     1.0000 0.81264  0.63049  0.50731  Biso   1.000  N
  N340     1.0000 0.72371  0.70663  0.49865  Biso   1.000  N
  C1015    1.0000 0.78571  0.63128  0.49103  Biso   1.000  C
  C1016    1.0000 0.76377  0.65458  0.49433  Biso   1.000  C
  C1017    1.0000 0.76982  0.67839  0.51547  Biso   1.000  C
  C1018    1.0000 0.79755  0.67793  0.53243  Biso   1.000  C
  C1019    1.0000 0.81847  0.65370  0.52741  Biso   1.000  C
  C1020    1.0000 0.74695  0.70415  0.51940  Biso   1.000  C
  H677     1.0000 0.78165  0.61490  0.47651  Biso   1.000  H
  H678     1.0000 0.74495  0.65435  0.48243  Biso   1.000  H
  H679     1.0000 0.80208  0.69395  0.54721  Biso   1.000  H
  H680     1.0000 0.83767  0.65359  0.53867  Biso   1.000  H
  N341     1.0000 0.31264  0.61951  0.24269  Biso   1.000  N
  N342     1.0000 0.22371  0.54337  0.25135  Biso   1.000  N
  C1021    1.0000 0.28571  0.61872  0.25897  Biso   1.000  C
  C1022    1.0000 0.26377  0.59542  0.25567  Biso   1.000  C
  C1023    1.0000 0.26982  0.57161  0.23453  Biso   1.000  C
  C1024    1.0000 0.29755  0.57207  0.21757  Biso   1.000  C
  C1025    1.0000 0.31847  0.59630  0.22259  Biso   1.000  C
  C1026    1.0000 0.24695  0.54585  0.23060  Biso   1.000  C
  H681     1.0000 0.28165  0.63510  0.27349  Biso   1.000  H
  H682     1.0000 0.24495  0.59565  0.26757  Biso   1.000  H
  H683     1.0000 0.30208  0.55605  0.20279  Biso   1.000  H
  H684     1.0000 0.33767  0.59641  0.21133  Biso   1.000  H
  N343     1.0000 0.93736  0.13049  0.74269  Biso   1.000  N
  N344     1.0000 0.02629  0.20663  0.75135  Biso   1.000  N
  C1027    1.0000 0.96429  0.13128  0.75897  Biso   1.000  C
  C1028    1.0000 0.98623  0.15458  0.75567  Biso   1.000  C
  C1029    1.0000 0.98018  0.17839  0.73453  Biso   1.000  C
  C1030    1.0000 0.95245  0.17793  0.71757  Biso   1.000  C
  C1031    1.0000 0.93153  0.15370  0.72259  Biso   1.000  C
  C1032    1.0000 0.00305  0.20415  0.73060  Biso   1.000  C
  H685     1.0000 0.96835  0.11490  0.77349  Biso   1.000  H
  H686     1.0000 0.00505  0.15435  0.76757  Biso   1.000  H
  H687     1.0000 0.94792  0.19395  0.70279  Biso   1.000  H
  H688     1.0000 0.91233  0.15359  0.71133  Biso   1.000  H
  N345     1.0000 0.50731  0.93736  0.11951  Biso   1.000  N
  N346     1.0000 0.49865  0.02629  0.04337  Biso   1.000  N
  C1033    1.0000 0.49103  0.96429  0.11872  Biso   1.000  C
  C1034    1.0000 0.49433  0.98623  0.09542  Biso   1.000  C
  C1035    1.0000 0.51547  0.98018  0.07161  Biso   1.000  C
  C1036    1.0000 0.53243  0.95245  0.07207  Biso   1.000  C
  C1037    1.0000 0.52741  0.93153  0.09630  Biso   1.000  C
  C1038    1.0000 0.51940  0.00305  0.04585  Biso   1.000  C
  H689     1.0000 0.47651  0.96835  0.13510  Biso   1.000  H
  H690     1.0000 0.48243  0.00505  0.09565  Biso   1.000  H
  H691     1.0000 0.54721  0.94792  0.05605  Biso   1.000  H
  H692     1.0000 0.53867  0.91233  0.09641  Biso   1.000  H
  N347     1.0000 0.00731  0.31264  0.63049  Biso   1.000  N
  N348     1.0000 0.99865  0.22371  0.70663  Biso   1.000  N
  C1039    1.0000 0.99103  0.28571  0.63128  Biso   1.000  C
  C1040    1.0000 0.99433  0.26377  0.65458  Biso   1.000  C
  C1041    1.0000 0.01547  0.26982  0.67839  Biso   1.000  C
  C1042    1.0000 0.03243  0.29755  0.67793  Biso   1.000  C
  C1043    1.0000 0.02741  0.31847  0.65370  Biso   1.000  C
  C1044    1.0000 0.01940  0.24695  0.70415  Biso   1.000  C
  H693     1.0000 0.97651  0.28165  0.61490  Biso   1.000  H
  H694     1.0000 0.98243  0.24495  0.65435  Biso   1.000  H
  H695     1.0000 0.04721  0.30208  0.69395  Biso   1.000  H
  H696     1.0000 0.03867  0.33767  0.65359  Biso   1.000  H
  N349     1.0000 0.74269  0.81264  0.61951  Biso   1.000  N
  N350     1.0000 0.75135  0.72371  0.54337  Biso   1.000  N
  C1045    1.0000 0.75897  0.78571  0.61872  Biso   1.000  C
  C1046    1.0000 0.75567  0.76377  0.59542  Biso   1.000  C
  C1047    1.0000 0.73453  0.76982  0.57161  Biso   1.000  C
  C1048    1.0000 0.71757  0.79755  0.57207  Biso   1.000  C
  C1049    1.0000 0.72259  0.81847  0.59630  Biso   1.000  C
  C1050    1.0000 0.73060  0.74695  0.54585  Biso   1.000  C
  H697     1.0000 0.77349  0.78165  0.63510  Biso   1.000  H
  H698     1.0000 0.76757  0.74495  0.59565  Biso   1.000  H
  H699     1.0000 0.70279  0.80208  0.55605  Biso   1.000  H
  H700     1.0000 0.71133  0.83767  0.59641  Biso   1.000  H
  N351     1.0000 0.24269  0.43736  0.13049  Biso   1.000  N
  N352     1.0000 0.25135  0.52629  0.20663  Biso   1.000  N
  C1051    1.0000 0.25897  0.46429  0.13128  Biso   1.000  C
  C1052    1.0000 0.25567  0.48623  0.15458  Biso   1.000  C
  C1053    1.0000 0.23453  0.48018  0.17839  Biso   1.000  C
  C1054    1.0000 0.21757  0.45245  0.17793  Biso   1.000  C
  C1055    1.0000 0.22259  0.43153  0.15370  Biso   1.000  C
  C1056    1.0000 0.23060  0.50305  0.20415  Biso   1.000  C
  H701     1.0000 0.27349  0.46835  0.11490  Biso   1.000  H
  H702     1.0000 0.26757  0.50505  0.15435  Biso   1.000  H
  H703     1.0000 0.20279  0.44792  0.19395  Biso   1.000  H
  H704     1.0000 0.21133  0.41233  0.15359  Biso   1.000  H
  N353     1.0000 0.61951  0.00731  0.93736  Biso   1.000  N
  N354     1.0000 0.54337  0.99865  0.02629  Biso   1.000  N
  C1057    1.0000 0.61872  0.99103  0.96429  Biso   1.000  C
  C1058    1.0000 0.59542  0.99433  0.98623  Biso   1.000  C
  C1059    1.0000 0.57161  0.01547  0.98018  Biso   1.000  C
  C1060    1.0000 0.57207  0.03243  0.95245  Biso   1.000  C
  C1061    1.0000 0.59630  0.02741  0.93153  Biso   1.000  C
  C1062    1.0000 0.54585  0.01940  0.00305  Biso   1.000  C
  H705     1.0000 0.63510  0.97651  0.96835  Biso   1.000  H
  H706     1.0000 0.59565  0.98243  0.00505  Biso   1.000  H
  H707     1.0000 0.55605  0.04721  0.94792  Biso   1.000  H
  H708     1.0000 0.59641  0.03867  0.91233  Biso   1.000  H
  N355     1.0000 0.13049  0.50731  0.31264  Biso   1.000  N
  N356     1.0000 0.20663  0.49865  0.22371  Biso   1.000  N
  C1063    1.0000 0.13128  0.49103  0.28571  Biso   1.000  C
  C1064    1.0000 0.15458  0.49433  0.26377  Biso   1.000  C
  C1065    1.0000 0.17839  0.51547  0.26982  Biso   1.000  C
  C1066    1.0000 0.17793  0.53243  0.29755  Biso   1.000  C
  C1067    1.0000 0.15370  0.52741  0.31847  Biso   1.000  C
  C1068    1.0000 0.20415  0.51940  0.24695  Biso   1.000  C
  H709     1.0000 0.11490  0.47651  0.28165  Biso   1.000  H
  H710     1.0000 0.15435  0.48243  0.24495  Biso   1.000  H
  H711     1.0000 0.19395  0.54721  0.30208  Biso   1.000  H
  H712     1.0000 0.15359  0.53867  0.33767  Biso   1.000  H
  N357     1.0000 0.11951  0.24269  0.81264  Biso   1.000  N
  N358     1.0000 0.04337  0.25135  0.72371  Biso   1.000  N
  C1069    1.0000 0.11872  0.25897  0.78571  Biso   1.000  C
  C1070    1.0000 0.09542  0.25567  0.76377  Biso   1.000  C
  C1071    1.0000 0.07161  0.23453  0.76982  Biso   1.000  C
  C1072    1.0000 0.07207  0.21757  0.79755  Biso   1.000  C
  C1073    1.0000 0.09630  0.22259  0.81847  Biso   1.000  C
  C1074    1.0000 0.04585  0.23060  0.74695  Biso   1.000  C
  H713     1.0000 0.13510  0.27349  0.78165  Biso   1.000  H
  H714     1.0000 0.09565  0.26757  0.74495  Biso   1.000  H
  H715     1.0000 0.05605  0.20279  0.80208  Biso   1.000  H
  H716     1.0000 0.09641  0.21133  0.83767  Biso   1.000  H
  N359     1.0000 0.63049  0.74269  0.43736  Biso   1.000  N
  N360     1.0000 0.70663  0.75135  0.52629  Biso   1.000  N
  C1075    1.0000 0.63128  0.75897  0.46429  Biso   1.000  C
  C1076    1.0000 0.65458  0.75567  0.48623  Biso   1.000  C
  C1077    1.0000 0.67839  0.73453  0.48018  Biso   1.000  C
  C1078    1.0000 0.67793  0.71757  0.45245  Biso   1.000  C
  C1079    1.0000 0.65370  0.72259  0.43153  Biso   1.000  C
  C1080    1.0000 0.70415  0.73060  0.50305  Biso   1.000  C
  H717     1.0000 0.61490  0.77349  0.46835  Biso   1.000  H
  H718     1.0000 0.65435  0.76757  0.50505  Biso   1.000  H
  H719     1.0000 0.69395  0.70279  0.44792  Biso   1.000  H
  H720     1.0000 0.65359  0.71133  0.41233  Biso   1.000  H
  N361     1.0000 0.36951  0.18736  0.99269  Biso   1.000  N
  N362     1.0000 0.29337  0.27629  0.00135  Biso   1.000  N
  C1081    1.0000 0.36872  0.21429  0.00897  Biso   1.000  C
  C1082    1.0000 0.34542  0.23623  0.00567  Biso   1.000  C
  C1083    1.0000 0.32161  0.23018  0.98453  Biso   1.000  C
  C1084    1.0000 0.32207  0.20245  0.96757  Biso   1.000  C
  C1085    1.0000 0.34630  0.18153  0.97259  Biso   1.000  C
  C1086    1.0000 0.29585  0.25305  0.98060  Biso   1.000  C
  H721     1.0000 0.38510  0.21835  0.02349  Biso   1.000  H
  H722     1.0000 0.34565  0.25505  0.01757  Biso   1.000  H
  H723     1.0000 0.30605  0.19792  0.95279  Biso   1.000  H
  H724     1.0000 0.34641  0.16233  0.96133  Biso   1.000  H
  N363     1.0000 0.88049  0.56264  0.49269  Biso   1.000  N
  N364     1.0000 0.95663  0.47371  0.50135  Biso   1.000  N
  C1087    1.0000 0.88128  0.53571  0.50897  Biso   1.000  C
  C1088    1.0000 0.90458  0.51377  0.50567  Biso   1.000  C
  C1089    1.0000 0.92839  0.51982  0.48453  Biso   1.000  C
  C1090    1.0000 0.92793  0.54755  0.46757  Biso   1.000  C
  C1091    1.0000 0.90370  0.56847  0.47259  Biso   1.000  C
  C1092    1.0000 0.95415  0.49695  0.48060  Biso   1.000  C
  H725     1.0000 0.86490  0.53165  0.52349  Biso   1.000  H
  H726     1.0000 0.90435  0.49495  0.51757  Biso   1.000  H
  H727     1.0000 0.94395  0.55208  0.45279  Biso   1.000  H
  H728     1.0000 0.90359  0.58767  0.46133  Biso   1.000  H
  N365     1.0000 0.86951  0.06264  0.75731  Biso   1.000  N
  N366     1.0000 0.79337  0.97371  0.74865  Biso   1.000  N
  C1093    1.0000 0.86872  0.03571  0.74103  Biso   1.000  C
  C1094    1.0000 0.84542  0.01377  0.74433  Biso   1.000  C
  C1095    1.0000 0.82161  0.01982  0.76547  Biso   1.000  C
  C1096    1.0000 0.82207  0.04755  0.78243  Biso   1.000  C
  C1097    1.0000 0.84630  0.06847  0.77741  Biso   1.000  C
  C1098    1.0000 0.79585  0.99695  0.76940  Biso   1.000  C
  H729     1.0000 0.88510  0.03165  0.72651  Biso   1.000  H
  H730     1.0000 0.84565  0.99495  0.73243  Biso   1.000  H
  H731     1.0000 0.80605  0.05208  0.79721  Biso   1.000  H
  H732     1.0000 0.84641  0.08767  0.78867  Biso   1.000  H
  N367     1.0000 0.38049  0.68736  0.25731  Biso   1.000  N
  N368     1.0000 0.45663  0.77629  0.24865  Biso   1.000  N
  C1099    1.0000 0.38128  0.71429  0.24103  Biso   1.000  C
  C1100    1.0000 0.40458  0.73623  0.24433  Biso   1.000  C
  C1101    1.0000 0.42839  0.73018  0.26547  Biso   1.000  C
  C1102    1.0000 0.42793  0.70245  0.28243  Biso   1.000  C
  C1103    1.0000 0.40370  0.68153  0.27741  Biso   1.000  C
  C1104    1.0000 0.45415  0.75305  0.26940  Biso   1.000  C
  H733     1.0000 0.36490  0.71835  0.22651  Biso   1.000  H
  H734     1.0000 0.40435  0.75505  0.23243  Biso   1.000  H
  H735     1.0000 0.44395  0.69792  0.29721  Biso   1.000  H
  H736     1.0000 0.40359  0.66233  0.28867  Biso   1.000  H
  N369     1.0000 0.18736  0.25731  0.88049  Biso   1.000  N
  N370     1.0000 0.27629  0.24865  0.95663  Biso   1.000  N
  C1105    1.0000 0.21429  0.24103  0.88128  Biso   1.000  C
  C1106    1.0000 0.23623  0.24433  0.90458  Biso   1.000  C
  C1107    1.0000 0.23018  0.26547  0.92839  Biso   1.000  C
  C1108    1.0000 0.20245  0.28243  0.92793  Biso   1.000  C
  C1109    1.0000 0.18153  0.27741  0.90370  Biso   1.000  C
  C1110    1.0000 0.25305  0.26940  0.95415  Biso   1.000  C
  H737     1.0000 0.21835  0.22651  0.86490  Biso   1.000  H
  H738     1.0000 0.25505  0.23243  0.90435  Biso   1.000  H
  H739     1.0000 0.19792  0.29721  0.94395  Biso   1.000  H
  H740     1.0000 0.16233  0.28867  0.90359  Biso   1.000  H
  N371     1.0000 0.56264  0.75731  0.36951  Biso   1.000  N
  N372     1.0000 0.47371  0.74865  0.29337  Biso   1.000  N
  C1111    1.0000 0.53571  0.74103  0.36872  Biso   1.000  C
  C1112    1.0000 0.51377  0.74433  0.34542  Biso   1.000  C
  C1113    1.0000 0.51982  0.76547  0.32161  Biso   1.000  C
  C1114    1.0000 0.54755  0.78243  0.32207  Biso   1.000  C
  C1115    1.0000 0.56847  0.77741  0.34630  Biso   1.000  C
  C1116    1.0000 0.49695  0.76940  0.29585  Biso   1.000  C
  H741     1.0000 0.53165  0.72651  0.38510  Biso   1.000  H
  H742     1.0000 0.49495  0.73243  0.34565  Biso   1.000  H
  H743     1.0000 0.55208  0.79721  0.30605  Biso   1.000  H
  H744     1.0000 0.58767  0.78867  0.34641  Biso   1.000  H
  N373     1.0000 0.06264  0.49269  0.38049  Biso   1.000  N
  N374     1.0000 0.97371  0.50135  0.45663  Biso   1.000  N
  C1117    1.0000 0.03571  0.50897  0.38128  Biso   1.000  C
  C1118    1.0000 0.01377  0.50567  0.40458  Biso   1.000  C
  C1119    1.0000 0.01982  0.48453  0.42839  Biso   1.000  C
  C1120    1.0000 0.04755  0.46757  0.42793  Biso   1.000  C
  C1121    1.0000 0.06847  0.47259  0.40370  Biso   1.000  C
  C1122    1.0000 0.99695  0.48060  0.45415  Biso   1.000  C
  H745     1.0000 0.03165  0.52349  0.36490  Biso   1.000  H
  H746     1.0000 0.99495  0.51757  0.40435  Biso   1.000  H
  H747     1.0000 0.05208  0.45279  0.44395  Biso   1.000  H
  H748     1.0000 0.08767  0.46133  0.40359  Biso   1.000  H
  N375     1.0000 0.68736  0.99269  0.86951  Biso   1.000  N
  N376     1.0000 0.77629  0.00135  0.79337  Biso   1.000  N
  C1123    1.0000 0.71429  0.00897  0.86872  Biso   1.000  C
  C1124    1.0000 0.73623  0.00567  0.84542  Biso   1.000  C
  C1125    1.0000 0.73018  0.98453  0.82161  Biso   1.000  C
  C1126    1.0000 0.70245  0.96757  0.82207  Biso   1.000  C
  C1127    1.0000 0.68153  0.97259  0.84630  Biso   1.000  C
  C1128    1.0000 0.75305  0.98060  0.79585  Biso   1.000  C
  H749     1.0000 0.71835  0.02349  0.88510  Biso   1.000  H
  H750     1.0000 0.75505  0.01757  0.84565  Biso   1.000  H
  H751     1.0000 0.69792  0.95279  0.80605  Biso   1.000  H
  H752     1.0000 0.66233  0.96133  0.84641  Biso   1.000  H
  N377     1.0000 0.25731  0.36951  0.06264  Biso   1.000  N
  N378     1.0000 0.24865  0.29337  0.97371  Biso   1.000  N
  C1129    1.0000 0.24103  0.36872  0.03571  Biso   1.000  C
  C1130    1.0000 0.24433  0.34542  0.01377  Biso   1.000  C
  C1131    1.0000 0.26547  0.32161  0.01982  Biso   1.000  C
  C1132    1.0000 0.28243  0.32207  0.04755  Biso   1.000  C
  C1133    1.0000 0.27741  0.34630  0.06847  Biso   1.000  C
  C1134    1.0000 0.26940  0.29585  0.99695  Biso   1.000  C
  H753     1.0000 0.22651  0.38510  0.03165  Biso   1.000  H
  H754     1.0000 0.23243  0.34565  0.99495  Biso   1.000  H
  H755     1.0000 0.29721  0.30605  0.05208  Biso   1.000  H
  H756     1.0000 0.28867  0.34641  0.08767  Biso   1.000  H
  N379     1.0000 0.75731  0.88049  0.68736  Biso   1.000  N
  N380     1.0000 0.74865  0.95663  0.77629  Biso   1.000  N
  C1135    1.0000 0.74103  0.88128  0.71429  Biso   1.000  C
  C1136    1.0000 0.74433  0.90458  0.73623  Biso   1.000  C
  C1137    1.0000 0.76547  0.92839  0.73018  Biso   1.000  C
  C1138    1.0000 0.78243  0.92793  0.70245  Biso   1.000  C
  C1139    1.0000 0.77741  0.90370  0.68153  Biso   1.000  C
  C1140    1.0000 0.76940  0.95415  0.75305  Biso   1.000  C
  H757     1.0000 0.72651  0.86490  0.71835  Biso   1.000  H
  H758     1.0000 0.73243  0.90435  0.75505  Biso   1.000  H
  H759     1.0000 0.79721  0.94395  0.69792  Biso   1.000  H
  H760     1.0000 0.78867  0.90359  0.66233  Biso   1.000  H
  N381     1.0000 0.49269  0.86951  0.18736  Biso   1.000  N
  N382     1.0000 0.50135  0.79337  0.27629  Biso   1.000  N
  C1141    1.0000 0.50897  0.86872  0.21429  Biso   1.000  C
  C1142    1.0000 0.50567  0.84542  0.23623  Biso   1.000  C
  C1143    1.0000 0.48453  0.82161  0.23018  Biso   1.000  C
  C1144    1.0000 0.46757  0.82207  0.20245  Biso   1.000  C
  C1145    1.0000 0.47259  0.84630  0.18153  Biso   1.000  C
  C1146    1.0000 0.48060  0.79585  0.25305  Biso   1.000  C
  H761     1.0000 0.52349  0.88510  0.21835  Biso   1.000  H
  H762     1.0000 0.51757  0.84565  0.25505  Biso   1.000  H
  H763     1.0000 0.45279  0.80605  0.19792  Biso   1.000  H
  H764     1.0000 0.46133  0.84641  0.16233  Biso   1.000  H
  N383     1.0000 0.99269  0.38049  0.56264  Biso   1.000  N
  N384     1.0000 0.00135  0.45663  0.47371  Biso   1.000  N
  C1147    1.0000 0.00897  0.38128  0.53571  Biso   1.000  C
  C1148    1.0000 0.00567  0.40458  0.51377  Biso   1.000  C
  C1149    1.0000 0.98453  0.42839  0.51982  Biso   1.000  C
  C1150    1.0000 0.96757  0.42793  0.54755  Biso   1.000  C
  C1151    1.0000 0.97259  0.40370  0.56847  Biso   1.000  C
  C1152    1.0000 0.98060  0.45415  0.49695  Biso   1.000  C
  H765     1.0000 0.02349  0.36490  0.53165  Biso   1.000  H
  H766     1.0000 0.01757  0.40435  0.49495  Biso   1.000  H
  H767     1.0000 0.95279  0.44395  0.55208  Biso   1.000  H
  H768     1.0000 0.96133  0.40359  0.58767  Biso   1.000  H
  Zn85     1.0000 0.40544  0.15544  0.00000  Biso   1.000  Zn
  Zn86     1.0000 0.84456  0.59456  0.50000  Biso   1.000  Zn
  Zn87     1.0000 0.34456  0.65544  0.25000  Biso   1.000  Zn
  Zn88     1.0000 0.90544  0.09456  0.75000  Biso   1.000  Zn
  Zn89     1.0000 0.50000  0.90544  0.15544  Biso   1.000  Zn
  Zn90     1.0000 0.00000  0.34456  0.59456  Biso   1.000  Zn
  Zn91     1.0000 0.75000  0.84456  0.65544  Biso   1.000  Zn
  Zn92     1.0000 0.25000  0.40544  0.09456  Biso   1.000  Zn
  Zn93     1.0000 0.65544  0.00000  0.90544  Biso   1.000  Zn
  Zn94     1.0000 0.09456  0.50000  0.34456  Biso   1.000  Zn
  Zn95     1.0000 0.15544  0.25000  0.84456  Biso   1.000  Zn
  Zn96     1.0000 0.59456  0.75000  0.40544  Biso   1.000  Zn
