data_image0
_cell_length_a       24.072
_cell_length_b       24.072
_cell_length_c       13.61
_cell_angle_alpha    90
_cell_angle_beta     90
_cell_angle_gamma    90

_symmetry_space_group_name_H-M    "P 1"
_symmetry_int_tables_number       1

loop_
  _symmetry_equiv_pos_as_xyz
  'x, y, z'

loop_
  _atom_site_label
  _atom_site_occupancy
  _atom_site_fract_x
  _atom_site_fract_y
  _atom_site_fract_z
  _atom_site_thermal_displace_type
  _atom_site_B_iso_or_equiv
  _atom_site_type_symbol
  C1       1.0000 0.33330  0.70760  0.63650  Biso   1.000  C
  C2       1.0000 0.32310  0.68860  0.73060  Biso   1.000  C
  H1       1.0000 0.35200  0.68720  0.77590  Biso   1.000  H
  C3       1.0000 0.27160  0.67210  0.75760  Biso   1.000  C
  H2       1.0000 0.26610  0.65730  0.81990  Biso   1.000  H
  C4       1.0000 0.22790  0.67670  0.69560  Biso   1.000  C
  C5       1.0000 0.23730  0.69650  0.60050  Biso   1.000  C
  H3       1.0000 0.20800  0.69900  0.55600  Biso   1.000  H
  C6       1.0000 0.29010  0.71230  0.57280  Biso   1.000  C
  H4       1.0000 0.29620  0.72620  0.51000  Biso   1.000  H
  C7       1.0000 0.39260  0.72570  0.60740  Biso   1.000  C
  C8       1.0000 0.02290  0.67480  0.18340  Biso   1.000  C
  C9       1.0000 0.17000  0.66060  0.72770  Biso   1.000  C
  H5       1.0000 0.16940  0.65570  0.79840  Biso   1.000  H
  H6       1.0000 0.14430  0.69020  0.71130  Biso   1.000  H
  C10      1.0000 0.10900  0.60590  0.61930  Biso   1.000  C
  H7       1.0000 0.08450  0.63440  0.60350  Biso   1.000  H
  C11      1.0000 0.99440  0.63440  0.34440  Biso   1.000  C
  H8       1.0000 0.96150  0.65450  0.33890  Biso   1.000  H
  C12      1.0000 0.09170  0.57520  0.35850  Biso   1.000  C
  H9       1.0000 0.12510  0.55580  0.36310  Biso   1.000  H
  C13      1.0000 0.03420  0.63670  0.26980  Biso   1.000  C
  C14      1.0000 0.08190  0.60730  0.27880  Biso   1.000  C
  H10      1.0000 0.10840  0.60930  0.22930  Biso   1.000  H
  C15      1.0000 0.14920  0.52400  0.62750  Biso   1.000  C
  H11      1.0000 0.15700  0.48650  0.61820  Biso   1.000  H
  C16      1.0000 0.17650  0.55990  0.68510  Biso   1.000  C
  H12      1.0000 0.20770  0.55120  0.72240  Biso   1.000  H
  C17      1.0000 0.00450  0.60170  0.42780  Biso   1.000  C
  H13      1.0000 0.97910  0.60050  0.47910  Biso   1.000  H
  C18      1.0000 0.06360  0.53410  0.52150  Biso   1.000  C
  H14      1.0000 0.02940  0.53120  0.55890  Biso   1.000  H
  H15      1.0000 0.07360  0.49710  0.49940  Biso   1.000  H
  C19      1.0000 0.05350  0.57080  0.43210  Biso   1.000  C
  O1       1.0000 0.06260  0.69150  0.13170  Biso   1.000  O
  O2       1.0000 0.97320  0.68870  0.16260  Biso   1.000  O
  O3       1.0000 0.42490  0.73670  0.67830  Biso   1.000  O
  O4       1.0000 0.40570  0.72730  0.51860  Biso   1.000  O
  N1       1.0000 0.10650  0.55480  0.58420  Biso   1.000  N
  N2       1.0000 0.15240  0.61060  0.68140  Biso   1.000  N
  C20      1.0000 0.83330  0.20760  0.13650  Biso   1.000  C
  C21      1.0000 0.82310  0.18860  0.23060  Biso   1.000  C
  H16      1.0000 0.85200  0.18720  0.27590  Biso   1.000  H
  C22      1.0000 0.77160  0.17210  0.25760  Biso   1.000  C
  H17      1.0000 0.76610  0.15730  0.31990  Biso   1.000  H
  C23      1.0000 0.72790  0.17670  0.19560  Biso   1.000  C
  C24      1.0000 0.73730  0.19650  0.10050  Biso   1.000  C
  H18      1.0000 0.70800  0.19900  0.05600  Biso   1.000  H
  C25      1.0000 0.79010  0.21230  0.07280  Biso   1.000  C
  H19      1.0000 0.79620  0.22620  0.01000  Biso   1.000  H
  C26      1.0000 0.89260  0.22570  0.10740  Biso   1.000  C
  C27      1.0000 0.52290  0.17480  0.68340  Biso   1.000  C
  C28      1.0000 0.67000  0.16060  0.22770  Biso   1.000  C
  H20      1.0000 0.66940  0.15570  0.29840  Biso   1.000  H
  H21      1.0000 0.64430  0.19020  0.21130  Biso   1.000  H
  C29      1.0000 0.60900  0.10590  0.11930  Biso   1.000  C
  H22      1.0000 0.58450  0.13440  0.10350  Biso   1.000  H
  C30      1.0000 0.49440  0.13440  0.84440  Biso   1.000  C
  H23      1.0000 0.46150  0.15450  0.83890  Biso   1.000  H
  C31      1.0000 0.59170  0.07520  0.85850  Biso   1.000  C
  H24      1.0000 0.62510  0.05580  0.86310  Biso   1.000  H
  C32      1.0000 0.53420  0.13670  0.76980  Biso   1.000  C
  C33      1.0000 0.58190  0.10730  0.77880  Biso   1.000  C
  H25      1.0000 0.60840  0.10930  0.72930  Biso   1.000  H
  C34      1.0000 0.64920  0.02400  0.12750  Biso   1.000  C
  H26      1.0000 0.65700  0.98650  0.11820  Biso   1.000  H
  C35      1.0000 0.67650  0.05990  0.18510  Biso   1.000  C
  H27      1.0000 0.70770  0.05120  0.22240  Biso   1.000  H
  C36      1.0000 0.50450  0.10170  0.92780  Biso   1.000  C
  H28      1.0000 0.47910  0.10050  0.97910  Biso   1.000  H
  C37      1.0000 0.56360  0.03410  0.02150  Biso   1.000  C
  H29      1.0000 0.52940  0.03120  0.05890  Biso   1.000  H
  H30      1.0000 0.57360  0.99710  0.99940  Biso   1.000  H
  C38      1.0000 0.55350  0.07080  0.93210  Biso   1.000  C
  O5       1.0000 0.56260  0.19150  0.63170  Biso   1.000  O
  O6       1.0000 0.47320  0.18870  0.66260  Biso   1.000  O
  O7       1.0000 0.92490  0.23670  0.17830  Biso   1.000  O
  O8       1.0000 0.90570  0.22730  0.01860  Biso   1.000  O
  N3       1.0000 0.60650  0.05480  0.08420  Biso   1.000  N
  N4       1.0000 0.65240  0.11060  0.18140  Biso   1.000  N
  C39      1.0000 0.16670  0.29240  0.13650  Biso   1.000  C
  C40      1.0000 0.17690  0.31140  0.23060  Biso   1.000  C
  H31      1.0000 0.14800  0.31280  0.27590  Biso   1.000  H
  C41      1.0000 0.22840  0.32790  0.25760  Biso   1.000  C
  H32      1.0000 0.23390  0.34270  0.31990  Biso   1.000  H
  C42      1.0000 0.27210  0.32330  0.19560  Biso   1.000  C
  C43      1.0000 0.26270  0.30350  0.10050  Biso   1.000  C
  H33      1.0000 0.29200  0.30100  0.05600  Biso   1.000  H
  C44      1.0000 0.20990  0.28770  0.07280  Biso   1.000  C
  H34      1.0000 0.20380  0.27380  0.01000  Biso   1.000  H
  C45      1.0000 0.10740  0.27430  0.10740  Biso   1.000  C
  C46      1.0000 0.47710  0.32520  0.68340  Biso   1.000  C
  C47      1.0000 0.33000  0.33940  0.22770  Biso   1.000  C
  H35      1.0000 0.33060  0.34430  0.29840  Biso   1.000  H
  H36      1.0000 0.35570  0.30980  0.21130  Biso   1.000  H
  C48      1.0000 0.39100  0.39410  0.11930  Biso   1.000  C
  H37      1.0000 0.41550  0.36560  0.10350  Biso   1.000  H
  C49      1.0000 0.50560  0.36560  0.84440  Biso   1.000  C
  H38      1.0000 0.53850  0.34550  0.83890  Biso   1.000  H
  C50      1.0000 0.40830  0.42480  0.85850  Biso   1.000  C
  H39      1.0000 0.37490  0.44420  0.86310  Biso   1.000  H
  C51      1.0000 0.46580  0.36330  0.76980  Biso   1.000  C
  C52      1.0000 0.41810  0.39270  0.77880  Biso   1.000  C
  H40      1.0000 0.39160  0.39070  0.72930  Biso   1.000  H
  C53      1.0000 0.35080  0.47600  0.12750  Biso   1.000  C
  H41      1.0000 0.34300  0.51350  0.11820  Biso   1.000  H
  C54      1.0000 0.32350  0.44010  0.18510  Biso   1.000  C
  H42      1.0000 0.29230  0.44880  0.22240  Biso   1.000  H
  C55      1.0000 0.49550  0.39830  0.92780  Biso   1.000  C
  H43      1.0000 0.52090  0.39950  0.97910  Biso   1.000  H
  C56      1.0000 0.43640  0.46590  0.02150  Biso   1.000  C
  H44      1.0000 0.47060  0.46880  0.05890  Biso   1.000  H
  H45      1.0000 0.42640  0.50290  0.99940  Biso   1.000  H
  C57      1.0000 0.44650  0.42920  0.93210  Biso   1.000  C
  O9       1.0000 0.43740  0.30850  0.63170  Biso   1.000  O
  O10      1.0000 0.52680  0.31130  0.66260  Biso   1.000  O
  O11      1.0000 0.07510  0.26330  0.17830  Biso   1.000  O
  O12      1.0000 0.09430  0.27270  0.01860  Biso   1.000  O
  N5       1.0000 0.39350  0.44520  0.08420  Biso   1.000  N
  N6       1.0000 0.34760  0.38940  0.18140  Biso   1.000  N
  C58      1.0000 0.66670  0.79240  0.63650  Biso   1.000  C
  C59      1.0000 0.67690  0.81140  0.73060  Biso   1.000  C
  H46      1.0000 0.64800  0.81280  0.77590  Biso   1.000  H
  C60      1.0000 0.72840  0.82790  0.75760  Biso   1.000  C
  H47      1.0000 0.73390  0.84270  0.81990  Biso   1.000  H
  C61      1.0000 0.77210  0.82330  0.69560  Biso   1.000  C
  C62      1.0000 0.76270  0.80350  0.60050  Biso   1.000  C
  H48      1.0000 0.79200  0.80100  0.55600  Biso   1.000  H
  C63      1.0000 0.70990  0.78770  0.57280  Biso   1.000  C
  H49      1.0000 0.70380  0.77380  0.51000  Biso   1.000  H
  C64      1.0000 0.60740  0.77430  0.60740  Biso   1.000  C
  C65      1.0000 0.97710  0.82520  0.18340  Biso   1.000  C
  C66      1.0000 0.83000  0.83940  0.72770  Biso   1.000  C
  H50      1.0000 0.83060  0.84430  0.79840  Biso   1.000  H
  H51      1.0000 0.85570  0.80980  0.71130  Biso   1.000  H
  C67      1.0000 0.89100  0.89410  0.61930  Biso   1.000  C
  H52      1.0000 0.91550  0.86560  0.60350  Biso   1.000  H
  C68      1.0000 0.00560  0.86560  0.34440  Biso   1.000  C
  H53      1.0000 0.03850  0.84550  0.33890  Biso   1.000  H
  C69      1.0000 0.90830  0.92480  0.35850  Biso   1.000  C
  H54      1.0000 0.87490  0.94420  0.36310  Biso   1.000  H
  C70      1.0000 0.96580  0.86330  0.26980  Biso   1.000  C
  C71      1.0000 0.91810  0.89270  0.27880  Biso   1.000  C
  H55      1.0000 0.89160  0.89070  0.22930  Biso   1.000  H
  C72      1.0000 0.85080  0.97600  0.62750  Biso   1.000  C
  H56      1.0000 0.84300  0.01350  0.61820  Biso   1.000  H
  C73      1.0000 0.82350  0.94010  0.68510  Biso   1.000  C
  H57      1.0000 0.79230  0.94880  0.72240  Biso   1.000  H
  C74      1.0000 0.99550  0.89830  0.42780  Biso   1.000  C
  H58      1.0000 0.02090  0.89950  0.47910  Biso   1.000  H
  C75      1.0000 0.93640  0.96590  0.52150  Biso   1.000  C
  H59      1.0000 0.97060  0.96880  0.55890  Biso   1.000  H
  H60      1.0000 0.92640  0.00290  0.49940  Biso   1.000  H
  C76      1.0000 0.94650  0.92920  0.43210  Biso   1.000  C
  O13      1.0000 0.93740  0.80850  0.13170  Biso   1.000  O
  O14      1.0000 0.02680  0.81130  0.16260  Biso   1.000  O
  O15      1.0000 0.57510  0.76330  0.67830  Biso   1.000  O
  O16      1.0000 0.59430  0.77270  0.51860  Biso   1.000  O
  N7       1.0000 0.89350  0.94520  0.58420  Biso   1.000  N
  N8       1.0000 0.84760  0.88940  0.68140  Biso   1.000  N
  C77      1.0000 0.04240  0.58330  0.88650  Biso   1.000  C
  C78      1.0000 0.06140  0.57310  0.98060  Biso   1.000  C
  H61      1.0000 0.06280  0.60200  0.02590  Biso   1.000  H
  C79      1.0000 0.07790  0.52160  0.00760  Biso   1.000  C
  H62      1.0000 0.09270  0.51610  0.06990  Biso   1.000  H
  C80      1.0000 0.07330  0.47790  0.94560  Biso   1.000  C
  C81      1.0000 0.05350  0.48730  0.85050  Biso   1.000  C
  H63      1.0000 0.05100  0.45800  0.80600  Biso   1.000  H
  C82      1.0000 0.03770  0.54010  0.82280  Biso   1.000  C
  H64      1.0000 0.02380  0.54620  0.76000  Biso   1.000  H
  C83      1.0000 0.02430  0.64260  0.85740  Biso   1.000  C
  C84      1.0000 0.07520  0.27290  0.43340  Biso   1.000  C
  C85      1.0000 0.08940  0.42000  0.97770  Biso   1.000  C
  H65      1.0000 0.09430  0.41940  0.04840  Biso   1.000  H
  H66      1.0000 0.05980  0.39430  0.96130  Biso   1.000  H
  C86      1.0000 0.14410  0.35900  0.86930  Biso   1.000  C
  H67      1.0000 0.11560  0.33450  0.85350  Biso   1.000  H
  C87      1.0000 0.11560  0.24440  0.59440  Biso   1.000  C
  H68      1.0000 0.09550  0.21150  0.58890  Biso   1.000  H
  C88      1.0000 0.17480  0.34170  0.60850  Biso   1.000  C
  H69      1.0000 0.19420  0.37510  0.61310  Biso   1.000  H
  C89      1.0000 0.11330  0.28420  0.51980  Biso   1.000  C
  C90      1.0000 0.14270  0.33190  0.52880  Biso   1.000  C
  H70      1.0000 0.14070  0.35840  0.47930  Biso   1.000  H
  C91      1.0000 0.22600  0.39920  0.87750  Biso   1.000  C
  H71      1.0000 0.26350  0.40700  0.86820  Biso   1.000  H
  C92      1.0000 0.19010  0.42650  0.93510  Biso   1.000  C
  H72      1.0000 0.19880  0.45770  0.97240  Biso   1.000  H
  C93      1.0000 0.14830  0.25450  0.67780  Biso   1.000  C
  H73      1.0000 0.14950  0.22910  0.72910  Biso   1.000  H
  C94      1.0000 0.21590  0.31360  0.77150  Biso   1.000  C
  H74      1.0000 0.21880  0.27940  0.80890  Biso   1.000  H
  H75      1.0000 0.25290  0.32360  0.74940  Biso   1.000  H
  C95      1.0000 0.17920  0.30350  0.68210  Biso   1.000  C
  O17      1.0000 0.05850  0.31260  0.38170  Biso   1.000  O
  O18      1.0000 0.06130  0.22320  0.41260  Biso   1.000  O
  O19      1.0000 0.01330  0.67490  0.92830  Biso   1.000  O
  O20      1.0000 0.02270  0.65570  0.76860  Biso   1.000  O
  N9       1.0000 0.19520  0.35650  0.83420  Biso   1.000  N
  N10      1.0000 0.13940  0.40240  0.93140  Biso   1.000  N
  C96      1.0000 0.54240  0.08330  0.38650  Biso   1.000  C
  C97      1.0000 0.56140  0.07310  0.48060  Biso   1.000  C
  H76      1.0000 0.56280  0.10200  0.52590  Biso   1.000  H
  C98      1.0000 0.57790  0.02160  0.50760  Biso   1.000  C
  H77      1.0000 0.59270  0.01610  0.56990  Biso   1.000  H
  C99      1.0000 0.57330  0.97790  0.44560  Biso   1.000  C
  C100     1.0000 0.55350  0.98730  0.35050  Biso   1.000  C
  H78      1.0000 0.55100  0.95800  0.30600  Biso   1.000  H
  C101     1.0000 0.53770  0.04010  0.32280  Biso   1.000  C
  H79      1.0000 0.52380  0.04620  0.26000  Biso   1.000  H
  C102     1.0000 0.52430  0.14260  0.35740  Biso   1.000  C
  C103     1.0000 0.57520  0.77290  0.93340  Biso   1.000  C
  C104     1.0000 0.58940  0.92000  0.47770  Biso   1.000  C
  H80      1.0000 0.59430  0.91940  0.54840  Biso   1.000  H
  H81      1.0000 0.55980  0.89430  0.46130  Biso   1.000  H
  C105     1.0000 0.64410  0.85900  0.36930  Biso   1.000  C
  H82      1.0000 0.61560  0.83450  0.35350  Biso   1.000  H
  C106     1.0000 0.61560  0.74440  0.09440  Biso   1.000  C
  H83      1.0000 0.59550  0.71150  0.08890  Biso   1.000  H
  C107     1.0000 0.67480  0.84170  0.10850  Biso   1.000  C
  H84      1.0000 0.69420  0.87510  0.11310  Biso   1.000  H
  C108     1.0000 0.61330  0.78420  0.01980  Biso   1.000  C
  C109     1.0000 0.64270  0.83190  0.02880  Biso   1.000  C
  H85      1.0000 0.64070  0.85840  0.97930  Biso   1.000  H
  C110     1.0000 0.72600  0.89920  0.37750  Biso   1.000  C
  H86      1.0000 0.76350  0.90700  0.36820  Biso   1.000  H
  C111     1.0000 0.69010  0.92650  0.43510  Biso   1.000  C
  H87      1.0000 0.69880  0.95770  0.47240  Biso   1.000  H
  C112     1.0000 0.64830  0.75450  0.17780  Biso   1.000  C
  H88      1.0000 0.64950  0.72910  0.22910  Biso   1.000  H
  C113     1.0000 0.71590  0.81360  0.27150  Biso   1.000  C
  H89      1.0000 0.71880  0.77940  0.30890  Biso   1.000  H
  H90      1.0000 0.75290  0.82360  0.24940  Biso   1.000  H
  C114     1.0000 0.67920  0.80350  0.18210  Biso   1.000  C
  O21      1.0000 0.55850  0.81260  0.88170  Biso   1.000  O
  O22      1.0000 0.56130  0.72320  0.91260  Biso   1.000  O
  O23      1.0000 0.51330  0.17490  0.42830  Biso   1.000  O
  O24      1.0000 0.52270  0.15570  0.26860  Biso   1.000  O
  N11      1.0000 0.69520  0.85650  0.33420  Biso   1.000  N
  N12      1.0000 0.63940  0.90240  0.43140  Biso   1.000  N
  C115     1.0000 0.45760  0.41670  0.38650  Biso   1.000  C
  C116     1.0000 0.43860  0.42690  0.48060  Biso   1.000  C
  H91      1.0000 0.43720  0.39800  0.52590  Biso   1.000  H
  C117     1.0000 0.42210  0.47840  0.50760  Biso   1.000  C
  H92      1.0000 0.40730  0.48390  0.56990  Biso   1.000  H
  C118     1.0000 0.42670  0.52210  0.44560  Biso   1.000  C
  C119     1.0000 0.44650  0.51270  0.35050  Biso   1.000  C
  H93      1.0000 0.44900  0.54200  0.30600  Biso   1.000  H
  C120     1.0000 0.46230  0.45990  0.32280  Biso   1.000  C
  H94      1.0000 0.47620  0.45380  0.26000  Biso   1.000  H
  C121     1.0000 0.47570  0.35740  0.35740  Biso   1.000  C
  C122     1.0000 0.42480  0.72710  0.93340  Biso   1.000  C
  C123     1.0000 0.41060  0.58000  0.47770  Biso   1.000  C
  H95      1.0000 0.40570  0.58060  0.54840  Biso   1.000  H
  H96      1.0000 0.44020  0.60570  0.46130  Biso   1.000  H
  C124     1.0000 0.35590  0.64100  0.36930  Biso   1.000  C
  H97      1.0000 0.38440  0.66550  0.35350  Biso   1.000  H
  C125     1.0000 0.38440  0.75560  0.09440  Biso   1.000  C
  H98      1.0000 0.40450  0.78850  0.08890  Biso   1.000  H
  C126     1.0000 0.32520  0.65830  0.10850  Biso   1.000  C
  H99      1.0000 0.30580  0.62490  0.11310  Biso   1.000  H
  C127     1.0000 0.38670  0.71580  0.01980  Biso   1.000  C
  C128     1.0000 0.35730  0.66810  0.02880  Biso   1.000  C
  H100     1.0000 0.35930  0.64160  0.97930  Biso   1.000  H
  C129     1.0000 0.27400  0.60080  0.37750  Biso   1.000  C
  H101     1.0000 0.23650  0.59300  0.36820  Biso   1.000  H
  C130     1.0000 0.30990  0.57350  0.43510  Biso   1.000  C
  H102     1.0000 0.30120  0.54230  0.47240  Biso   1.000  H
  C131     1.0000 0.35170  0.74550  0.17780  Biso   1.000  C
  H103     1.0000 0.35050  0.77090  0.22910  Biso   1.000  H
  C132     1.0000 0.28410  0.68640  0.27150  Biso   1.000  C
  H104     1.0000 0.28120  0.72060  0.30890  Biso   1.000  H
  H105     1.0000 0.24710  0.67640  0.24940  Biso   1.000  H
  C133     1.0000 0.32080  0.69650  0.18210  Biso   1.000  C
  O25      1.0000 0.44150  0.68740  0.88170  Biso   1.000  O
  O26      1.0000 0.43870  0.77680  0.91260  Biso   1.000  O
  O27      1.0000 0.48670  0.32510  0.42830  Biso   1.000  O
  O28      1.0000 0.47730  0.34430  0.26860  Biso   1.000  O
  N13      1.0000 0.30480  0.64350  0.33420  Biso   1.000  N
  N14      1.0000 0.36060  0.59760  0.43140  Biso   1.000  N
  C134     1.0000 0.95760  0.91670  0.88650  Biso   1.000  C
  C135     1.0000 0.93860  0.92690  0.98060  Biso   1.000  C
  H106     1.0000 0.93720  0.89800  0.02590  Biso   1.000  H
  C136     1.0000 0.92210  0.97840  0.00760  Biso   1.000  C
  H107     1.0000 0.90730  0.98390  0.06990  Biso   1.000  H
  C137     1.0000 0.92670  0.02210  0.94560  Biso   1.000  C
  C138     1.0000 0.94650  0.01270  0.85050  Biso   1.000  C
  H108     1.0000 0.94900  0.04200  0.80600  Biso   1.000  H
  C139     1.0000 0.96230  0.95990  0.82280  Biso   1.000  C
  H109     1.0000 0.97620  0.95380  0.76000  Biso   1.000  H
  C140     1.0000 0.97570  0.85740  0.85740  Biso   1.000  C
  C141     1.0000 0.92480  0.22710  0.43340  Biso   1.000  C
  C142     1.0000 0.91060  0.08000  0.97770  Biso   1.000  C
  H110     1.0000 0.90570  0.08060  0.04840  Biso   1.000  H
  H111     1.0000 0.94020  0.10570  0.96130  Biso   1.000  H
  C143     1.0000 0.85590  0.14100  0.86930  Biso   1.000  C
  H112     1.0000 0.88440  0.16550  0.85350  Biso   1.000  H
  C144     1.0000 0.88440  0.25560  0.59440  Biso   1.000  C
  H113     1.0000 0.90450  0.28850  0.58890  Biso   1.000  H
  C145     1.0000 0.82520  0.15830  0.60850  Biso   1.000  C
  H114     1.0000 0.80580  0.12490  0.61310  Biso   1.000  H
  C146     1.0000 0.88670  0.21580  0.51980  Biso   1.000  C
  C147     1.0000 0.85730  0.16810  0.52880  Biso   1.000  C
  H115     1.0000 0.85930  0.14160  0.47930  Biso   1.000  H
  C148     1.0000 0.77400  0.10080  0.87750  Biso   1.000  C
  H116     1.0000 0.73650  0.09300  0.86820  Biso   1.000  H
  C149     1.0000 0.80990  0.07350  0.93510  Biso   1.000  C
  H117     1.0000 0.80120  0.04230  0.97240  Biso   1.000  H
  C150     1.0000 0.85170  0.24550  0.67780  Biso   1.000  C
  H118     1.0000 0.85050  0.27090  0.72910  Biso   1.000  H
  C151     1.0000 0.78410  0.18640  0.77150  Biso   1.000  C
  H119     1.0000 0.78120  0.22060  0.80890  Biso   1.000  H
  H120     1.0000 0.74710  0.17640  0.74940  Biso   1.000  H
  C152     1.0000 0.82080  0.19650  0.68210  Biso   1.000  C
  O29      1.0000 0.94150  0.18740  0.38170  Biso   1.000  O
  O30      1.0000 0.93870  0.27680  0.41260  Biso   1.000  O
  O31      1.0000 0.98670  0.82510  0.92830  Biso   1.000  O
  O32      1.0000 0.97730  0.84430  0.76860  Biso   1.000  O
  N15      1.0000 0.80480  0.14350  0.83420  Biso   1.000  N
  N16      1.0000 0.86060  0.09760  0.93140  Biso   1.000  N
  C153     1.0000 0.66670  0.29240  0.36350  Biso   1.000  C
  C154     1.0000 0.67690  0.31140  0.26940  Biso   1.000  C
  H121     1.0000 0.64800  0.31280  0.22410  Biso   1.000  H
  C155     1.0000 0.72840  0.32790  0.24240  Biso   1.000  C
  H122     1.0000 0.73390  0.34270  0.18010  Biso   1.000  H
  C156     1.0000 0.77210  0.32330  0.30440  Biso   1.000  C
  C157     1.0000 0.76270  0.30350  0.39950  Biso   1.000  C
  H123     1.0000 0.79200  0.30100  0.44400  Biso   1.000  H
  C158     1.0000 0.70990  0.28770  0.42720  Biso   1.000  C
  H124     1.0000 0.70380  0.27380  0.49000  Biso   1.000  H
  C159     1.0000 0.60740  0.27430  0.39260  Biso   1.000  C
  C160     1.0000 0.97710  0.32520  0.81660  Biso   1.000  C
  C161     1.0000 0.83000  0.33940  0.27230  Biso   1.000  C
  H125     1.0000 0.83060  0.34430  0.20160  Biso   1.000  H
  H126     1.0000 0.85570  0.30980  0.28870  Biso   1.000  H
  C162     1.0000 0.89100  0.39410  0.38070  Biso   1.000  C
  H127     1.0000 0.91550  0.36560  0.39650  Biso   1.000  H
  C163     1.0000 0.00560  0.36560  0.65560  Biso   1.000  C
  H128     1.0000 0.03850  0.34550  0.66110  Biso   1.000  H
  C164     1.0000 0.90830  0.42480  0.64150  Biso   1.000  C
  H129     1.0000 0.87490  0.44420  0.63690  Biso   1.000  H
  C165     1.0000 0.96580  0.36330  0.73020  Biso   1.000  C
  C166     1.0000 0.91810  0.39270  0.72120  Biso   1.000  C
  H130     1.0000 0.89160  0.39070  0.77070  Biso   1.000  H
  C167     1.0000 0.85080  0.47600  0.37250  Biso   1.000  C
  H131     1.0000 0.84300  0.51350  0.38180  Biso   1.000  H
  C168     1.0000 0.82350  0.44010  0.31490  Biso   1.000  C
  H132     1.0000 0.79230  0.44880  0.27760  Biso   1.000  H
  C169     1.0000 0.99550  0.39830  0.57220  Biso   1.000  C
  H133     1.0000 0.02090  0.39950  0.52090  Biso   1.000  H
  C170     1.0000 0.93640  0.46590  0.47850  Biso   1.000  C
  H134     1.0000 0.97060  0.46880  0.44110  Biso   1.000  H
  H135     1.0000 0.92640  0.50290  0.50060  Biso   1.000  H
  C171     1.0000 0.94650  0.42920  0.56790  Biso   1.000  C
  O33      1.0000 0.93740  0.30850  0.86830  Biso   1.000  O
  O34      1.0000 0.02680  0.31130  0.83740  Biso   1.000  O
  O35      1.0000 0.57510  0.26330  0.32170  Biso   1.000  O
  O36      1.0000 0.59430  0.27270  0.48140  Biso   1.000  O
  N17      1.0000 0.89350  0.44520  0.41580  Biso   1.000  N
  N18      1.0000 0.84760  0.38940  0.31860  Biso   1.000  N
  C172     1.0000 0.16670  0.79240  0.86350  Biso   1.000  C
  C173     1.0000 0.17690  0.81140  0.76940  Biso   1.000  C
  H136     1.0000 0.14800  0.81280  0.72410  Biso   1.000  H
  C174     1.0000 0.22840  0.82790  0.74240  Biso   1.000  C
  H137     1.0000 0.23390  0.84270  0.68010  Biso   1.000  H
  C175     1.0000 0.27210  0.82330  0.80440  Biso   1.000  C
  C176     1.0000 0.26270  0.80350  0.89950  Biso   1.000  C
  H138     1.0000 0.29200  0.80100  0.94400  Biso   1.000  H
  C177     1.0000 0.20990  0.78770  0.92720  Biso   1.000  C
  H139     1.0000 0.20380  0.77380  0.99000  Biso   1.000  H
  C178     1.0000 0.10740  0.77430  0.89260  Biso   1.000  C
  C179     1.0000 0.47710  0.82520  0.31660  Biso   1.000  C
  C180     1.0000 0.33000  0.83940  0.77230  Biso   1.000  C
  H140     1.0000 0.33060  0.84430  0.70160  Biso   1.000  H
  H141     1.0000 0.35570  0.80980  0.78870  Biso   1.000  H
  C181     1.0000 0.39100  0.89410  0.88070  Biso   1.000  C
  H142     1.0000 0.41550  0.86560  0.89650  Biso   1.000  H
  C182     1.0000 0.50560  0.86560  0.15560  Biso   1.000  C
  H143     1.0000 0.53850  0.84550  0.16110  Biso   1.000  H
  C183     1.0000 0.40830  0.92480  0.14150  Biso   1.000  C
  H144     1.0000 0.37490  0.94420  0.13690  Biso   1.000  H
  C184     1.0000 0.46580  0.86330  0.23020  Biso   1.000  C
  C185     1.0000 0.41810  0.89270  0.22120  Biso   1.000  C
  H145     1.0000 0.39160  0.89070  0.27070  Biso   1.000  H
  C186     1.0000 0.35080  0.97600  0.87250  Biso   1.000  C
  H146     1.0000 0.34300  0.01350  0.88180  Biso   1.000  H
  C187     1.0000 0.32350  0.94010  0.81490  Biso   1.000  C
  H147     1.0000 0.29230  0.94880  0.77760  Biso   1.000  H
  C188     1.0000 0.49550  0.89830  0.07220  Biso   1.000  C
  H148     1.0000 0.52090  0.89950  0.02090  Biso   1.000  H
  C189     1.0000 0.43640  0.96590  0.97850  Biso   1.000  C
  H149     1.0000 0.47060  0.96880  0.94110  Biso   1.000  H
  H150     1.0000 0.42640  0.00290  0.00060  Biso   1.000  H
  C190     1.0000 0.44650  0.92920  0.06790  Biso   1.000  C
  O37      1.0000 0.43740  0.80850  0.36830  Biso   1.000  O
  O38      1.0000 0.52680  0.81130  0.33740  Biso   1.000  O
  O39      1.0000 0.07510  0.76330  0.82170  Biso   1.000  O
  O40      1.0000 0.09430  0.77270  0.98140  Biso   1.000  O
  N19      1.0000 0.39350  0.94520  0.91580  Biso   1.000  N
  N20      1.0000 0.34760  0.88940  0.81860  Biso   1.000  N
  C191     1.0000 0.83330  0.70760  0.86350  Biso   1.000  C
  C192     1.0000 0.82310  0.68860  0.76940  Biso   1.000  C
  H151     1.0000 0.85200  0.68720  0.72410  Biso   1.000  H
  C193     1.0000 0.77160  0.67210  0.74240  Biso   1.000  C
  H152     1.0000 0.76610  0.65730  0.68010  Biso   1.000  H
  C194     1.0000 0.72790  0.67670  0.80440  Biso   1.000  C
  C195     1.0000 0.73730  0.69650  0.89950  Biso   1.000  C
  H153     1.0000 0.70800  0.69900  0.94400  Biso   1.000  H
  C196     1.0000 0.79010  0.71230  0.92720  Biso   1.000  C
  H154     1.0000 0.79620  0.72620  0.99000  Biso   1.000  H
  C197     1.0000 0.89260  0.72570  0.89260  Biso   1.000  C
  C198     1.0000 0.52290  0.67480  0.31660  Biso   1.000  C
  C199     1.0000 0.67000  0.66060  0.77230  Biso   1.000  C
  H155     1.0000 0.66940  0.65570  0.70160  Biso   1.000  H
  H156     1.0000 0.64430  0.69020  0.78870  Biso   1.000  H
  C200     1.0000 0.60900  0.60590  0.88070  Biso   1.000  C
  H157     1.0000 0.58450  0.63440  0.89650  Biso   1.000  H
  C201     1.0000 0.49440  0.63440  0.15560  Biso   1.000  C
  H158     1.0000 0.46150  0.65450  0.16110  Biso   1.000  H
  C202     1.0000 0.59170  0.57520  0.14150  Biso   1.000  C
  H159     1.0000 0.62510  0.55580  0.13690  Biso   1.000  H
  C203     1.0000 0.53420  0.63670  0.23020  Biso   1.000  C
  C204     1.0000 0.58190  0.60730  0.22120  Biso   1.000  C
  H160     1.0000 0.60840  0.60930  0.27070  Biso   1.000  H
  C205     1.0000 0.64920  0.52400  0.87250  Biso   1.000  C
  H161     1.0000 0.65700  0.48650  0.88180  Biso   1.000  H
  C206     1.0000 0.67650  0.55990  0.81490  Biso   1.000  C
  H162     1.0000 0.70770  0.55120  0.77760  Biso   1.000  H
  C207     1.0000 0.50450  0.60170  0.07220  Biso   1.000  C
  H163     1.0000 0.47910  0.60050  0.02090  Biso   1.000  H
  C208     1.0000 0.56360  0.53410  0.97850  Biso   1.000  C
  H164     1.0000 0.52940  0.53120  0.94110  Biso   1.000  H
  H165     1.0000 0.57360  0.49710  0.00060  Biso   1.000  H
  C209     1.0000 0.55350  0.57080  0.06790  Biso   1.000  C
  O41      1.0000 0.56260  0.69150  0.36830  Biso   1.000  O
  O42      1.0000 0.47320  0.68870  0.33740  Biso   1.000  O
  O43      1.0000 0.92490  0.73670  0.82170  Biso   1.000  O
  O44      1.0000 0.90570  0.72730  0.98140  Biso   1.000  O
  N21      1.0000 0.60650  0.55480  0.91580  Biso   1.000  N
  N22      1.0000 0.65240  0.61060  0.81860  Biso   1.000  N
  C210     1.0000 0.33330  0.20760  0.36350  Biso   1.000  C
  C211     1.0000 0.32310  0.18860  0.26940  Biso   1.000  C
  H166     1.0000 0.35200  0.18720  0.22410  Biso   1.000  H
  C212     1.0000 0.27160  0.17210  0.24240  Biso   1.000  C
  H167     1.0000 0.26610  0.15730  0.18010  Biso   1.000  H
  C213     1.0000 0.22790  0.17670  0.30440  Biso   1.000  C
  C214     1.0000 0.23730  0.19650  0.39950  Biso   1.000  C
  H168     1.0000 0.20800  0.19900  0.44400  Biso   1.000  H
  C215     1.0000 0.29010  0.21230  0.42720  Biso   1.000  C
  H169     1.0000 0.29620  0.22620  0.49000  Biso   1.000  H
  C216     1.0000 0.39260  0.22570  0.39260  Biso   1.000  C
  C217     1.0000 0.02290  0.17480  0.81660  Biso   1.000  C
  C218     1.0000 0.17000  0.16060  0.27230  Biso   1.000  C
  H170     1.0000 0.16940  0.15570  0.20160  Biso   1.000  H
  H171     1.0000 0.14430  0.19020  0.28870  Biso   1.000  H
  C219     1.0000 0.10900  0.10590  0.38070  Biso   1.000  C
  H172     1.0000 0.08450  0.13440  0.39650  Biso   1.000  H
  C220     1.0000 0.99440  0.13440  0.65560  Biso   1.000  C
  H173     1.0000 0.96150  0.15450  0.66110  Biso   1.000  H
  C221     1.0000 0.09170  0.07520  0.64150  Biso   1.000  C
  H174     1.0000 0.12510  0.05580  0.63690  Biso   1.000  H
  C222     1.0000 0.03420  0.13670  0.73020  Biso   1.000  C
  C223     1.0000 0.08190  0.10730  0.72120  Biso   1.000  C
  H175     1.0000 0.10840  0.10930  0.77070  Biso   1.000  H
  C224     1.0000 0.14920  0.02400  0.37250  Biso   1.000  C
  H176     1.0000 0.15700  0.98650  0.38180  Biso   1.000  H
  C225     1.0000 0.17650  0.05990  0.31490  Biso   1.000  C
  H177     1.0000 0.20770  0.05120  0.27760  Biso   1.000  H
  C226     1.0000 0.00450  0.10170  0.57220  Biso   1.000  C
  H178     1.0000 0.97910  0.10050  0.52090  Biso   1.000  H
  C227     1.0000 0.06360  0.03410  0.47850  Biso   1.000  C
  H179     1.0000 0.02940  0.03120  0.44110  Biso   1.000  H
  H180     1.0000 0.07360  0.99710  0.50060  Biso   1.000  H
  C228     1.0000 0.05350  0.07080  0.56790  Biso   1.000  C
  O45      1.0000 0.06260  0.19150  0.86830  Biso   1.000  O
  O46      1.0000 0.97320  0.18870  0.83740  Biso   1.000  O
  O47      1.0000 0.42490  0.23670  0.32170  Biso   1.000  O
  O48      1.0000 0.40570  0.22730  0.48140  Biso   1.000  O
  N23      1.0000 0.10650  0.05480  0.41580  Biso   1.000  N
  N24      1.0000 0.15240  0.11060  0.31860  Biso   1.000  N
  C229     1.0000 0.95760  0.41670  0.11350  Biso   1.000  C
  C230     1.0000 0.93860  0.42690  0.01940  Biso   1.000  C
  H181     1.0000 0.93720  0.39800  0.97410  Biso   1.000  H
  C231     1.0000 0.92210  0.47840  0.99240  Biso   1.000  C
  H182     1.0000 0.90730  0.48390  0.93010  Biso   1.000  H
  C232     1.0000 0.92670  0.52210  0.05440  Biso   1.000  C
  C233     1.0000 0.94650  0.51270  0.14950  Biso   1.000  C
  H183     1.0000 0.94900  0.54200  0.19400  Biso   1.000  H
  C234     1.0000 0.96230  0.45990  0.17720  Biso   1.000  C
  H184     1.0000 0.97620  0.45380  0.24000  Biso   1.000  H
  C235     1.0000 0.97570  0.35740  0.14260  Biso   1.000  C
  C236     1.0000 0.92480  0.72710  0.56660  Biso   1.000  C
  C237     1.0000 0.91060  0.58000  0.02230  Biso   1.000  C
  H185     1.0000 0.90570  0.58060  0.95160  Biso   1.000  H
  H186     1.0000 0.94020  0.60570  0.03870  Biso   1.000  H
  C238     1.0000 0.85590  0.64100  0.13070  Biso   1.000  C
  H187     1.0000 0.88440  0.66550  0.14650  Biso   1.000  H
  C239     1.0000 0.88440  0.75560  0.40560  Biso   1.000  C
  H188     1.0000 0.90450  0.78850  0.41110  Biso   1.000  H
  C240     1.0000 0.82520  0.65830  0.39150  Biso   1.000  C
  H189     1.0000 0.80580  0.62490  0.38690  Biso   1.000  H
  C241     1.0000 0.88670  0.71580  0.48020  Biso   1.000  C
  C242     1.0000 0.85730  0.66810  0.47120  Biso   1.000  C
  H190     1.0000 0.85930  0.64160  0.52070  Biso   1.000  H
  C243     1.0000 0.77400  0.60080  0.12250  Biso   1.000  C
  H191     1.0000 0.73650  0.59300  0.13180  Biso   1.000  H
  C244     1.0000 0.80990  0.57350  0.06490  Biso   1.000  C
  H192     1.0000 0.80120  0.54230  0.02760  Biso   1.000  H
  C245     1.0000 0.85170  0.74550  0.32220  Biso   1.000  C
  H193     1.0000 0.85050  0.77090  0.27090  Biso   1.000  H
  C246     1.0000 0.78410  0.68640  0.22850  Biso   1.000  C
  H194     1.0000 0.78120  0.72060  0.19110  Biso   1.000  H
  H195     1.0000 0.74710  0.67640  0.25060  Biso   1.000  H
  C247     1.0000 0.82080  0.69650  0.31790  Biso   1.000  C
  O49      1.0000 0.94150  0.68740  0.61830  Biso   1.000  O
  O50      1.0000 0.93870  0.77680  0.58740  Biso   1.000  O
  O51      1.0000 0.98670  0.32510  0.07170  Biso   1.000  O
  O52      1.0000 0.97730  0.34430  0.23140  Biso   1.000  O
  N25      1.0000 0.80480  0.64350  0.16580  Biso   1.000  N
  N26      1.0000 0.86060  0.59760  0.06860  Biso   1.000  N
  C248     1.0000 0.45760  0.91670  0.61350  Biso   1.000  C
  C249     1.0000 0.43860  0.92690  0.51940  Biso   1.000  C
  H196     1.0000 0.43720  0.89800  0.47410  Biso   1.000  H
  C250     1.0000 0.42210  0.97840  0.49240  Biso   1.000  C
  H197     1.0000 0.40730  0.98390  0.43010  Biso   1.000  H
  C251     1.0000 0.42670  0.02210  0.55440  Biso   1.000  C
  C252     1.0000 0.44650  0.01270  0.64950  Biso   1.000  C
  H198     1.0000 0.44900  0.04200  0.69400  Biso   1.000  H
  C253     1.0000 0.46230  0.95990  0.67720  Biso   1.000  C
  H199     1.0000 0.47620  0.95380  0.74000  Biso   1.000  H
  C254     1.0000 0.47570  0.85740  0.64260  Biso   1.000  C
  C255     1.0000 0.42480  0.22710  0.06660  Biso   1.000  C
  C256     1.0000 0.41060  0.08000  0.52230  Biso   1.000  C
  H200     1.0000 0.40570  0.08060  0.45160  Biso   1.000  H
  H201     1.0000 0.44020  0.10570  0.53870  Biso   1.000  H
  C257     1.0000 0.35590  0.14100  0.63070  Biso   1.000  C
  H202     1.0000 0.38440  0.16550  0.64650  Biso   1.000  H
  C258     1.0000 0.38440  0.25560  0.90560  Biso   1.000  C
  H203     1.0000 0.40450  0.28850  0.91110  Biso   1.000  H
  C259     1.0000 0.32520  0.15830  0.89150  Biso   1.000  C
  H204     1.0000 0.30580  0.12490  0.88690  Biso   1.000  H
  C260     1.0000 0.38670  0.21580  0.98020  Biso   1.000  C
  C261     1.0000 0.35730  0.16810  0.97120  Biso   1.000  C
  H205     1.0000 0.35930  0.14160  0.02070  Biso   1.000  H
  C262     1.0000 0.27400  0.10080  0.62250  Biso   1.000  C
  H206     1.0000 0.23650  0.09300  0.63180  Biso   1.000  H
  C263     1.0000 0.30990  0.07350  0.56490  Biso   1.000  C
  H207     1.0000 0.30120  0.04230  0.52760  Biso   1.000  H
  C264     1.0000 0.35170  0.24550  0.82220  Biso   1.000  C
  H208     1.0000 0.35050  0.27090  0.77090  Biso   1.000  H
  C265     1.0000 0.28410  0.18640  0.72850  Biso   1.000  C
  H209     1.0000 0.28120  0.22060  0.69110  Biso   1.000  H
  H210     1.0000 0.24710  0.17640  0.75060  Biso   1.000  H
  C266     1.0000 0.32080  0.19650  0.81790  Biso   1.000  C
  O53      1.0000 0.44150  0.18740  0.11830  Biso   1.000  O
  O54      1.0000 0.43870  0.27680  0.08740  Biso   1.000  O
  O55      1.0000 0.48670  0.82510  0.57170  Biso   1.000  O
  O56      1.0000 0.47730  0.84430  0.73140  Biso   1.000  O
  N27      1.0000 0.30480  0.14350  0.66580  Biso   1.000  N
  N28      1.0000 0.36060  0.09760  0.56860  Biso   1.000  N
  C267     1.0000 0.54240  0.58330  0.61350  Biso   1.000  C
  C268     1.0000 0.56140  0.57310  0.51940  Biso   1.000  C
  H211     1.0000 0.56280  0.60200  0.47410  Biso   1.000  H
  C269     1.0000 0.57790  0.52160  0.49240  Biso   1.000  C
  H212     1.0000 0.59270  0.51610  0.43010  Biso   1.000  H
  C270     1.0000 0.57330  0.47790  0.55440  Biso   1.000  C
  C271     1.0000 0.55350  0.48730  0.64950  Biso   1.000  C
  H213     1.0000 0.55100  0.45800  0.69400  Biso   1.000  H
  C272     1.0000 0.53770  0.54010  0.67720  Biso   1.000  C
  H214     1.0000 0.52380  0.54620  0.74000  Biso   1.000  H
  C273     1.0000 0.52430  0.64260  0.64260  Biso   1.000  C
  C274     1.0000 0.57520  0.27290  0.06660  Biso   1.000  C
  C275     1.0000 0.58940  0.42000  0.52230  Biso   1.000  C
  H215     1.0000 0.59430  0.41940  0.45160  Biso   1.000  H
  H216     1.0000 0.55980  0.39430  0.53870  Biso   1.000  H
  C276     1.0000 0.64410  0.35900  0.63070  Biso   1.000  C
  H217     1.0000 0.61560  0.33450  0.64650  Biso   1.000  H
  C277     1.0000 0.61560  0.24440  0.90560  Biso   1.000  C
  H218     1.0000 0.59550  0.21150  0.91110  Biso   1.000  H
  C278     1.0000 0.67480  0.34170  0.89150  Biso   1.000  C
  H219     1.0000 0.69420  0.37510  0.88690  Biso   1.000  H
  C279     1.0000 0.61330  0.28420  0.98020  Biso   1.000  C
  C280     1.0000 0.64270  0.33190  0.97120  Biso   1.000  C
  H220     1.0000 0.64070  0.35840  0.02070  Biso   1.000  H
  C281     1.0000 0.72600  0.39920  0.62250  Biso   1.000  C
  H221     1.0000 0.76350  0.40700  0.63180  Biso   1.000  H
  C282     1.0000 0.69010  0.42650  0.56490  Biso   1.000  C
  H222     1.0000 0.69880  0.45770  0.52760  Biso   1.000  H
  C283     1.0000 0.64830  0.25450  0.82220  Biso   1.000  C
  H223     1.0000 0.64950  0.22910  0.77090  Biso   1.000  H
  C284     1.0000 0.71590  0.31360  0.72850  Biso   1.000  C
  H224     1.0000 0.71880  0.27940  0.69110  Biso   1.000  H
  H225     1.0000 0.75290  0.32360  0.75060  Biso   1.000  H
  C285     1.0000 0.67920  0.30350  0.81790  Biso   1.000  C
  O57      1.0000 0.55850  0.31260  0.11830  Biso   1.000  O
  O58      1.0000 0.56130  0.22320  0.08740  Biso   1.000  O
  O59      1.0000 0.51330  0.67490  0.57170  Biso   1.000  O
  O60      1.0000 0.52270  0.65570  0.73140  Biso   1.000  O
  N29      1.0000 0.69520  0.35650  0.66580  Biso   1.000  N
  N30      1.0000 0.63940  0.40240  0.56860  Biso   1.000  N
  C286     1.0000 0.04240  0.08330  0.11350  Biso   1.000  C
  C287     1.0000 0.06140  0.07310  0.01940  Biso   1.000  C
  H226     1.0000 0.06280  0.10200  0.97410  Biso   1.000  H
  C288     1.0000 0.07790  0.02160  0.99240  Biso   1.000  C
  H227     1.0000 0.09270  0.01610  0.93010  Biso   1.000  H
  C289     1.0000 0.07330  0.97790  0.05440  Biso   1.000  C
  C290     1.0000 0.05350  0.98730  0.14950  Biso   1.000  C
  H228     1.0000 0.05100  0.95800  0.19400  Biso   1.000  H
  C291     1.0000 0.03770  0.04010  0.17720  Biso   1.000  C
  H229     1.0000 0.02380  0.04620  0.24000  Biso   1.000  H
  C292     1.0000 0.02430  0.14260  0.14260  Biso   1.000  C
  C293     1.0000 0.07520  0.77290  0.56660  Biso   1.000  C
  C294     1.0000 0.08940  0.92000  0.02230  Biso   1.000  C
  H230     1.0000 0.09430  0.91940  0.95160  Biso   1.000  H
  H231     1.0000 0.05980  0.89430  0.03870  Biso   1.000  H
  C295     1.0000 0.14410  0.85900  0.13070  Biso   1.000  C
  H232     1.0000 0.11560  0.83450  0.14650  Biso   1.000  H
  C296     1.0000 0.11560  0.74440  0.40560  Biso   1.000  C
  H233     1.0000 0.09550  0.71150  0.41110  Biso   1.000  H
  C297     1.0000 0.17480  0.84170  0.39150  Biso   1.000  C
  H234     1.0000 0.19420  0.87510  0.38690  Biso   1.000  H
  C298     1.0000 0.11330  0.78420  0.48020  Biso   1.000  C
  C299     1.0000 0.14270  0.83190  0.47120  Biso   1.000  C
  H235     1.0000 0.14070  0.85840  0.52070  Biso   1.000  H
  C300     1.0000 0.22600  0.89920  0.12250  Biso   1.000  C
  H236     1.0000 0.26350  0.90700  0.13180  Biso   1.000  H
  C301     1.0000 0.19010  0.92650  0.06490  Biso   1.000  C
  H237     1.0000 0.19880  0.95770  0.02760  Biso   1.000  H
  C302     1.0000 0.14830  0.75450  0.32220  Biso   1.000  C
  H238     1.0000 0.14950  0.72910  0.27090  Biso   1.000  H
  C303     1.0000 0.21590  0.81360  0.22850  Biso   1.000  C
  H239     1.0000 0.21880  0.77940  0.19110  Biso   1.000  H
  H240     1.0000 0.25290  0.82360  0.25060  Biso   1.000  H
  C304     1.0000 0.17920  0.80350  0.31790  Biso   1.000  C
  O61      1.0000 0.05850  0.81260  0.61830  Biso   1.000  O
  O62      1.0000 0.06130  0.72320  0.58740  Biso   1.000  O
  O63      1.0000 0.01330  0.17490  0.07170  Biso   1.000  O
  O64      1.0000 0.02270  0.15570  0.23140  Biso   1.000  O
  N31      1.0000 0.19520  0.85650  0.16580  Biso   1.000  N
  N32      1.0000 0.13940  0.90240  0.06860  Biso   1.000  N
  Eu1      1.0000 0.00000  0.75000  0.02829  Biso   1.000  Eu
  Eu2      1.0000 0.50000  0.25000  0.52829  Biso   1.000  Eu
  Eu3      1.0000 0.00000  0.25000  0.27829  Biso   1.000  Eu
  Eu4      1.0000 0.50000  0.75000  0.77829  Biso   1.000  Eu
  Eu5      1.0000 0.00000  0.25000  0.97171  Biso   1.000  Eu
  Eu6      1.0000 0.50000  0.75000  0.47171  Biso   1.000  Eu
  Eu7      1.0000 0.00000  0.75000  0.72171  Biso   1.000  Eu
  Eu8      1.0000 0.50000  0.25000  0.22171  Biso   1.000  Eu
