data_image0
_cell_length_a       31.5201
_cell_length_b       39.6365
_cell_length_c       13.9957
_cell_angle_alpha    90
_cell_angle_beta     90
_cell_angle_gamma    90

_symmetry_space_group_name_H-M    "P 1"
_symmetry_int_tables_number       1

loop_
  _symmetry_equiv_pos_as_xyz
  'x, y, z'

loop_
  _atom_site_label
  _atom_site_occupancy
  _atom_site_fract_x
  _atom_site_fract_y
  _atom_site_fract_z
  _atom_site_thermal_displace_type
  _atom_site_B_iso_or_equiv
  _atom_site_type_symbol
  Ag1      1.0000 0.27481  0.00006  0.76211  Biso   1.000  Ag
  P1       1.0000 0.31158  0.03864  0.65390  Biso   1.000  P
  P2       1.0000 0.18834  0.03808  0.37183  Biso   1.000  P
  N1       1.0000 0.22110  0.96120  0.70480  Biso   1.000  N
  N2       1.0000 0.02870  0.78763  0.56540  Biso   1.000  N
  C1       1.0000 0.22200  0.06440  0.44780  Biso   1.000  C
  H1       1.0000 0.23900  0.07980  0.40730  Biso   1.000  H
  H2       1.0000 0.20390  0.07840  0.49000  Biso   1.000  H
  C2       1.0000 0.25030  0.04379  0.50600  Biso   1.000  C
  H3       1.0000 0.26950  0.03100  0.46320  Biso   1.000  H
  H4       1.0000 0.23320  0.02720  0.54220  Biso   1.000  H
  C3       1.0000 0.27840  0.06510  0.57970  Biso   1.000  C
  H5       1.0000 0.25940  0.07850  0.62110  Biso   1.000  H
  H6       1.0000 0.29660  0.08090  0.54360  Biso   1.000  H
  C4       1.0000 0.18520  0.95700  0.76320  Biso   1.000  C
  H7       1.0000 0.17960  0.97110  0.81640  Biso   1.000  H
  C5       1.0000 0.15830  0.93030  0.73720  Biso   1.000  C
  H8       1.0000 0.13290  0.92710  0.77260  Biso   1.000  H
  C6       1.0000 0.16690  0.90900  0.66370  Biso   1.000  C
  H9       1.0000 0.14780  0.89140  0.64740  Biso   1.000  H
  C7       1.0000 0.20590  0.91390  0.61100  Biso   1.000  C
  H10      1.0000 0.21350  0.89870  0.56130  Biso   1.000  H
  C8       1.0000 0.23160  0.94040  0.63300  Biso   1.000  C
  H11      1.0000 0.25690  0.94410  0.59760  Biso   1.000  H
  C9       1.0000 0.06390  0.79430  0.52620  Biso   1.000  C
  H12      1.0000 0.07280  0.77950  0.47670  Biso   1.000  H
  C10      1.0000 0.09140  0.82140  0.54790  Biso   1.000  C
  H13      1.0000 0.11690  0.82480  0.51300  Biso   1.000  H
  C11      1.0000 0.07980  0.84350  0.62400  Biso   1.000  C
  C12      1.0000 0.04350  0.83680  0.66510  Biso   1.000  C
  H14      1.0000 0.03300  0.85090  0.71450  Biso   1.000  H
  C13      1.0000 0.02140  0.80990  0.63700  Biso   1.000  C
  H15      1.0000 0.99650  0.80570  0.67310  Biso   1.000  H
  C14      1.0000 0.10370  0.87260  0.65040  Biso   1.000  C
  H16      1.0000 0.09350  0.88950  0.69250  Biso   1.000  H
  C15      1.0000 0.13630  0.87330  0.61600  Biso   1.000  C
  H17      1.0000 0.14620  0.85770  0.56950  Biso   1.000  H
  C16      1.0000 0.15600  0.06897  0.30520  Biso   1.000  C
  C17      1.0000 0.17650  0.09300  0.24950  Biso   1.000  C
  H18      1.0000 0.20660  0.09460  0.25070  Biso   1.000  H
  C18      1.0000 0.15300  0.11470  0.19220  Biso   1.000  C
  H19      1.0000 0.16700  0.13110  0.15420  Biso   1.000  H
  C19      1.0000 0.10900  0.11240  0.19050  Biso   1.000  C
  H20      1.0000 0.09300  0.12730  0.15140  Biso   1.000  H
  C20      1.0000 0.08850  0.08840  0.24620  Biso   1.000  C
  H21      1.0000 0.05840  0.08680  0.24500  Biso   1.000  H
  C21      1.0000 0.11200  0.06670  0.30350  Biso   1.000  C
  H22      1.0000 0.09790  0.05020  0.34150  Biso   1.000  H
  C22      1.0000 0.34870  0.02010  0.56640  Biso   1.000  C
  C23      1.0000 0.37050  0.03876  0.49800  Biso   1.000  C
  H23      1.0000 0.36700  0.06250  0.49510  Biso   1.000  H
  C24      1.0000 0.39750  0.02260  0.43410  Biso   1.000  C
  H24      1.0000 0.41240  0.03540  0.38740  Biso   1.000  H
  C25      1.0000 0.40260  0.98780  0.43850  Biso   1.000  C
  H25      1.0000 0.42100  0.97680  0.39480  Biso   1.000  H
  C26      1.0000 0.38080  0.96917  0.50680  Biso   1.000  C
  H26      1.0000 0.38440  0.94540  0.50980  Biso   1.000  H
  C27      1.0000 0.35390  0.98530  0.57070  Biso   1.000  C
  H27      1.0000 0.33900  0.97260  0.61740  Biso   1.000  H
  C28      1.0000 0.34325  0.06831  0.72170  Biso   1.000  C
  C29      1.0000 0.38697  0.06430  0.72790  Biso   1.000  C
  H28      1.0000 0.40070  0.04730  0.69130  Biso   1.000  H
  C30      1.0000 0.41058  0.08510  0.78750  Biso   1.000  C
  H29      1.0000 0.44050  0.08240  0.79170  Biso   1.000  H
  C31      1.0000 0.39050  0.10990  0.84110  Biso   1.000  C
  H30      1.0000 0.40660  0.12420  0.88180  Biso   1.000  H
  C32      1.0000 0.34670  0.11396  0.83490  Biso   1.000  C
  H31      1.0000 0.33300  0.13090  0.87150  Biso   1.000  H
  C33      1.0000 0.32314  0.09310  0.77530  Biso   1.000  C
  H32      1.0000 0.29330  0.09590  0.77110  Biso   1.000  H
  C34      1.0000 0.15200  0.01970  0.45370  Biso   1.000  C
  C35      1.0000 0.13070  0.03980  0.51920  Biso   1.000  C
  H33      1.0000 0.13520  0.06350  0.51960  Biso   1.000  H
  C36      1.0000 0.10280  0.02530  0.58430  Biso   1.000  C
  H34      1.0000 0.08820  0.03910  0.62910  Biso   1.000  H
  C37      1.0000 0.09620  0.99070  0.58380  Biso   1.000  C
  H35      1.0000 0.07710  0.98080  0.62820  Biso   1.000  H
  C38      1.0000 0.11750  0.97050  0.51820  Biso   1.000  C
  H36      1.0000 0.11290  0.94680  0.51780  Biso   1.000  H
  C39      1.0000 0.14530  0.98500  0.45310  Biso   1.000  C
  H37      1.0000 0.15990  0.97120  0.40830  Biso   1.000  H
  Ag2      1.0000 0.27481  0.50006  0.26211  Biso   1.000  Ag
  P3       1.0000 0.31158  0.53864  0.15390  Biso   1.000  P
  P4       1.0000 0.18834  0.53808  0.87183  Biso   1.000  P
  N3       1.0000 0.22110  0.46120  0.20480  Biso   1.000  N
  N4       1.0000 0.02870  0.28763  0.06540  Biso   1.000  N
  C40      1.0000 0.22200  0.56440  0.94780  Biso   1.000  C
  H38      1.0000 0.23900  0.57980  0.90730  Biso   1.000  H
  H39      1.0000 0.20390  0.57840  0.99000  Biso   1.000  H
  C41      1.0000 0.25030  0.54379  0.00600  Biso   1.000  C
  H40      1.0000 0.26950  0.53100  0.96320  Biso   1.000  H
  H41      1.0000 0.23320  0.52720  0.04220  Biso   1.000  H
  C42      1.0000 0.27840  0.56510  0.07970  Biso   1.000  C
  H42      1.0000 0.25940  0.57850  0.12110  Biso   1.000  H
  H43      1.0000 0.29660  0.58090  0.04360  Biso   1.000  H
  C43      1.0000 0.18520  0.45700  0.26320  Biso   1.000  C
  H44      1.0000 0.17960  0.47110  0.31640  Biso   1.000  H
  C44      1.0000 0.15830  0.43030  0.23720  Biso   1.000  C
  H45      1.0000 0.13290  0.42710  0.27260  Biso   1.000  H
  C45      1.0000 0.16690  0.40900  0.16370  Biso   1.000  C
  H46      1.0000 0.14780  0.39140  0.14740  Biso   1.000  H
  C46      1.0000 0.20590  0.41390  0.11100  Biso   1.000  C
  H47      1.0000 0.21350  0.39870  0.06130  Biso   1.000  H
  C47      1.0000 0.23160  0.44040  0.13300  Biso   1.000  C
  H48      1.0000 0.25690  0.44410  0.09760  Biso   1.000  H
  C48      1.0000 0.06390  0.29430  0.02620  Biso   1.000  C
  H49      1.0000 0.07280  0.27950  0.97670  Biso   1.000  H
  C49      1.0000 0.09140  0.32140  0.04790  Biso   1.000  C
  H50      1.0000 0.11690  0.32480  0.01300  Biso   1.000  H
  C50      1.0000 0.07980  0.34350  0.12400  Biso   1.000  C
  C51      1.0000 0.04350  0.33680  0.16510  Biso   1.000  C
  H51      1.0000 0.03300  0.35090  0.21450  Biso   1.000  H
  C52      1.0000 0.02140  0.30990  0.13700  Biso   1.000  C
  H52      1.0000 0.99650  0.30570  0.17310  Biso   1.000  H
  C53      1.0000 0.10370  0.37260  0.15040  Biso   1.000  C
  H53      1.0000 0.09350  0.38950  0.19250  Biso   1.000  H
  C54      1.0000 0.13630  0.37330  0.11600  Biso   1.000  C
  H54      1.0000 0.14620  0.35770  0.06950  Biso   1.000  H
  C55      1.0000 0.15600  0.56897  0.80520  Biso   1.000  C
  C56      1.0000 0.17650  0.59300  0.74950  Biso   1.000  C
  H55      1.0000 0.20660  0.59460  0.75070  Biso   1.000  H
  C57      1.0000 0.15300  0.61470  0.69220  Biso   1.000  C
  H56      1.0000 0.16700  0.63110  0.65420  Biso   1.000  H
  C58      1.0000 0.10900  0.61240  0.69050  Biso   1.000  C
  H57      1.0000 0.09300  0.62730  0.65140  Biso   1.000  H
  C59      1.0000 0.08850  0.58840  0.74620  Biso   1.000  C
  H58      1.0000 0.05840  0.58680  0.74500  Biso   1.000  H
  C60      1.0000 0.11200  0.56670  0.80350  Biso   1.000  C
  H59      1.0000 0.09790  0.55020  0.84150  Biso   1.000  H
  C61      1.0000 0.34870  0.52010  0.06640  Biso   1.000  C
  C62      1.0000 0.37050  0.53876  0.99800  Biso   1.000  C
  H60      1.0000 0.36700  0.56250  0.99510  Biso   1.000  H
  C63      1.0000 0.39750  0.52260  0.93410  Biso   1.000  C
  H61      1.0000 0.41240  0.53540  0.88740  Biso   1.000  H
  C64      1.0000 0.40260  0.48780  0.93850  Biso   1.000  C
  H62      1.0000 0.42100  0.47680  0.89480  Biso   1.000  H
  C65      1.0000 0.38080  0.46917  0.00680  Biso   1.000  C
  H63      1.0000 0.38440  0.44540  0.00980  Biso   1.000  H
  C66      1.0000 0.35390  0.48530  0.07070  Biso   1.000  C
  H64      1.0000 0.33900  0.47260  0.11740  Biso   1.000  H
  C67      1.0000 0.34325  0.56831  0.22170  Biso   1.000  C
  C68      1.0000 0.38697  0.56430  0.22790  Biso   1.000  C
  H65      1.0000 0.40070  0.54730  0.19130  Biso   1.000  H
  C69      1.0000 0.41058  0.58510  0.28750  Biso   1.000  C
  H66      1.0000 0.44050  0.58240  0.29170  Biso   1.000  H
  C70      1.0000 0.39050  0.60990  0.34110  Biso   1.000  C
  H67      1.0000 0.40660  0.62420  0.38180  Biso   1.000  H
  C71      1.0000 0.34670  0.61396  0.33490  Biso   1.000  C
  H68      1.0000 0.33300  0.63090  0.37150  Biso   1.000  H
  C72      1.0000 0.32314  0.59310  0.27530  Biso   1.000  C
  H69      1.0000 0.29330  0.59590  0.27110  Biso   1.000  H
  C73      1.0000 0.15200  0.51970  0.95370  Biso   1.000  C
  C74      1.0000 0.13070  0.53980  0.01920  Biso   1.000  C
  H70      1.0000 0.13520  0.56350  0.01960  Biso   1.000  H
  C75      1.0000 0.10280  0.52530  0.08430  Biso   1.000  C
  H71      1.0000 0.08820  0.53910  0.12910  Biso   1.000  H
  C76      1.0000 0.09620  0.49070  0.08380  Biso   1.000  C
  H72      1.0000 0.07710  0.48080  0.12820  Biso   1.000  H
  C77      1.0000 0.11750  0.47050  0.01820  Biso   1.000  C
  H73      1.0000 0.11290  0.44680  0.01780  Biso   1.000  H
  C78      1.0000 0.14530  0.48500  0.95310  Biso   1.000  C
  H74      1.0000 0.15990  0.47120  0.90830  Biso   1.000  H
  Ag3      1.0000 0.77481  0.00006  0.26211  Biso   1.000  Ag
  P5       1.0000 0.81158  0.03864  0.15390  Biso   1.000  P
  P6       1.0000 0.68834  0.03808  0.87183  Biso   1.000  P
  N5       1.0000 0.72110  0.96120  0.20480  Biso   1.000  N
  N6       1.0000 0.52870  0.78763  0.06540  Biso   1.000  N
  C79      1.0000 0.72200  0.06440  0.94780  Biso   1.000  C
  H75      1.0000 0.73900  0.07980  0.90730  Biso   1.000  H
  H76      1.0000 0.70390  0.07840  0.99000  Biso   1.000  H
  C80      1.0000 0.75030  0.04379  0.00600  Biso   1.000  C
  H77      1.0000 0.76950  0.03100  0.96320  Biso   1.000  H
  H78      1.0000 0.73320  0.02720  0.04220  Biso   1.000  H
  C81      1.0000 0.77840  0.06510  0.07970  Biso   1.000  C
  H79      1.0000 0.75940  0.07850  0.12110  Biso   1.000  H
  H80      1.0000 0.79660  0.08090  0.04360  Biso   1.000  H
  C82      1.0000 0.68520  0.95700  0.26320  Biso   1.000  C
  H81      1.0000 0.67960  0.97110  0.31640  Biso   1.000  H
  C83      1.0000 0.65830  0.93030  0.23720  Biso   1.000  C
  H82      1.0000 0.63290  0.92710  0.27260  Biso   1.000  H
  C84      1.0000 0.66690  0.90900  0.16370  Biso   1.000  C
  H83      1.0000 0.64780  0.89140  0.14740  Biso   1.000  H
  C85      1.0000 0.70590  0.91390  0.11100  Biso   1.000  C
  H84      1.0000 0.71350  0.89870  0.06130  Biso   1.000  H
  C86      1.0000 0.73160  0.94040  0.13300  Biso   1.000  C
  H85      1.0000 0.75690  0.94410  0.09760  Biso   1.000  H
  C87      1.0000 0.56390  0.79430  0.02620  Biso   1.000  C
  H86      1.0000 0.57280  0.77950  0.97670  Biso   1.000  H
  C88      1.0000 0.59140  0.82140  0.04790  Biso   1.000  C
  H87      1.0000 0.61690  0.82480  0.01300  Biso   1.000  H
  C89      1.0000 0.57980  0.84350  0.12400  Biso   1.000  C
  C90      1.0000 0.54350  0.83680  0.16510  Biso   1.000  C
  H88      1.0000 0.53300  0.85090  0.21450  Biso   1.000  H
  C91      1.0000 0.52140  0.80990  0.13700  Biso   1.000  C
  H89      1.0000 0.49650  0.80570  0.17310  Biso   1.000  H
  C92      1.0000 0.60370  0.87260  0.15040  Biso   1.000  C
  H90      1.0000 0.59350  0.88950  0.19250  Biso   1.000  H
  C93      1.0000 0.63630  0.87330  0.11600  Biso   1.000  C
  H91      1.0000 0.64620  0.85770  0.06950  Biso   1.000  H
  C94      1.0000 0.65600  0.06897  0.80520  Biso   1.000  C
  C95      1.0000 0.67650  0.09300  0.74950  Biso   1.000  C
  H92      1.0000 0.70660  0.09460  0.75070  Biso   1.000  H
  C96      1.0000 0.65300  0.11470  0.69220  Biso   1.000  C
  H93      1.0000 0.66700  0.13110  0.65420  Biso   1.000  H
  C97      1.0000 0.60900  0.11240  0.69050  Biso   1.000  C
  H94      1.0000 0.59300  0.12730  0.65140  Biso   1.000  H
  C98      1.0000 0.58850  0.08840  0.74620  Biso   1.000  C
  H95      1.0000 0.55840  0.08680  0.74500  Biso   1.000  H
  C99      1.0000 0.61200  0.06670  0.80350  Biso   1.000  C
  H96      1.0000 0.59790  0.05020  0.84150  Biso   1.000  H
  C100     1.0000 0.84870  0.02010  0.06640  Biso   1.000  C
  C101     1.0000 0.87050  0.03876  0.99800  Biso   1.000  C
  H97      1.0000 0.86700  0.06250  0.99510  Biso   1.000  H
  C102     1.0000 0.89750  0.02260  0.93410  Biso   1.000  C
  H98      1.0000 0.91240  0.03540  0.88740  Biso   1.000  H
  C103     1.0000 0.90260  0.98780  0.93850  Biso   1.000  C
  H99      1.0000 0.92100  0.97680  0.89480  Biso   1.000  H
  C104     1.0000 0.88080  0.96917  0.00680  Biso   1.000  C
  H100     1.0000 0.88440  0.94540  0.00980  Biso   1.000  H
  C105     1.0000 0.85390  0.98530  0.07070  Biso   1.000  C
  H101     1.0000 0.83900  0.97260  0.11740  Biso   1.000  H
  C106     1.0000 0.84325  0.06831  0.22170  Biso   1.000  C
  C107     1.0000 0.88697  0.06430  0.22790  Biso   1.000  C
  H102     1.0000 0.90070  0.04730  0.19130  Biso   1.000  H
  C108     1.0000 0.91058  0.08510  0.28750  Biso   1.000  C
  H103     1.0000 0.94050  0.08240  0.29170  Biso   1.000  H
  C109     1.0000 0.89050  0.10990  0.34110  Biso   1.000  C
  H104     1.0000 0.90660  0.12420  0.38180  Biso   1.000  H
  C110     1.0000 0.84670  0.11396  0.33490  Biso   1.000  C
  H105     1.0000 0.83300  0.13090  0.37150  Biso   1.000  H
  C111     1.0000 0.82314  0.09310  0.27530  Biso   1.000  C
  H106     1.0000 0.79330  0.09590  0.27110  Biso   1.000  H
  C112     1.0000 0.65200  0.01970  0.95370  Biso   1.000  C
  C113     1.0000 0.63070  0.03980  0.01920  Biso   1.000  C
  H107     1.0000 0.63520  0.06350  0.01960  Biso   1.000  H
  C114     1.0000 0.60280  0.02530  0.08430  Biso   1.000  C
  H108     1.0000 0.58820  0.03910  0.12910  Biso   1.000  H
  C115     1.0000 0.59620  0.99070  0.08380  Biso   1.000  C
  H109     1.0000 0.57710  0.98080  0.12820  Biso   1.000  H
  C116     1.0000 0.61750  0.97050  0.01820  Biso   1.000  C
  H110     1.0000 0.61290  0.94680  0.01780  Biso   1.000  H
  C117     1.0000 0.64530  0.98500  0.95310  Biso   1.000  C
  H111     1.0000 0.65990  0.97120  0.90830  Biso   1.000  H
  Ag4      1.0000 0.77481  0.50006  0.76211  Biso   1.000  Ag
  P7       1.0000 0.81158  0.53864  0.65390  Biso   1.000  P
  P8       1.0000 0.68834  0.53808  0.37183  Biso   1.000  P
  N7       1.0000 0.72110  0.46120  0.70480  Biso   1.000  N
  N8       1.0000 0.52870  0.28763  0.56540  Biso   1.000  N
  C118     1.0000 0.72200  0.56440  0.44780  Biso   1.000  C
  H112     1.0000 0.73900  0.57980  0.40730  Biso   1.000  H
  H113     1.0000 0.70390  0.57840  0.49000  Biso   1.000  H
  C119     1.0000 0.75030  0.54379  0.50600  Biso   1.000  C
  H114     1.0000 0.76950  0.53100  0.46320  Biso   1.000  H
  H115     1.0000 0.73320  0.52720  0.54220  Biso   1.000  H
  C120     1.0000 0.77840  0.56510  0.57970  Biso   1.000  C
  H116     1.0000 0.75940  0.57850  0.62110  Biso   1.000  H
  H117     1.0000 0.79660  0.58090  0.54360  Biso   1.000  H
  C121     1.0000 0.68520  0.45700  0.76320  Biso   1.000  C
  H118     1.0000 0.67960  0.47110  0.81640  Biso   1.000  H
  C122     1.0000 0.65830  0.43030  0.73720  Biso   1.000  C
  H119     1.0000 0.63290  0.42710  0.77260  Biso   1.000  H
  C123     1.0000 0.66690  0.40900  0.66370  Biso   1.000  C
  H120     1.0000 0.64780  0.39140  0.64740  Biso   1.000  H
  C124     1.0000 0.70590  0.41390  0.61100  Biso   1.000  C
  H121     1.0000 0.71350  0.39870  0.56130  Biso   1.000  H
  C125     1.0000 0.73160  0.44040  0.63300  Biso   1.000  C
  H122     1.0000 0.75690  0.44410  0.59760  Biso   1.000  H
  C126     1.0000 0.56390  0.29430  0.52620  Biso   1.000  C
  H123     1.0000 0.57280  0.27950  0.47670  Biso   1.000  H
  C127     1.0000 0.59140  0.32140  0.54790  Biso   1.000  C
  H124     1.0000 0.61690  0.32480  0.51300  Biso   1.000  H
  C128     1.0000 0.57980  0.34350  0.62400  Biso   1.000  C
  C129     1.0000 0.54350  0.33680  0.66510  Biso   1.000  C
  H125     1.0000 0.53300  0.35090  0.71450  Biso   1.000  H
  C130     1.0000 0.52140  0.30990  0.63700  Biso   1.000  C
  H126     1.0000 0.49650  0.30570  0.67310  Biso   1.000  H
  C131     1.0000 0.60370  0.37260  0.65040  Biso   1.000  C
  H127     1.0000 0.59350  0.38950  0.69250  Biso   1.000  H
  C132     1.0000 0.63630  0.37330  0.61600  Biso   1.000  C
  H128     1.0000 0.64620  0.35770  0.56950  Biso   1.000  H
  C133     1.0000 0.65600  0.56897  0.30520  Biso   1.000  C
  C134     1.0000 0.67650  0.59300  0.24950  Biso   1.000  C
  H129     1.0000 0.70660  0.59460  0.25070  Biso   1.000  H
  C135     1.0000 0.65300  0.61470  0.19220  Biso   1.000  C
  H130     1.0000 0.66700  0.63110  0.15420  Biso   1.000  H
  C136     1.0000 0.60900  0.61240  0.19050  Biso   1.000  C
  H131     1.0000 0.59300  0.62730  0.15140  Biso   1.000  H
  C137     1.0000 0.58850  0.58840  0.24620  Biso   1.000  C
  H132     1.0000 0.55840  0.58680  0.24500  Biso   1.000  H
  C138     1.0000 0.61200  0.56670  0.30350  Biso   1.000  C
  H133     1.0000 0.59790  0.55020  0.34150  Biso   1.000  H
  C139     1.0000 0.84870  0.52010  0.56640  Biso   1.000  C
  C140     1.0000 0.87050  0.53876  0.49800  Biso   1.000  C
  H134     1.0000 0.86700  0.56250  0.49510  Biso   1.000  H
  C141     1.0000 0.89750  0.52260  0.43410  Biso   1.000  C
  H135     1.0000 0.91240  0.53540  0.38740  Biso   1.000  H
  C142     1.0000 0.90260  0.48780  0.43850  Biso   1.000  C
  H136     1.0000 0.92100  0.47680  0.39480  Biso   1.000  H
  C143     1.0000 0.88080  0.46917  0.50680  Biso   1.000  C
  H137     1.0000 0.88440  0.44540  0.50980  Biso   1.000  H
  C144     1.0000 0.85390  0.48530  0.57070  Biso   1.000  C
  H138     1.0000 0.83900  0.47260  0.61740  Biso   1.000  H
  C145     1.0000 0.84325  0.56831  0.72170  Biso   1.000  C
  C146     1.0000 0.88697  0.56430  0.72790  Biso   1.000  C
  H139     1.0000 0.90070  0.54730  0.69130  Biso   1.000  H
  C147     1.0000 0.91058  0.58510  0.78750  Biso   1.000  C
  H140     1.0000 0.94050  0.58240  0.79170  Biso   1.000  H
  C148     1.0000 0.89050  0.60990  0.84110  Biso   1.000  C
  H141     1.0000 0.90660  0.62420  0.88180  Biso   1.000  H
  C149     1.0000 0.84670  0.61396  0.83490  Biso   1.000  C
  H142     1.0000 0.83300  0.63090  0.87150  Biso   1.000  H
  C150     1.0000 0.82314  0.59310  0.77530  Biso   1.000  C
  H143     1.0000 0.79330  0.59590  0.77110  Biso   1.000  H
  C151     1.0000 0.65200  0.51970  0.45370  Biso   1.000  C
  C152     1.0000 0.63070  0.53980  0.51920  Biso   1.000  C
  H144     1.0000 0.63520  0.56350  0.51960  Biso   1.000  H
  C153     1.0000 0.60280  0.52530  0.58430  Biso   1.000  C
  H145     1.0000 0.58820  0.53910  0.62910  Biso   1.000  H
  C154     1.0000 0.59620  0.49070  0.58380  Biso   1.000  C
  H146     1.0000 0.57710  0.48080  0.62820  Biso   1.000  H
  C155     1.0000 0.61750  0.47050  0.51820  Biso   1.000  C
  H147     1.0000 0.61290  0.44680  0.51780  Biso   1.000  H
  C156     1.0000 0.64530  0.48500  0.45310  Biso   1.000  C
  H148     1.0000 0.65990  0.47120  0.40830  Biso   1.000  H
  Ag5      1.0000 0.72519  0.99994  0.76211  Biso   1.000  Ag
  P9       1.0000 0.68842  0.96136  0.65390  Biso   1.000  P
  P10      1.0000 0.81166  0.96192  0.37183  Biso   1.000  P
  N9       1.0000 0.77890  0.03880  0.70480  Biso   1.000  N
  N10      1.0000 0.97130  0.21237  0.56540  Biso   1.000  N
  C157     1.0000 0.77800  0.93560  0.44780  Biso   1.000  C
  H149     1.0000 0.76100  0.92020  0.40730  Biso   1.000  H
  H150     1.0000 0.79610  0.92160  0.49000  Biso   1.000  H
  C158     1.0000 0.74970  0.95621  0.50600  Biso   1.000  C
  H151     1.0000 0.73050  0.96900  0.46320  Biso   1.000  H
  H152     1.0000 0.76680  0.97280  0.54220  Biso   1.000  H
  C159     1.0000 0.72160  0.93490  0.57970  Biso   1.000  C
  H153     1.0000 0.74060  0.92150  0.62110  Biso   1.000  H
  H154     1.0000 0.70340  0.91910  0.54360  Biso   1.000  H
  C160     1.0000 0.81480  0.04300  0.76320  Biso   1.000  C
  H155     1.0000 0.82040  0.02890  0.81640  Biso   1.000  H
  C161     1.0000 0.84170  0.06970  0.73720  Biso   1.000  C
  H156     1.0000 0.86710  0.07290  0.77260  Biso   1.000  H
  C162     1.0000 0.83310  0.09100  0.66370  Biso   1.000  C
  H157     1.0000 0.85220  0.10860  0.64740  Biso   1.000  H
  C163     1.0000 0.79410  0.08610  0.61100  Biso   1.000  C
  H158     1.0000 0.78650  0.10130  0.56130  Biso   1.000  H
  C164     1.0000 0.76840  0.05960  0.63300  Biso   1.000  C
  H159     1.0000 0.74310  0.05590  0.59760  Biso   1.000  H
  C165     1.0000 0.93610  0.20570  0.52620  Biso   1.000  C
  H160     1.0000 0.92720  0.22050  0.47670  Biso   1.000  H
  C166     1.0000 0.90860  0.17860  0.54790  Biso   1.000  C
  H161     1.0000 0.88310  0.17520  0.51300  Biso   1.000  H
  C167     1.0000 0.92020  0.15650  0.62400  Biso   1.000  C
  C168     1.0000 0.95650  0.16320  0.66510  Biso   1.000  C
  H162     1.0000 0.96700  0.14910  0.71450  Biso   1.000  H
  C169     1.0000 0.97860  0.19010  0.63700  Biso   1.000  C
  H163     1.0000 0.00350  0.19430  0.67310  Biso   1.000  H
  C170     1.0000 0.89630  0.12740  0.65040  Biso   1.000  C
  H164     1.0000 0.90650  0.11050  0.69250  Biso   1.000  H
  C171     1.0000 0.86370  0.12670  0.61600  Biso   1.000  C
  H165     1.0000 0.85380  0.14230  0.56950  Biso   1.000  H
  C172     1.0000 0.84400  0.93103  0.30520  Biso   1.000  C
  C173     1.0000 0.82350  0.90700  0.24950  Biso   1.000  C
  H166     1.0000 0.79340  0.90540  0.25070  Biso   1.000  H
  C174     1.0000 0.84700  0.88530  0.19220  Biso   1.000  C
  H167     1.0000 0.83300  0.86890  0.15420  Biso   1.000  H
  C175     1.0000 0.89100  0.88760  0.19050  Biso   1.000  C
  H168     1.0000 0.90700  0.87270  0.15140  Biso   1.000  H
  C176     1.0000 0.91150  0.91160  0.24620  Biso   1.000  C
  H169     1.0000 0.94160  0.91320  0.24500  Biso   1.000  H
  C177     1.0000 0.88800  0.93330  0.30350  Biso   1.000  C
  H170     1.0000 0.90210  0.94980  0.34150  Biso   1.000  H
  C178     1.0000 0.65130  0.97990  0.56640  Biso   1.000  C
  C179     1.0000 0.62950  0.96124  0.49800  Biso   1.000  C
  H171     1.0000 0.63300  0.93750  0.49510  Biso   1.000  H
  C180     1.0000 0.60250  0.97740  0.43410  Biso   1.000  C
  H172     1.0000 0.58760  0.96460  0.38740  Biso   1.000  H
  C181     1.0000 0.59740  0.01220  0.43850  Biso   1.000  C
  H173     1.0000 0.57900  0.02320  0.39480  Biso   1.000  H
  C182     1.0000 0.61920  0.03083  0.50680  Biso   1.000  C
  H174     1.0000 0.61560  0.05460  0.50980  Biso   1.000  H
  C183     1.0000 0.64610  0.01470  0.57070  Biso   1.000  C
  H175     1.0000 0.66100  0.02740  0.61740  Biso   1.000  H
  C184     1.0000 0.65675  0.93169  0.72170  Biso   1.000  C
  C185     1.0000 0.61303  0.93570  0.72790  Biso   1.000  C
  H176     1.0000 0.59930  0.95270  0.69130  Biso   1.000  H
  C186     1.0000 0.58942  0.91490  0.78750  Biso   1.000  C
  H177     1.0000 0.55950  0.91760  0.79170  Biso   1.000  H
  C187     1.0000 0.60950  0.89010  0.84110  Biso   1.000  C
  H178     1.0000 0.59340  0.87580  0.88180  Biso   1.000  H
  C188     1.0000 0.65330  0.88604  0.83490  Biso   1.000  C
  H179     1.0000 0.66700  0.86910  0.87150  Biso   1.000  H
  C189     1.0000 0.67686  0.90690  0.77530  Biso   1.000  C
  H180     1.0000 0.70670  0.90410  0.77110  Biso   1.000  H
  C190     1.0000 0.84800  0.98030  0.45370  Biso   1.000  C
  C191     1.0000 0.86930  0.96020  0.51920  Biso   1.000  C
  H181     1.0000 0.86480  0.93650  0.51960  Biso   1.000  H
  C192     1.0000 0.89720  0.97470  0.58430  Biso   1.000  C
  H182     1.0000 0.91180  0.96090  0.62910  Biso   1.000  H
  C193     1.0000 0.90380  0.00930  0.58380  Biso   1.000  C
  H183     1.0000 0.92290  0.01920  0.62820  Biso   1.000  H
  C194     1.0000 0.88250  0.02950  0.51820  Biso   1.000  C
  H184     1.0000 0.88710  0.05320  0.51780  Biso   1.000  H
  C195     1.0000 0.85470  0.01500  0.45310  Biso   1.000  C
  H185     1.0000 0.84010  0.02880  0.40830  Biso   1.000  H
  Ag6      1.0000 0.72519  0.49994  0.26211  Biso   1.000  Ag
  P11      1.0000 0.68842  0.46136  0.15390  Biso   1.000  P
  P12      1.0000 0.81166  0.46192  0.87183  Biso   1.000  P
  N11      1.0000 0.77890  0.53880  0.20480  Biso   1.000  N
  N12      1.0000 0.97130  0.71237  0.06540  Biso   1.000  N
  C196     1.0000 0.77800  0.43560  0.94780  Biso   1.000  C
  H186     1.0000 0.76100  0.42020  0.90730  Biso   1.000  H
  H187     1.0000 0.79610  0.42160  0.99000  Biso   1.000  H
  C197     1.0000 0.74970  0.45621  0.00600  Biso   1.000  C
  H188     1.0000 0.73050  0.46900  0.96320  Biso   1.000  H
  H189     1.0000 0.76680  0.47280  0.04220  Biso   1.000  H
  C198     1.0000 0.72160  0.43490  0.07970  Biso   1.000  C
  H190     1.0000 0.74060  0.42150  0.12110  Biso   1.000  H
  H191     1.0000 0.70340  0.41910  0.04360  Biso   1.000  H
  C199     1.0000 0.81480  0.54300  0.26320  Biso   1.000  C
  H192     1.0000 0.82040  0.52890  0.31640  Biso   1.000  H
  C200     1.0000 0.84170  0.56970  0.23720  Biso   1.000  C
  H193     1.0000 0.86710  0.57290  0.27260  Biso   1.000  H
  C201     1.0000 0.83310  0.59100  0.16370  Biso   1.000  C
  H194     1.0000 0.85220  0.60860  0.14740  Biso   1.000  H
  C202     1.0000 0.79410  0.58610  0.11100  Biso   1.000  C
  H195     1.0000 0.78650  0.60130  0.06130  Biso   1.000  H
  C203     1.0000 0.76840  0.55960  0.13300  Biso   1.000  C
  H196     1.0000 0.74310  0.55590  0.09760  Biso   1.000  H
  C204     1.0000 0.93610  0.70570  0.02620  Biso   1.000  C
  H197     1.0000 0.92720  0.72050  0.97670  Biso   1.000  H
  C205     1.0000 0.90860  0.67860  0.04790  Biso   1.000  C
  H198     1.0000 0.88310  0.67520  0.01300  Biso   1.000  H
  C206     1.0000 0.92020  0.65650  0.12400  Biso   1.000  C
  C207     1.0000 0.95650  0.66320  0.16510  Biso   1.000  C
  H199     1.0000 0.96700  0.64910  0.21450  Biso   1.000  H
  C208     1.0000 0.97860  0.69010  0.13700  Biso   1.000  C
  H200     1.0000 0.00350  0.69430  0.17310  Biso   1.000  H
  C209     1.0000 0.89630  0.62740  0.15040  Biso   1.000  C
  H201     1.0000 0.90650  0.61050  0.19250  Biso   1.000  H
  C210     1.0000 0.86370  0.62670  0.11600  Biso   1.000  C
  H202     1.0000 0.85380  0.64230  0.06950  Biso   1.000  H
  C211     1.0000 0.84400  0.43103  0.80520  Biso   1.000  C
  C212     1.0000 0.82350  0.40700  0.74950  Biso   1.000  C
  H203     1.0000 0.79340  0.40540  0.75070  Biso   1.000  H
  C213     1.0000 0.84700  0.38530  0.69220  Biso   1.000  C
  H204     1.0000 0.83300  0.36890  0.65420  Biso   1.000  H
  C214     1.0000 0.89100  0.38760  0.69050  Biso   1.000  C
  H205     1.0000 0.90700  0.37270  0.65140  Biso   1.000  H
  C215     1.0000 0.91150  0.41160  0.74620  Biso   1.000  C
  H206     1.0000 0.94160  0.41320  0.74500  Biso   1.000  H
  C216     1.0000 0.88800  0.43330  0.80350  Biso   1.000  C
  H207     1.0000 0.90210  0.44980  0.84150  Biso   1.000  H
  C217     1.0000 0.65130  0.47990  0.06640  Biso   1.000  C
  C218     1.0000 0.62950  0.46124  0.99800  Biso   1.000  C
  H208     1.0000 0.63300  0.43750  0.99510  Biso   1.000  H
  C219     1.0000 0.60250  0.47740  0.93410  Biso   1.000  C
  H209     1.0000 0.58760  0.46460  0.88740  Biso   1.000  H
  C220     1.0000 0.59740  0.51220  0.93850  Biso   1.000  C
  H210     1.0000 0.57900  0.52320  0.89480  Biso   1.000  H
  C221     1.0000 0.61920  0.53083  0.00680  Biso   1.000  C
  H211     1.0000 0.61560  0.55460  0.00980  Biso   1.000  H
  C222     1.0000 0.64610  0.51470  0.07070  Biso   1.000  C
  H212     1.0000 0.66100  0.52740  0.11740  Biso   1.000  H
  C223     1.0000 0.65675  0.43169  0.22170  Biso   1.000  C
  C224     1.0000 0.61303  0.43570  0.22790  Biso   1.000  C
  H213     1.0000 0.59930  0.45270  0.19130  Biso   1.000  H
  C225     1.0000 0.58942  0.41490  0.28750  Biso   1.000  C
  H214     1.0000 0.55950  0.41760  0.29170  Biso   1.000  H
  C226     1.0000 0.60950  0.39010  0.34110  Biso   1.000  C
  H215     1.0000 0.59340  0.37580  0.38180  Biso   1.000  H
  C227     1.0000 0.65330  0.38604  0.33490  Biso   1.000  C
  H216     1.0000 0.66700  0.36910  0.37150  Biso   1.000  H
  C228     1.0000 0.67686  0.40690  0.27530  Biso   1.000  C
  H217     1.0000 0.70670  0.40410  0.27110  Biso   1.000  H
  C229     1.0000 0.84800  0.48030  0.95370  Biso   1.000  C
  C230     1.0000 0.86930  0.46020  0.01920  Biso   1.000  C
  H218     1.0000 0.86480  0.43650  0.01960  Biso   1.000  H
  C231     1.0000 0.89720  0.47470  0.08430  Biso   1.000  C
  H219     1.0000 0.91180  0.46090  0.12910  Biso   1.000  H
  C232     1.0000 0.90380  0.50930  0.08380  Biso   1.000  C
  H220     1.0000 0.92290  0.51920  0.12820  Biso   1.000  H
  C233     1.0000 0.88250  0.52950  0.01820  Biso   1.000  C
  H221     1.0000 0.88710  0.55320  0.01780  Biso   1.000  H
  C234     1.0000 0.85470  0.51500  0.95310  Biso   1.000  C
  H222     1.0000 0.84010  0.52880  0.90830  Biso   1.000  H
  Ag7      1.0000 0.22519  0.99994  0.26211  Biso   1.000  Ag
  P13      1.0000 0.18842  0.96136  0.15390  Biso   1.000  P
  P14      1.0000 0.31166  0.96192  0.87183  Biso   1.000  P
  N13      1.0000 0.27890  0.03880  0.20480  Biso   1.000  N
  N14      1.0000 0.47130  0.21237  0.06540  Biso   1.000  N
  C235     1.0000 0.27800  0.93560  0.94780  Biso   1.000  C
  H223     1.0000 0.26100  0.92020  0.90730  Biso   1.000  H
  H224     1.0000 0.29610  0.92160  0.99000  Biso   1.000  H
  C236     1.0000 0.24970  0.95621  0.00600  Biso   1.000  C
  H225     1.0000 0.23050  0.96900  0.96320  Biso   1.000  H
  H226     1.0000 0.26680  0.97280  0.04220  Biso   1.000  H
  C237     1.0000 0.22160  0.93490  0.07970  Biso   1.000  C
  H227     1.0000 0.24060  0.92150  0.12110  Biso   1.000  H
  H228     1.0000 0.20340  0.91910  0.04360  Biso   1.000  H
  C238     1.0000 0.31480  0.04300  0.26320  Biso   1.000  C
  H229     1.0000 0.32040  0.02890  0.31640  Biso   1.000  H
  C239     1.0000 0.34170  0.06970  0.23720  Biso   1.000  C
  H230     1.0000 0.36710  0.07290  0.27260  Biso   1.000  H
  C240     1.0000 0.33310  0.09100  0.16370  Biso   1.000  C
  H231     1.0000 0.35220  0.10860  0.14740  Biso   1.000  H
  C241     1.0000 0.29410  0.08610  0.11100  Biso   1.000  C
  H232     1.0000 0.28650  0.10130  0.06130  Biso   1.000  H
  C242     1.0000 0.26840  0.05960  0.13300  Biso   1.000  C
  H233     1.0000 0.24310  0.05590  0.09760  Biso   1.000  H
  C243     1.0000 0.43610  0.20570  0.02620  Biso   1.000  C
  H234     1.0000 0.42720  0.22050  0.97670  Biso   1.000  H
  C244     1.0000 0.40860  0.17860  0.04790  Biso   1.000  C
  H235     1.0000 0.38310  0.17520  0.01300  Biso   1.000  H
  C245     1.0000 0.42020  0.15650  0.12400  Biso   1.000  C
  C246     1.0000 0.45650  0.16320  0.16510  Biso   1.000  C
  H236     1.0000 0.46700  0.14910  0.21450  Biso   1.000  H
  C247     1.0000 0.47860  0.19010  0.13700  Biso   1.000  C
  H237     1.0000 0.50350  0.19430  0.17310  Biso   1.000  H
  C248     1.0000 0.39630  0.12740  0.15040  Biso   1.000  C
  H238     1.0000 0.40650  0.11050  0.19250  Biso   1.000  H
  C249     1.0000 0.36370  0.12670  0.11600  Biso   1.000  C
  H239     1.0000 0.35380  0.14230  0.06950  Biso   1.000  H
  C250     1.0000 0.34400  0.93103  0.80520  Biso   1.000  C
  C251     1.0000 0.32350  0.90700  0.74950  Biso   1.000  C
  H240     1.0000 0.29340  0.90540  0.75070  Biso   1.000  H
  C252     1.0000 0.34700  0.88530  0.69220  Biso   1.000  C
  H241     1.0000 0.33300  0.86890  0.65420  Biso   1.000  H
  C253     1.0000 0.39100  0.88760  0.69050  Biso   1.000  C
  H242     1.0000 0.40700  0.87270  0.65140  Biso   1.000  H
  C254     1.0000 0.41150  0.91160  0.74620  Biso   1.000  C
  H243     1.0000 0.44160  0.91320  0.74500  Biso   1.000  H
  C255     1.0000 0.38800  0.93330  0.80350  Biso   1.000  C
  H244     1.0000 0.40210  0.94980  0.84150  Biso   1.000  H
  C256     1.0000 0.15130  0.97990  0.06640  Biso   1.000  C
  C257     1.0000 0.12950  0.96124  0.99800  Biso   1.000  C
  H245     1.0000 0.13300  0.93750  0.99510  Biso   1.000  H
  C258     1.0000 0.10250  0.97740  0.93410  Biso   1.000  C
  H246     1.0000 0.08760  0.96460  0.88740  Biso   1.000  H
  C259     1.0000 0.09740  0.01220  0.93850  Biso   1.000  C
  H247     1.0000 0.07900  0.02320  0.89480  Biso   1.000  H
  C260     1.0000 0.11920  0.03083  0.00680  Biso   1.000  C
  H248     1.0000 0.11560  0.05460  0.00980  Biso   1.000  H
  C261     1.0000 0.14610  0.01470  0.07070  Biso   1.000  C
  H249     1.0000 0.16100  0.02740  0.11740  Biso   1.000  H
  C262     1.0000 0.15675  0.93169  0.22170  Biso   1.000  C
  C263     1.0000 0.11303  0.93570  0.22790  Biso   1.000  C
  H250     1.0000 0.09930  0.95270  0.19130  Biso   1.000  H
  C264     1.0000 0.08942  0.91490  0.28750  Biso   1.000  C
  H251     1.0000 0.05950  0.91760  0.29170  Biso   1.000  H
  C265     1.0000 0.10950  0.89010  0.34110  Biso   1.000  C
  H252     1.0000 0.09340  0.87580  0.38180  Biso   1.000  H
  C266     1.0000 0.15330  0.88604  0.33490  Biso   1.000  C
  H253     1.0000 0.16700  0.86910  0.37150  Biso   1.000  H
  C267     1.0000 0.17686  0.90690  0.27530  Biso   1.000  C
  H254     1.0000 0.20670  0.90410  0.27110  Biso   1.000  H
  C268     1.0000 0.34800  0.98030  0.95370  Biso   1.000  C
  C269     1.0000 0.36930  0.96020  0.01920  Biso   1.000  C
  H255     1.0000 0.36480  0.93650  0.01960  Biso   1.000  H
  C270     1.0000 0.39720  0.97470  0.08430  Biso   1.000  C
  H256     1.0000 0.41180  0.96090  0.12910  Biso   1.000  H
  C271     1.0000 0.40380  0.00930  0.08380  Biso   1.000  C
  H257     1.0000 0.42290  0.01920  0.12820  Biso   1.000  H
  C272     1.0000 0.38250  0.02950  0.01820  Biso   1.000  C
  H258     1.0000 0.38710  0.05320  0.01780  Biso   1.000  H
  C273     1.0000 0.35470  0.01500  0.95310  Biso   1.000  C
  H259     1.0000 0.34010  0.02880  0.90830  Biso   1.000  H
  Ag8      1.0000 0.22519  0.49994  0.76211  Biso   1.000  Ag
  P15      1.0000 0.18842  0.46136  0.65390  Biso   1.000  P
  P16      1.0000 0.31166  0.46192  0.37183  Biso   1.000  P
  N15      1.0000 0.27890  0.53880  0.70480  Biso   1.000  N
  N16      1.0000 0.47130  0.71237  0.56540  Biso   1.000  N
  C274     1.0000 0.27800  0.43560  0.44780  Biso   1.000  C
  H260     1.0000 0.26100  0.42020  0.40730  Biso   1.000  H
  H261     1.0000 0.29610  0.42160  0.49000  Biso   1.000  H
  C275     1.0000 0.24970  0.45621  0.50600  Biso   1.000  C
  H262     1.0000 0.23050  0.46900  0.46320  Biso   1.000  H
  H263     1.0000 0.26680  0.47280  0.54220  Biso   1.000  H
  C276     1.0000 0.22160  0.43490  0.57970  Biso   1.000  C
  H264     1.0000 0.24060  0.42150  0.62110  Biso   1.000  H
  H265     1.0000 0.20340  0.41910  0.54360  Biso   1.000  H
  C277     1.0000 0.31480  0.54300  0.76320  Biso   1.000  C
  H266     1.0000 0.32040  0.52890  0.81640  Biso   1.000  H
  C278     1.0000 0.34170  0.56970  0.73720  Biso   1.000  C
  H267     1.0000 0.36710  0.57290  0.77260  Biso   1.000  H
  C279     1.0000 0.33310  0.59100  0.66370  Biso   1.000  C
  H268     1.0000 0.35220  0.60860  0.64740  Biso   1.000  H
  C280     1.0000 0.29410  0.58610  0.61100  Biso   1.000  C
  H269     1.0000 0.28650  0.60130  0.56130  Biso   1.000  H
  C281     1.0000 0.26840  0.55960  0.63300  Biso   1.000  C
  H270     1.0000 0.24310  0.55590  0.59760  Biso   1.000  H
  C282     1.0000 0.43610  0.70570  0.52620  Biso   1.000  C
  H271     1.0000 0.42720  0.72050  0.47670  Biso   1.000  H
  C283     1.0000 0.40860  0.67860  0.54790  Biso   1.000  C
  H272     1.0000 0.38310  0.67520  0.51300  Biso   1.000  H
  C284     1.0000 0.42020  0.65650  0.62400  Biso   1.000  C
  C285     1.0000 0.45650  0.66320  0.66510  Biso   1.000  C
  H273     1.0000 0.46700  0.64910  0.71450  Biso   1.000  H
  C286     1.0000 0.47860  0.69010  0.63700  Biso   1.000  C
  H274     1.0000 0.50350  0.69430  0.67310  Biso   1.000  H
  C287     1.0000 0.39630  0.62740  0.65040  Biso   1.000  C
  H275     1.0000 0.40650  0.61050  0.69250  Biso   1.000  H
  C288     1.0000 0.36370  0.62670  0.61600  Biso   1.000  C
  H276     1.0000 0.35380  0.64230  0.56950  Biso   1.000  H
  C289     1.0000 0.34400  0.43103  0.30520  Biso   1.000  C
  C290     1.0000 0.32350  0.40700  0.24950  Biso   1.000  C
  H277     1.0000 0.29340  0.40540  0.25070  Biso   1.000  H
  C291     1.0000 0.34700  0.38530  0.19220  Biso   1.000  C
  H278     1.0000 0.33300  0.36890  0.15420  Biso   1.000  H
  C292     1.0000 0.39100  0.38760  0.19050  Biso   1.000  C
  H279     1.0000 0.40700  0.37270  0.15140  Biso   1.000  H
  C293     1.0000 0.41150  0.41160  0.24620  Biso   1.000  C
  H280     1.0000 0.44160  0.41320  0.24500  Biso   1.000  H
  C294     1.0000 0.38800  0.43330  0.30350  Biso   1.000  C
  H281     1.0000 0.40210  0.44980  0.34150  Biso   1.000  H
  C295     1.0000 0.15130  0.47990  0.56640  Biso   1.000  C
  C296     1.0000 0.12950  0.46124  0.49800  Biso   1.000  C
  H282     1.0000 0.13300  0.43750  0.49510  Biso   1.000  H
  C297     1.0000 0.10250  0.47740  0.43410  Biso   1.000  C
  H283     1.0000 0.08760  0.46460  0.38740  Biso   1.000  H
  C298     1.0000 0.09740  0.51220  0.43850  Biso   1.000  C
  H284     1.0000 0.07900  0.52320  0.39480  Biso   1.000  H
  C299     1.0000 0.11920  0.53083  0.50680  Biso   1.000  C
  H285     1.0000 0.11560  0.55460  0.50980  Biso   1.000  H
  C300     1.0000 0.14610  0.51470  0.57070  Biso   1.000  C
  H286     1.0000 0.16100  0.52740  0.61740  Biso   1.000  H
  C301     1.0000 0.15675  0.43169  0.72170  Biso   1.000  C
  C302     1.0000 0.11303  0.43570  0.72790  Biso   1.000  C
  H287     1.0000 0.09930  0.45270  0.69130  Biso   1.000  H
  C303     1.0000 0.08942  0.41490  0.78750  Biso   1.000  C
  H288     1.0000 0.05950  0.41760  0.79170  Biso   1.000  H
  C304     1.0000 0.10950  0.39010  0.84110  Biso   1.000  C
  H289     1.0000 0.09340  0.37580  0.88180  Biso   1.000  H
  C305     1.0000 0.15330  0.38604  0.83490  Biso   1.000  C
  H290     1.0000 0.16700  0.36910  0.87150  Biso   1.000  H
  C306     1.0000 0.17686  0.40690  0.77530  Biso   1.000  C
  H291     1.0000 0.20670  0.40410  0.77110  Biso   1.000  H
  C307     1.0000 0.34800  0.48030  0.45370  Biso   1.000  C
  C308     1.0000 0.36930  0.46020  0.51920  Biso   1.000  C
  H292     1.0000 0.36480  0.43650  0.51960  Biso   1.000  H
  C309     1.0000 0.39720  0.47470  0.58430  Biso   1.000  C
  H293     1.0000 0.41180  0.46090  0.62910  Biso   1.000  H
  C310     1.0000 0.40380  0.50930  0.58380  Biso   1.000  C
  H294     1.0000 0.42290  0.51920  0.62820  Biso   1.000  H
  C311     1.0000 0.38250  0.52950  0.51820  Biso   1.000  C
  H295     1.0000 0.38710  0.55320  0.51780  Biso   1.000  H
  C312     1.0000 0.35470  0.51500  0.45310  Biso   1.000  C
  H296     1.0000 0.34010  0.52880  0.40830  Biso   1.000  H
  Ag9      1.0000 0.52481  0.24994  0.01211  Biso   1.000  Ag
  P17      1.0000 0.56158  0.21136  0.90390  Biso   1.000  P
  P18      1.0000 0.43834  0.21192  0.62183  Biso   1.000  P
  N17      1.0000 0.47110  0.28880  0.95480  Biso   1.000  N
  N18      1.0000 0.27870  0.46237  0.81540  Biso   1.000  N
  C313     1.0000 0.47200  0.18560  0.69780  Biso   1.000  C
  H297     1.0000 0.48900  0.17020  0.65730  Biso   1.000  H
  H298     1.0000 0.45390  0.17160  0.74000  Biso   1.000  H
  C314     1.0000 0.50030  0.20621  0.75600  Biso   1.000  C
  H299     1.0000 0.51950  0.21900  0.71320  Biso   1.000  H
  H300     1.0000 0.48320  0.22280  0.79220  Biso   1.000  H
  C315     1.0000 0.52840  0.18490  0.82970  Biso   1.000  C
  H301     1.0000 0.50940  0.17150  0.87110  Biso   1.000  H
  H302     1.0000 0.54660  0.16910  0.79360  Biso   1.000  H
  C316     1.0000 0.43520  0.29300  0.01320  Biso   1.000  C
  H303     1.0000 0.42960  0.27890  0.06640  Biso   1.000  H
  C317     1.0000 0.40830  0.31970  0.98720  Biso   1.000  C
  H304     1.0000 0.38290  0.32290  0.02260  Biso   1.000  H
  C318     1.0000 0.41690  0.34100  0.91370  Biso   1.000  C
  H305     1.0000 0.39780  0.35860  0.89740  Biso   1.000  H
  C319     1.0000 0.45590  0.33610  0.86100  Biso   1.000  C
  H306     1.0000 0.46350  0.35130  0.81130  Biso   1.000  H
  C320     1.0000 0.48160  0.30960  0.88300  Biso   1.000  C
  H307     1.0000 0.50690  0.30590  0.84760  Biso   1.000  H
  C321     1.0000 0.31390  0.45570  0.77620  Biso   1.000  C
  H308     1.0000 0.32280  0.47050  0.72670  Biso   1.000  H
  C322     1.0000 0.34140  0.42860  0.79790  Biso   1.000  C
  H309     1.0000 0.36690  0.42520  0.76300  Biso   1.000  H
  C323     1.0000 0.32980  0.40650  0.87400  Biso   1.000  C
  C324     1.0000 0.29350  0.41320  0.91510  Biso   1.000  C
  H310     1.0000 0.28300  0.39910  0.96450  Biso   1.000  H
  C325     1.0000 0.27140  0.44010  0.88700  Biso   1.000  C
  H311     1.0000 0.24650  0.44430  0.92310  Biso   1.000  H
  C326     1.0000 0.35370  0.37740  0.90040  Biso   1.000  C
  H312     1.0000 0.34350  0.36050  0.94250  Biso   1.000  H
  C327     1.0000 0.38630  0.37670  0.86600  Biso   1.000  C
  H313     1.0000 0.39620  0.39230  0.81950  Biso   1.000  H
  C328     1.0000 0.40600  0.18103  0.55520  Biso   1.000  C
  C329     1.0000 0.42650  0.15700  0.49950  Biso   1.000  C
  H314     1.0000 0.45660  0.15540  0.50070  Biso   1.000  H
  C330     1.0000 0.40300  0.13530  0.44220  Biso   1.000  C
  H315     1.0000 0.41700  0.11890  0.40420  Biso   1.000  H
  C331     1.0000 0.35900  0.13760  0.44050  Biso   1.000  C
  H316     1.0000 0.34300  0.12270  0.40140  Biso   1.000  H
  C332     1.0000 0.33850  0.16160  0.49620  Biso   1.000  C
  H317     1.0000 0.30840  0.16320  0.49500  Biso   1.000  H
  C333     1.0000 0.36200  0.18330  0.55350  Biso   1.000  C
  H318     1.0000 0.34790  0.19980  0.59150  Biso   1.000  H
  C334     1.0000 0.59870  0.22990  0.81640  Biso   1.000  C
  C335     1.0000 0.62050  0.21124  0.74800  Biso   1.000  C
  H319     1.0000 0.61700  0.18750  0.74510  Biso   1.000  H
  C336     1.0000 0.64750  0.22740  0.68410  Biso   1.000  C
  H320     1.0000 0.66240  0.21460  0.63740  Biso   1.000  H
  C337     1.0000 0.65260  0.26220  0.68850  Biso   1.000  C
  H321     1.0000 0.67100  0.27320  0.64480  Biso   1.000  H
  C338     1.0000 0.63080  0.28083  0.75680  Biso   1.000  C
  H322     1.0000 0.63440  0.30460  0.75980  Biso   1.000  H
  C339     1.0000 0.60390  0.26470  0.82070  Biso   1.000  C
  H323     1.0000 0.58900  0.27740  0.86740  Biso   1.000  H
  C340     1.0000 0.59325  0.18169  0.97170  Biso   1.000  C
  C341     1.0000 0.63697  0.18570  0.97790  Biso   1.000  C
  H324     1.0000 0.65070  0.20270  0.94130  Biso   1.000  H
  C342     1.0000 0.66058  0.16490  0.03750  Biso   1.000  C
  H325     1.0000 0.69050  0.16760  0.04170  Biso   1.000  H
  C343     1.0000 0.64050  0.14010  0.09110  Biso   1.000  C
  H326     1.0000 0.65660  0.12580  0.13180  Biso   1.000  H
  C344     1.0000 0.59670  0.13604  0.08490  Biso   1.000  C
  H327     1.0000 0.58300  0.11910  0.12150  Biso   1.000  H
  C345     1.0000 0.57314  0.15690  0.02530  Biso   1.000  C
  H328     1.0000 0.54330  0.15410  0.02110  Biso   1.000  H
  C346     1.0000 0.40200  0.23030  0.70370  Biso   1.000  C
  C347     1.0000 0.38070  0.21020  0.76920  Biso   1.000  C
  H329     1.0000 0.38520  0.18650  0.76960  Biso   1.000  H
  C348     1.0000 0.35280  0.22470  0.83430  Biso   1.000  C
  H330     1.0000 0.33820  0.21090  0.87910  Biso   1.000  H
  C349     1.0000 0.34620  0.25930  0.83380  Biso   1.000  C
  H331     1.0000 0.32710  0.26920  0.87820  Biso   1.000  H
  C350     1.0000 0.36750  0.27950  0.76820  Biso   1.000  C
  H332     1.0000 0.36290  0.30320  0.76780  Biso   1.000  H
  C351     1.0000 0.39530  0.26500  0.70310  Biso   1.000  C
  H333     1.0000 0.40990  0.27880  0.65830  Biso   1.000  H
  Ag10     1.0000 0.52481  0.74994  0.51211  Biso   1.000  Ag
  P19      1.0000 0.56158  0.71136  0.40390  Biso   1.000  P
  P20      1.0000 0.43834  0.71192  0.12183  Biso   1.000  P
  N19      1.0000 0.47110  0.78880  0.45480  Biso   1.000  N
  N20      1.0000 0.27870  0.96237  0.31540  Biso   1.000  N
  C352     1.0000 0.47200  0.68560  0.19780  Biso   1.000  C
  H334     1.0000 0.48900  0.67020  0.15730  Biso   1.000  H
  H335     1.0000 0.45390  0.67160  0.24000  Biso   1.000  H
  C353     1.0000 0.50030  0.70621  0.25600  Biso   1.000  C
  H336     1.0000 0.51950  0.71900  0.21320  Biso   1.000  H
  H337     1.0000 0.48320  0.72280  0.29220  Biso   1.000  H
  C354     1.0000 0.52840  0.68490  0.32970  Biso   1.000  C
  H338     1.0000 0.50940  0.67150  0.37110  Biso   1.000  H
  H339     1.0000 0.54660  0.66910  0.29360  Biso   1.000  H
  C355     1.0000 0.43520  0.79300  0.51320  Biso   1.000  C
  H340     1.0000 0.42960  0.77890  0.56640  Biso   1.000  H
  C356     1.0000 0.40830  0.81970  0.48720  Biso   1.000  C
  H341     1.0000 0.38290  0.82290  0.52260  Biso   1.000  H
  C357     1.0000 0.41690  0.84100  0.41370  Biso   1.000  C
  H342     1.0000 0.39780  0.85860  0.39740  Biso   1.000  H
  C358     1.0000 0.45590  0.83610  0.36100  Biso   1.000  C
  H343     1.0000 0.46350  0.85130  0.31130  Biso   1.000  H
  C359     1.0000 0.48160  0.80960  0.38300  Biso   1.000  C
  H344     1.0000 0.50690  0.80590  0.34760  Biso   1.000  H
  C360     1.0000 0.31390  0.95570  0.27620  Biso   1.000  C
  H345     1.0000 0.32280  0.97050  0.22670  Biso   1.000  H
  C361     1.0000 0.34140  0.92860  0.29790  Biso   1.000  C
  H346     1.0000 0.36690  0.92520  0.26300  Biso   1.000  H
  C362     1.0000 0.32980  0.90650  0.37400  Biso   1.000  C
  C363     1.0000 0.29350  0.91320  0.41510  Biso   1.000  C
  H347     1.0000 0.28300  0.89910  0.46450  Biso   1.000  H
  C364     1.0000 0.27140  0.94010  0.38700  Biso   1.000  C
  H348     1.0000 0.24650  0.94430  0.42310  Biso   1.000  H
  C365     1.0000 0.35370  0.87740  0.40040  Biso   1.000  C
  H349     1.0000 0.34350  0.86050  0.44250  Biso   1.000  H
  C366     1.0000 0.38630  0.87670  0.36600  Biso   1.000  C
  H350     1.0000 0.39620  0.89230  0.31950  Biso   1.000  H
  C367     1.0000 0.40600  0.68103  0.05520  Biso   1.000  C
  C368     1.0000 0.42650  0.65700  0.99950  Biso   1.000  C
  H351     1.0000 0.45660  0.65540  0.00070  Biso   1.000  H
  C369     1.0000 0.40300  0.63530  0.94220  Biso   1.000  C
  H352     1.0000 0.41700  0.61890  0.90420  Biso   1.000  H
  C370     1.0000 0.35900  0.63760  0.94050  Biso   1.000  C
  H353     1.0000 0.34300  0.62270  0.90140  Biso   1.000  H
  C371     1.0000 0.33850  0.66160  0.99620  Biso   1.000  C
  H354     1.0000 0.30840  0.66320  0.99500  Biso   1.000  H
  C372     1.0000 0.36200  0.68330  0.05350  Biso   1.000  C
  H355     1.0000 0.34790  0.69980  0.09150  Biso   1.000  H
  C373     1.0000 0.59870  0.72990  0.31640  Biso   1.000  C
  C374     1.0000 0.62050  0.71124  0.24800  Biso   1.000  C
  H356     1.0000 0.61700  0.68750  0.24510  Biso   1.000  H
  C375     1.0000 0.64750  0.72740  0.18410  Biso   1.000  C
  H357     1.0000 0.66240  0.71460  0.13740  Biso   1.000  H
  C376     1.0000 0.65260  0.76220  0.18850  Biso   1.000  C
  H358     1.0000 0.67100  0.77320  0.14480  Biso   1.000  H
  C377     1.0000 0.63080  0.78083  0.25680  Biso   1.000  C
  H359     1.0000 0.63440  0.80460  0.25980  Biso   1.000  H
  C378     1.0000 0.60390  0.76470  0.32070  Biso   1.000  C
  H360     1.0000 0.58900  0.77740  0.36740  Biso   1.000  H
  C379     1.0000 0.59325  0.68169  0.47170  Biso   1.000  C
  C380     1.0000 0.63697  0.68570  0.47790  Biso   1.000  C
  H361     1.0000 0.65070  0.70270  0.44130  Biso   1.000  H
  C381     1.0000 0.66058  0.66490  0.53750  Biso   1.000  C
  H362     1.0000 0.69050  0.66760  0.54170  Biso   1.000  H
  C382     1.0000 0.64050  0.64010  0.59110  Biso   1.000  C
  H363     1.0000 0.65660  0.62580  0.63180  Biso   1.000  H
  C383     1.0000 0.59670  0.63604  0.58490  Biso   1.000  C
  H364     1.0000 0.58300  0.61910  0.62150  Biso   1.000  H
  C384     1.0000 0.57314  0.65690  0.52530  Biso   1.000  C
  H365     1.0000 0.54330  0.65410  0.52110  Biso   1.000  H
  C385     1.0000 0.40200  0.73030  0.20370  Biso   1.000  C
  C386     1.0000 0.38070  0.71020  0.26920  Biso   1.000  C
  H366     1.0000 0.38520  0.68650  0.26960  Biso   1.000  H
  C387     1.0000 0.35280  0.72470  0.33430  Biso   1.000  C
  H367     1.0000 0.33820  0.71090  0.37910  Biso   1.000  H
  C388     1.0000 0.34620  0.75930  0.33380  Biso   1.000  C
  H368     1.0000 0.32710  0.76920  0.37820  Biso   1.000  H
  C389     1.0000 0.36750  0.77950  0.26820  Biso   1.000  C
  H369     1.0000 0.36290  0.80320  0.26780  Biso   1.000  H
  C390     1.0000 0.39530  0.76500  0.20310  Biso   1.000  C
  H370     1.0000 0.40990  0.77880  0.15830  Biso   1.000  H
  Ag11     1.0000 0.02481  0.24994  0.51211  Biso   1.000  Ag
  P21      1.0000 0.06158  0.21136  0.40390  Biso   1.000  P
  P22      1.0000 0.93834  0.21192  0.12183  Biso   1.000  P
  N21      1.0000 0.97110  0.28880  0.45480  Biso   1.000  N
  N22      1.0000 0.77870  0.46237  0.31540  Biso   1.000  N
  C391     1.0000 0.97200  0.18560  0.19780  Biso   1.000  C
  H371     1.0000 0.98900  0.17020  0.15730  Biso   1.000  H
  H372     1.0000 0.95390  0.17160  0.24000  Biso   1.000  H
  C392     1.0000 0.00030  0.20621  0.25600  Biso   1.000  C
  H373     1.0000 0.01950  0.21900  0.21320  Biso   1.000  H
  H374     1.0000 0.98320  0.22280  0.29220  Biso   1.000  H
  C393     1.0000 0.02840  0.18490  0.32970  Biso   1.000  C
  H375     1.0000 0.00940  0.17150  0.37110  Biso   1.000  H
  H376     1.0000 0.04660  0.16910  0.29360  Biso   1.000  H
  C394     1.0000 0.93520  0.29300  0.51320  Biso   1.000  C
  H377     1.0000 0.92960  0.27890  0.56640  Biso   1.000  H
  C395     1.0000 0.90830  0.31970  0.48720  Biso   1.000  C
  H378     1.0000 0.88290  0.32290  0.52260  Biso   1.000  H
  C396     1.0000 0.91690  0.34100  0.41370  Biso   1.000  C
  H379     1.0000 0.89780  0.35860  0.39740  Biso   1.000  H
  C397     1.0000 0.95590  0.33610  0.36100  Biso   1.000  C
  H380     1.0000 0.96350  0.35130  0.31130  Biso   1.000  H
  C398     1.0000 0.98160  0.30960  0.38300  Biso   1.000  C
  H381     1.0000 0.00690  0.30590  0.34760  Biso   1.000  H
  C399     1.0000 0.81390  0.45570  0.27620  Biso   1.000  C
  H382     1.0000 0.82280  0.47050  0.22670  Biso   1.000  H
  C400     1.0000 0.84140  0.42860  0.29790  Biso   1.000  C
  H383     1.0000 0.86690  0.42520  0.26300  Biso   1.000  H
  C401     1.0000 0.82980  0.40650  0.37400  Biso   1.000  C
  C402     1.0000 0.79350  0.41320  0.41510  Biso   1.000  C
  H384     1.0000 0.78300  0.39910  0.46450  Biso   1.000  H
  C403     1.0000 0.77140  0.44010  0.38700  Biso   1.000  C
  H385     1.0000 0.74650  0.44430  0.42310  Biso   1.000  H
  C404     1.0000 0.85370  0.37740  0.40040  Biso   1.000  C
  H386     1.0000 0.84350  0.36050  0.44250  Biso   1.000  H
  C405     1.0000 0.88630  0.37670  0.36600  Biso   1.000  C
  H387     1.0000 0.89620  0.39230  0.31950  Biso   1.000  H
  C406     1.0000 0.90600  0.18103  0.05520  Biso   1.000  C
  C407     1.0000 0.92650  0.15700  0.99950  Biso   1.000  C
  H388     1.0000 0.95660  0.15540  0.00070  Biso   1.000  H
  C408     1.0000 0.90300  0.13530  0.94220  Biso   1.000  C
  H389     1.0000 0.91700  0.11890  0.90420  Biso   1.000  H
  C409     1.0000 0.85900  0.13760  0.94050  Biso   1.000  C
  H390     1.0000 0.84300  0.12270  0.90140  Biso   1.000  H
  C410     1.0000 0.83850  0.16160  0.99620  Biso   1.000  C
  H391     1.0000 0.80840  0.16320  0.99500  Biso   1.000  H
  C411     1.0000 0.86200  0.18330  0.05350  Biso   1.000  C
  H392     1.0000 0.84790  0.19980  0.09150  Biso   1.000  H
  C412     1.0000 0.09870  0.22990  0.31640  Biso   1.000  C
  C413     1.0000 0.12050  0.21124  0.24800  Biso   1.000  C
  H393     1.0000 0.11700  0.18750  0.24510  Biso   1.000  H
  C414     1.0000 0.14750  0.22740  0.18410  Biso   1.000  C
  H394     1.0000 0.16240  0.21460  0.13740  Biso   1.000  H
  C415     1.0000 0.15260  0.26220  0.18850  Biso   1.000  C
  H395     1.0000 0.17100  0.27320  0.14480  Biso   1.000  H
  C416     1.0000 0.13080  0.28083  0.25680  Biso   1.000  C
  H396     1.0000 0.13440  0.30460  0.25980  Biso   1.000  H
  C417     1.0000 0.10390  0.26470  0.32070  Biso   1.000  C
  H397     1.0000 0.08900  0.27740  0.36740  Biso   1.000  H
  C418     1.0000 0.09325  0.18169  0.47170  Biso   1.000  C
  C419     1.0000 0.13697  0.18570  0.47790  Biso   1.000  C
  H398     1.0000 0.15070  0.20270  0.44130  Biso   1.000  H
  C420     1.0000 0.16058  0.16490  0.53750  Biso   1.000  C
  H399     1.0000 0.19050  0.16760  0.54170  Biso   1.000  H
  C421     1.0000 0.14050  0.14010  0.59110  Biso   1.000  C
  H400     1.0000 0.15660  0.12580  0.63180  Biso   1.000  H
  C422     1.0000 0.09670  0.13604  0.58490  Biso   1.000  C
  H401     1.0000 0.08300  0.11910  0.62150  Biso   1.000  H
  C423     1.0000 0.07314  0.15690  0.52530  Biso   1.000  C
  H402     1.0000 0.04330  0.15410  0.52110  Biso   1.000  H
  C424     1.0000 0.90200  0.23030  0.20370  Biso   1.000  C
  C425     1.0000 0.88070  0.21020  0.26920  Biso   1.000  C
  H403     1.0000 0.88520  0.18650  0.26960  Biso   1.000  H
  C426     1.0000 0.85280  0.22470  0.33430  Biso   1.000  C
  H404     1.0000 0.83820  0.21090  0.37910  Biso   1.000  H
  C427     1.0000 0.84620  0.25930  0.33380  Biso   1.000  C
  H405     1.0000 0.82710  0.26920  0.37820  Biso   1.000  H
  C428     1.0000 0.86750  0.27950  0.26820  Biso   1.000  C
  H406     1.0000 0.86290  0.30320  0.26780  Biso   1.000  H
  C429     1.0000 0.89530  0.26500  0.20310  Biso   1.000  C
  H407     1.0000 0.90990  0.27880  0.15830  Biso   1.000  H
  Ag12     1.0000 0.02481  0.74994  0.01211  Biso   1.000  Ag
  P23      1.0000 0.06158  0.71136  0.90390  Biso   1.000  P
  P24      1.0000 0.93834  0.71192  0.62183  Biso   1.000  P
  N23      1.0000 0.97110  0.78880  0.95480  Biso   1.000  N
  N24      1.0000 0.77870  0.96237  0.81540  Biso   1.000  N
  C430     1.0000 0.97200  0.68560  0.69780  Biso   1.000  C
  H408     1.0000 0.98900  0.67020  0.65730  Biso   1.000  H
  H409     1.0000 0.95390  0.67160  0.74000  Biso   1.000  H
  C431     1.0000 0.00030  0.70621  0.75600  Biso   1.000  C
  H410     1.0000 0.01950  0.71900  0.71320  Biso   1.000  H
  H411     1.0000 0.98320  0.72280  0.79220  Biso   1.000  H
  C432     1.0000 0.02840  0.68490  0.82970  Biso   1.000  C
  H412     1.0000 0.00940  0.67150  0.87110  Biso   1.000  H
  H413     1.0000 0.04660  0.66910  0.79360  Biso   1.000  H
  C433     1.0000 0.93520  0.79300  0.01320  Biso   1.000  C
  H414     1.0000 0.92960  0.77890  0.06640  Biso   1.000  H
  C434     1.0000 0.90830  0.81970  0.98720  Biso   1.000  C
  H415     1.0000 0.88290  0.82290  0.02260  Biso   1.000  H
  C435     1.0000 0.91690  0.84100  0.91370  Biso   1.000  C
  H416     1.0000 0.89780  0.85860  0.89740  Biso   1.000  H
  C436     1.0000 0.95590  0.83610  0.86100  Biso   1.000  C
  H417     1.0000 0.96350  0.85130  0.81130  Biso   1.000  H
  C437     1.0000 0.98160  0.80960  0.88300  Biso   1.000  C
  H418     1.0000 0.00690  0.80590  0.84760  Biso   1.000  H
  C438     1.0000 0.81390  0.95570  0.77620  Biso   1.000  C
  H419     1.0000 0.82280  0.97050  0.72670  Biso   1.000  H
  C439     1.0000 0.84140  0.92860  0.79790  Biso   1.000  C
  H420     1.0000 0.86690  0.92520  0.76300  Biso   1.000  H
  C440     1.0000 0.82980  0.90650  0.87400  Biso   1.000  C
  C441     1.0000 0.79350  0.91320  0.91510  Biso   1.000  C
  H421     1.0000 0.78300  0.89910  0.96450  Biso   1.000  H
  C442     1.0000 0.77140  0.94010  0.88700  Biso   1.000  C
  H422     1.0000 0.74650  0.94430  0.92310  Biso   1.000  H
  C443     1.0000 0.85370  0.87740  0.90040  Biso   1.000  C
  H423     1.0000 0.84350  0.86050  0.94250  Biso   1.000  H
  C444     1.0000 0.88630  0.87670  0.86600  Biso   1.000  C
  H424     1.0000 0.89620  0.89230  0.81950  Biso   1.000  H
  C445     1.0000 0.90600  0.68103  0.55520  Biso   1.000  C
  C446     1.0000 0.92650  0.65700  0.49950  Biso   1.000  C
  H425     1.0000 0.95660  0.65540  0.50070  Biso   1.000  H
  C447     1.0000 0.90300  0.63530  0.44220  Biso   1.000  C
  H426     1.0000 0.91700  0.61890  0.40420  Biso   1.000  H
  C448     1.0000 0.85900  0.63760  0.44050  Biso   1.000  C
  H427     1.0000 0.84300  0.62270  0.40140  Biso   1.000  H
  C449     1.0000 0.83850  0.66160  0.49620  Biso   1.000  C
  H428     1.0000 0.80840  0.66320  0.49500  Biso   1.000  H
  C450     1.0000 0.86200  0.68330  0.55350  Biso   1.000  C
  H429     1.0000 0.84790  0.69980  0.59150  Biso   1.000  H
  C451     1.0000 0.09870  0.72990  0.81640  Biso   1.000  C
  C452     1.0000 0.12050  0.71124  0.74800  Biso   1.000  C
  H430     1.0000 0.11700  0.68750  0.74510  Biso   1.000  H
  C453     1.0000 0.14750  0.72740  0.68410  Biso   1.000  C
  H431     1.0000 0.16240  0.71460  0.63740  Biso   1.000  H
  C454     1.0000 0.15260  0.76220  0.68850  Biso   1.000  C
  H432     1.0000 0.17100  0.77320  0.64480  Biso   1.000  H
  C455     1.0000 0.13080  0.78083  0.75680  Biso   1.000  C
  H433     1.0000 0.13440  0.80460  0.75980  Biso   1.000  H
  C456     1.0000 0.10390  0.76470  0.82070  Biso   1.000  C
  H434     1.0000 0.08900  0.77740  0.86740  Biso   1.000  H
  C457     1.0000 0.09325  0.68169  0.97170  Biso   1.000  C
  C458     1.0000 0.13697  0.68570  0.97790  Biso   1.000  C
  H435     1.0000 0.15070  0.70270  0.94130  Biso   1.000  H
  C459     1.0000 0.16058  0.66490  0.03750  Biso   1.000  C
  H436     1.0000 0.19050  0.66760  0.04170  Biso   1.000  H
  C460     1.0000 0.14050  0.64010  0.09110  Biso   1.000  C
  H437     1.0000 0.15660  0.62580  0.13180  Biso   1.000  H
  C461     1.0000 0.09670  0.63604  0.08490  Biso   1.000  C
  H438     1.0000 0.08300  0.61910  0.12150  Biso   1.000  H
  C462     1.0000 0.07314  0.65690  0.02530  Biso   1.000  C
  H439     1.0000 0.04330  0.65410  0.02110  Biso   1.000  H
  C463     1.0000 0.90200  0.73030  0.70370  Biso   1.000  C
  C464     1.0000 0.88070  0.71020  0.76920  Biso   1.000  C
  H440     1.0000 0.88520  0.68650  0.76960  Biso   1.000  H
  C465     1.0000 0.85280  0.72470  0.83430  Biso   1.000  C
  H441     1.0000 0.83820  0.71090  0.87910  Biso   1.000  H
  C466     1.0000 0.84620  0.75930  0.83380  Biso   1.000  C
  H442     1.0000 0.82710  0.76920  0.87820  Biso   1.000  H
  C467     1.0000 0.86750  0.77950  0.76820  Biso   1.000  C
  H443     1.0000 0.86290  0.80320  0.76780  Biso   1.000  H
  C468     1.0000 0.89530  0.76500  0.70310  Biso   1.000  C
  H444     1.0000 0.90990  0.77880  0.65830  Biso   1.000  H
  Ag13     1.0000 0.97519  0.25006  0.01211  Biso   1.000  Ag
  P25      1.0000 0.93842  0.28864  0.90390  Biso   1.000  P
  P26      1.0000 0.06166  0.28808  0.62183  Biso   1.000  P
  N25      1.0000 0.02890  0.21120  0.95480  Biso   1.000  N
  N26      1.0000 0.22130  0.03763  0.81540  Biso   1.000  N
  C469     1.0000 0.02800  0.31440  0.69780  Biso   1.000  C
  H445     1.0000 0.01100  0.32980  0.65730  Biso   1.000  H
  H446     1.0000 0.04610  0.32840  0.74000  Biso   1.000  H
  C470     1.0000 0.99970  0.29379  0.75600  Biso   1.000  C
  H447     1.0000 0.98050  0.28100  0.71320  Biso   1.000  H
  H448     1.0000 0.01680  0.27720  0.79220  Biso   1.000  H
  C471     1.0000 0.97160  0.31510  0.82970  Biso   1.000  C
  H449     1.0000 0.99060  0.32850  0.87110  Biso   1.000  H
  H450     1.0000 0.95340  0.33090  0.79360  Biso   1.000  H
  C472     1.0000 0.06480  0.20700  0.01320  Biso   1.000  C
  H451     1.0000 0.07040  0.22110  0.06640  Biso   1.000  H
  C473     1.0000 0.09170  0.18030  0.98720  Biso   1.000  C
  H452     1.0000 0.11710  0.17710  0.02260  Biso   1.000  H
  C474     1.0000 0.08310  0.15900  0.91370  Biso   1.000  C
  H453     1.0000 0.10220  0.14140  0.89740  Biso   1.000  H
  C475     1.0000 0.04410  0.16390  0.86100  Biso   1.000  C
  H454     1.0000 0.03650  0.14870  0.81130  Biso   1.000  H
  C476     1.0000 0.01840  0.19040  0.88300  Biso   1.000  C
  H455     1.0000 0.99310  0.19410  0.84760  Biso   1.000  H
  C477     1.0000 0.18610  0.04430  0.77620  Biso   1.000  C
  H456     1.0000 0.17720  0.02950  0.72670  Biso   1.000  H
  C478     1.0000 0.15860  0.07140  0.79790  Biso   1.000  C
  H457     1.0000 0.13310  0.07480  0.76300  Biso   1.000  H
  C479     1.0000 0.17020  0.09350  0.87400  Biso   1.000  C
  C480     1.0000 0.20650  0.08680  0.91510  Biso   1.000  C
  H458     1.0000 0.21700  0.10090  0.96450  Biso   1.000  H
  C481     1.0000 0.22860  0.05990  0.88700  Biso   1.000  C
  H459     1.0000 0.25350  0.05570  0.92310  Biso   1.000  H
  C482     1.0000 0.14630  0.12260  0.90040  Biso   1.000  C
  H460     1.0000 0.15650  0.13950  0.94250  Biso   1.000  H
  C483     1.0000 0.11370  0.12330  0.86600  Biso   1.000  C
  H461     1.0000 0.10380  0.10770  0.81950  Biso   1.000  H
  C484     1.0000 0.09400  0.31897  0.55520  Biso   1.000  C
  C485     1.0000 0.07350  0.34300  0.49950  Biso   1.000  C
  H462     1.0000 0.04340  0.34460  0.50070  Biso   1.000  H
  C486     1.0000 0.09700  0.36470  0.44220  Biso   1.000  C
  H463     1.0000 0.08300  0.38110  0.40420  Biso   1.000  H
  C487     1.0000 0.14100  0.36240  0.44050  Biso   1.000  C
  H464     1.0000 0.15700  0.37730  0.40140  Biso   1.000  H
  C488     1.0000 0.16150  0.33840  0.49620  Biso   1.000  C
  H465     1.0000 0.19160  0.33680  0.49500  Biso   1.000  H
  C489     1.0000 0.13800  0.31670  0.55350  Biso   1.000  C
  H466     1.0000 0.15210  0.30020  0.59150  Biso   1.000  H
  C490     1.0000 0.90130  0.27010  0.81640  Biso   1.000  C
  C491     1.0000 0.87950  0.28876  0.74800  Biso   1.000  C
  H467     1.0000 0.88300  0.31250  0.74510  Biso   1.000  H
  C492     1.0000 0.85250  0.27260  0.68410  Biso   1.000  C
  H468     1.0000 0.83760  0.28540  0.63740  Biso   1.000  H
  C493     1.0000 0.84740  0.23780  0.68850  Biso   1.000  C
  H469     1.0000 0.82900  0.22680  0.64480  Biso   1.000  H
  C494     1.0000 0.86920  0.21917  0.75680  Biso   1.000  C
  H470     1.0000 0.86560  0.19540  0.75980  Biso   1.000  H
  C495     1.0000 0.89610  0.23530  0.82070  Biso   1.000  C
  H471     1.0000 0.91100  0.22260  0.86740  Biso   1.000  H
  C496     1.0000 0.90675  0.31831  0.97170  Biso   1.000  C
  C497     1.0000 0.86303  0.31430  0.97790  Biso   1.000  C
  H472     1.0000 0.84930  0.29730  0.94130  Biso   1.000  H
  C498     1.0000 0.83942  0.33510  0.03750  Biso   1.000  C
  H473     1.0000 0.80950  0.33240  0.04170  Biso   1.000  H
  C499     1.0000 0.85950  0.35990  0.09110  Biso   1.000  C
  H474     1.0000 0.84340  0.37420  0.13180  Biso   1.000  H
  C500     1.0000 0.90330  0.36396  0.08490  Biso   1.000  C
  H475     1.0000 0.91700  0.38090  0.12150  Biso   1.000  H
  C501     1.0000 0.92686  0.34310  0.02530  Biso   1.000  C
  H476     1.0000 0.95670  0.34590  0.02110  Biso   1.000  H
  C502     1.0000 0.09800  0.26970  0.70370  Biso   1.000  C
  C503     1.0000 0.11930  0.28980  0.76920  Biso   1.000  C
  H477     1.0000 0.11480  0.31350  0.76960  Biso   1.000  H
  C504     1.0000 0.14720  0.27530  0.83430  Biso   1.000  C
  H478     1.0000 0.16180  0.28910  0.87910  Biso   1.000  H
  C505     1.0000 0.15380  0.24070  0.83380  Biso   1.000  C
  H479     1.0000 0.17290  0.23080  0.87820  Biso   1.000  H
  C506     1.0000 0.13250  0.22050  0.76820  Biso   1.000  C
  H480     1.0000 0.13710  0.19680  0.76780  Biso   1.000  H
  C507     1.0000 0.10470  0.23500  0.70310  Biso   1.000  C
  H481     1.0000 0.09010  0.22120  0.65830  Biso   1.000  H
  Ag14     1.0000 0.97519  0.75005  0.51211  Biso   1.000  Ag
  P27      1.0000 0.93842  0.78864  0.40390  Biso   1.000  P
  P28      1.0000 0.06166  0.78808  0.12183  Biso   1.000  P
  N27      1.0000 0.02890  0.71120  0.45480  Biso   1.000  N
  N28      1.0000 0.22130  0.53763  0.31540  Biso   1.000  N
  C508     1.0000 0.02800  0.81440  0.19780  Biso   1.000  C
  H482     1.0000 0.01100  0.82980  0.15730  Biso   1.000  H
  H483     1.0000 0.04610  0.82840  0.24000  Biso   1.000  H
  C509     1.0000 0.99970  0.79379  0.25600  Biso   1.000  C
  H484     1.0000 0.98050  0.78100  0.21320  Biso   1.000  H
  H485     1.0000 0.01680  0.77720  0.29220  Biso   1.000  H
  C510     1.0000 0.97160  0.81510  0.32970  Biso   1.000  C
  H486     1.0000 0.99060  0.82850  0.37110  Biso   1.000  H
  H487     1.0000 0.95340  0.83090  0.29360  Biso   1.000  H
  C511     1.0000 0.06480  0.70700  0.51320  Biso   1.000  C
  H488     1.0000 0.07040  0.72110  0.56640  Biso   1.000  H
  C512     1.0000 0.09170  0.68030  0.48720  Biso   1.000  C
  H489     1.0000 0.11710  0.67710  0.52260  Biso   1.000  H
  C513     1.0000 0.08310  0.65900  0.41370  Biso   1.000  C
  H490     1.0000 0.10220  0.64140  0.39740  Biso   1.000  H
  C514     1.0000 0.04410  0.66390  0.36100  Biso   1.000  C
  H491     1.0000 0.03650  0.64870  0.31130  Biso   1.000  H
  C515     1.0000 0.01840  0.69040  0.38300  Biso   1.000  C
  H492     1.0000 0.99310  0.69410  0.34760  Biso   1.000  H
  C516     1.0000 0.18610  0.54430  0.27620  Biso   1.000  C
  H493     1.0000 0.17720  0.52950  0.22670  Biso   1.000  H
  C517     1.0000 0.15860  0.57140  0.29790  Biso   1.000  C
  H494     1.0000 0.13310  0.57480  0.26300  Biso   1.000  H
  C518     1.0000 0.17020  0.59350  0.37400  Biso   1.000  C
  C519     1.0000 0.20650  0.58680  0.41510  Biso   1.000  C
  H495     1.0000 0.21700  0.60090  0.46450  Biso   1.000  H
  C520     1.0000 0.22860  0.55990  0.38700  Biso   1.000  C
  H496     1.0000 0.25350  0.55570  0.42310  Biso   1.000  H
  C521     1.0000 0.14630  0.62260  0.40040  Biso   1.000  C
  H497     1.0000 0.15650  0.63950  0.44250  Biso   1.000  H
  C522     1.0000 0.11370  0.62330  0.36600  Biso   1.000  C
  H498     1.0000 0.10380  0.60770  0.31950  Biso   1.000  H
  C523     1.0000 0.09400  0.81897  0.05520  Biso   1.000  C
  C524     1.0000 0.07350  0.84300  0.99950  Biso   1.000  C
  H499     1.0000 0.04340  0.84460  0.00070  Biso   1.000  H
  C525     1.0000 0.09700  0.86470  0.94220  Biso   1.000  C
  H500     1.0000 0.08300  0.88110  0.90420  Biso   1.000  H
  C526     1.0000 0.14100  0.86240  0.94050  Biso   1.000  C
  H501     1.0000 0.15700  0.87730  0.90140  Biso   1.000  H
  C527     1.0000 0.16150  0.83840  0.99620  Biso   1.000  C
  H502     1.0000 0.19160  0.83680  0.99500  Biso   1.000  H
  C528     1.0000 0.13800  0.81670  0.05350  Biso   1.000  C
  H503     1.0000 0.15210  0.80020  0.09150  Biso   1.000  H
  C529     1.0000 0.90130  0.77010  0.31640  Biso   1.000  C
  C530     1.0000 0.87950  0.78876  0.24800  Biso   1.000  C
  H504     1.0000 0.88300  0.81250  0.24510  Biso   1.000  H
  C531     1.0000 0.85250  0.77260  0.18410  Biso   1.000  C
  H505     1.0000 0.83760  0.78540  0.13740  Biso   1.000  H
  C532     1.0000 0.84740  0.73780  0.18850  Biso   1.000  C
  H506     1.0000 0.82900  0.72680  0.14480  Biso   1.000  H
  C533     1.0000 0.86920  0.71917  0.25680  Biso   1.000  C
  H507     1.0000 0.86560  0.69540  0.25980  Biso   1.000  H
  C534     1.0000 0.89610  0.73530  0.32070  Biso   1.000  C
  H508     1.0000 0.91100  0.72260  0.36740  Biso   1.000  H
  C535     1.0000 0.90675  0.81831  0.47170  Biso   1.000  C
  C536     1.0000 0.86303  0.81430  0.47790  Biso   1.000  C
  H509     1.0000 0.84930  0.79730  0.44130  Biso   1.000  H
  C537     1.0000 0.83942  0.83510  0.53750  Biso   1.000  C
  H510     1.0000 0.80950  0.83240  0.54170  Biso   1.000  H
  C538     1.0000 0.85950  0.85990  0.59110  Biso   1.000  C
  H511     1.0000 0.84340  0.87420  0.63180  Biso   1.000  H
  C539     1.0000 0.90330  0.86396  0.58490  Biso   1.000  C
  H512     1.0000 0.91700  0.88090  0.62150  Biso   1.000  H
  C540     1.0000 0.92686  0.84310  0.52530  Biso   1.000  C
  H513     1.0000 0.95670  0.84590  0.52110  Biso   1.000  H
  C541     1.0000 0.09800  0.76970  0.20370  Biso   1.000  C
  C542     1.0000 0.11930  0.78980  0.26920  Biso   1.000  C
  H514     1.0000 0.11480  0.81350  0.26960  Biso   1.000  H
  C543     1.0000 0.14720  0.77530  0.33430  Biso   1.000  C
  H515     1.0000 0.16180  0.78910  0.37910  Biso   1.000  H
  C544     1.0000 0.15380  0.74070  0.33380  Biso   1.000  C
  H516     1.0000 0.17290  0.73080  0.37820  Biso   1.000  H
  C545     1.0000 0.13250  0.72050  0.26820  Biso   1.000  C
  H517     1.0000 0.13710  0.69680  0.26780  Biso   1.000  H
  C546     1.0000 0.10470  0.73500  0.20310  Biso   1.000  C
  H518     1.0000 0.09010  0.72120  0.15830  Biso   1.000  H
  Ag15     1.0000 0.47519  0.25006  0.51211  Biso   1.000  Ag
  P29      1.0000 0.43842  0.28864  0.40390  Biso   1.000  P
  P30      1.0000 0.56166  0.28808  0.12183  Biso   1.000  P
  N29      1.0000 0.52890  0.21120  0.45480  Biso   1.000  N
  N30      1.0000 0.72130  0.03763  0.31540  Biso   1.000  N
  C547     1.0000 0.52800  0.31440  0.19780  Biso   1.000  C
  H519     1.0000 0.51100  0.32980  0.15730  Biso   1.000  H
  H520     1.0000 0.54610  0.32840  0.24000  Biso   1.000  H
  C548     1.0000 0.49970  0.29379  0.25600  Biso   1.000  C
  H521     1.0000 0.48050  0.28100  0.21320  Biso   1.000  H
  H522     1.0000 0.51680  0.27720  0.29220  Biso   1.000  H
  C549     1.0000 0.47160  0.31510  0.32970  Biso   1.000  C
  H523     1.0000 0.49060  0.32850  0.37110  Biso   1.000  H
  H524     1.0000 0.45340  0.33090  0.29360  Biso   1.000  H
  C550     1.0000 0.56480  0.20700  0.51320  Biso   1.000  C
  H525     1.0000 0.57040  0.22110  0.56640  Biso   1.000  H
  C551     1.0000 0.59170  0.18030  0.48720  Biso   1.000  C
  H526     1.0000 0.61710  0.17710  0.52260  Biso   1.000  H
  C552     1.0000 0.58310  0.15900  0.41370  Biso   1.000  C
  H527     1.0000 0.60220  0.14140  0.39740  Biso   1.000  H
  C553     1.0000 0.54410  0.16390  0.36100  Biso   1.000  C
  H528     1.0000 0.53650  0.14870  0.31130  Biso   1.000  H
  C554     1.0000 0.51840  0.19040  0.38300  Biso   1.000  C
  H529     1.0000 0.49310  0.19410  0.34760  Biso   1.000  H
  C555     1.0000 0.68610  0.04430  0.27620  Biso   1.000  C
  H530     1.0000 0.67720  0.02950  0.22670  Biso   1.000  H
  C556     1.0000 0.65860  0.07140  0.29790  Biso   1.000  C
  H531     1.0000 0.63310  0.07480  0.26300  Biso   1.000  H
  C557     1.0000 0.67020  0.09350  0.37400  Biso   1.000  C
  C558     1.0000 0.70650  0.08680  0.41510  Biso   1.000  C
  H532     1.0000 0.71700  0.10090  0.46450  Biso   1.000  H
  C559     1.0000 0.72860  0.05990  0.38700  Biso   1.000  C
  H533     1.0000 0.75350  0.05570  0.42310  Biso   1.000  H
  C560     1.0000 0.64630  0.12260  0.40040  Biso   1.000  C
  H534     1.0000 0.65650  0.13950  0.44250  Biso   1.000  H
  C561     1.0000 0.61370  0.12330  0.36600  Biso   1.000  C
  H535     1.0000 0.60380  0.10770  0.31950  Biso   1.000  H
  C562     1.0000 0.59400  0.31897  0.05520  Biso   1.000  C
  C563     1.0000 0.57350  0.34300  0.99950  Biso   1.000  C
  H536     1.0000 0.54340  0.34460  0.00070  Biso   1.000  H
  C564     1.0000 0.59700  0.36470  0.94220  Biso   1.000  C
  H537     1.0000 0.58300  0.38110  0.90420  Biso   1.000  H
  C565     1.0000 0.64100  0.36240  0.94050  Biso   1.000  C
  H538     1.0000 0.65700  0.37730  0.90140  Biso   1.000  H
  C566     1.0000 0.66150  0.33840  0.99620  Biso   1.000  C
  H539     1.0000 0.69160  0.33680  0.99500  Biso   1.000  H
  C567     1.0000 0.63800  0.31670  0.05350  Biso   1.000  C
  H540     1.0000 0.65210  0.30020  0.09150  Biso   1.000  H
  C568     1.0000 0.40130  0.27010  0.31640  Biso   1.000  C
  C569     1.0000 0.37950  0.28876  0.24800  Biso   1.000  C
  H541     1.0000 0.38300  0.31250  0.24510  Biso   1.000  H
  C570     1.0000 0.35250  0.27260  0.18410  Biso   1.000  C
  H542     1.0000 0.33760  0.28540  0.13740  Biso   1.000  H
  C571     1.0000 0.34740  0.23780  0.18850  Biso   1.000  C
  H543     1.0000 0.32900  0.22680  0.14480  Biso   1.000  H
  C572     1.0000 0.36920  0.21917  0.25680  Biso   1.000  C
  H544     1.0000 0.36560  0.19540  0.25980  Biso   1.000  H
  C573     1.0000 0.39610  0.23530  0.32070  Biso   1.000  C
  H545     1.0000 0.41100  0.22260  0.36740  Biso   1.000  H
  C574     1.0000 0.40675  0.31831  0.47170  Biso   1.000  C
  C575     1.0000 0.36303  0.31430  0.47790  Biso   1.000  C
  H546     1.0000 0.34930  0.29730  0.44130  Biso   1.000  H
  C576     1.0000 0.33942  0.33510  0.53750  Biso   1.000  C
  H547     1.0000 0.30950  0.33240  0.54170  Biso   1.000  H
  C577     1.0000 0.35950  0.35990  0.59110  Biso   1.000  C
  H548     1.0000 0.34340  0.37420  0.63180  Biso   1.000  H
  C578     1.0000 0.40330  0.36396  0.58490  Biso   1.000  C
  H549     1.0000 0.41700  0.38090  0.62150  Biso   1.000  H
  C579     1.0000 0.42686  0.34310  0.52530  Biso   1.000  C
  H550     1.0000 0.45670  0.34590  0.52110  Biso   1.000  H
  C580     1.0000 0.59800  0.26970  0.20370  Biso   1.000  C
  C581     1.0000 0.61930  0.28980  0.26920  Biso   1.000  C
  H551     1.0000 0.61480  0.31350  0.26960  Biso   1.000  H
  C582     1.0000 0.64720  0.27530  0.33430  Biso   1.000  C
  H552     1.0000 0.66180  0.28910  0.37910  Biso   1.000  H
  C583     1.0000 0.65380  0.24070  0.33380  Biso   1.000  C
  H553     1.0000 0.67290  0.23080  0.37820  Biso   1.000  H
  C584     1.0000 0.63250  0.22050  0.26820  Biso   1.000  C
  H554     1.0000 0.63710  0.19680  0.26780  Biso   1.000  H
  C585     1.0000 0.60470  0.23500  0.20310  Biso   1.000  C
  H555     1.0000 0.59010  0.22120  0.15830  Biso   1.000  H
  Ag16     1.0000 0.47519  0.75005  0.01211  Biso   1.000  Ag
  P31      1.0000 0.43842  0.78864  0.90390  Biso   1.000  P
  P32      1.0000 0.56166  0.78808  0.62183  Biso   1.000  P
  N31      1.0000 0.52890  0.71120  0.95480  Biso   1.000  N
  N32      1.0000 0.72130  0.53763  0.81540  Biso   1.000  N
  C586     1.0000 0.52800  0.81440  0.69780  Biso   1.000  C
  H556     1.0000 0.51100  0.82980  0.65730  Biso   1.000  H
  H557     1.0000 0.54610  0.82840  0.74000  Biso   1.000  H
  C587     1.0000 0.49970  0.79379  0.75600  Biso   1.000  C
  H558     1.0000 0.48050  0.78100  0.71320  Biso   1.000  H
  H559     1.0000 0.51680  0.77720  0.79220  Biso   1.000  H
  C588     1.0000 0.47160  0.81510  0.82970  Biso   1.000  C
  H560     1.0000 0.49060  0.82850  0.87110  Biso   1.000  H
  H561     1.0000 0.45340  0.83090  0.79360  Biso   1.000  H
  C589     1.0000 0.56480  0.70700  0.01320  Biso   1.000  C
  H562     1.0000 0.57040  0.72110  0.06640  Biso   1.000  H
  C590     1.0000 0.59170  0.68030  0.98720  Biso   1.000  C
  H563     1.0000 0.61710  0.67710  0.02260  Biso   1.000  H
  C591     1.0000 0.58310  0.65900  0.91370  Biso   1.000  C
  H564     1.0000 0.60220  0.64140  0.89740  Biso   1.000  H
  C592     1.0000 0.54410  0.66390  0.86100  Biso   1.000  C
  H565     1.0000 0.53650  0.64870  0.81130  Biso   1.000  H
  C593     1.0000 0.51840  0.69040  0.88300  Biso   1.000  C
  H566     1.0000 0.49310  0.69410  0.84760  Biso   1.000  H
  C594     1.0000 0.68610  0.54430  0.77620  Biso   1.000  C
  H567     1.0000 0.67720  0.52950  0.72670  Biso   1.000  H
  C595     1.0000 0.65860  0.57140  0.79790  Biso   1.000  C
  H568     1.0000 0.63310  0.57480  0.76300  Biso   1.000  H
  C596     1.0000 0.67020  0.59350  0.87400  Biso   1.000  C
  C597     1.0000 0.70650  0.58680  0.91510  Biso   1.000  C
  H569     1.0000 0.71700  0.60090  0.96450  Biso   1.000  H
  C598     1.0000 0.72860  0.55990  0.88700  Biso   1.000  C
  H570     1.0000 0.75350  0.55570  0.92310  Biso   1.000  H
  C599     1.0000 0.64630  0.62260  0.90040  Biso   1.000  C
  H571     1.0000 0.65650  0.63950  0.94250  Biso   1.000  H
  C600     1.0000 0.61370  0.62330  0.86600  Biso   1.000  C
  H572     1.0000 0.60380  0.60770  0.81950  Biso   1.000  H
  C601     1.0000 0.59400  0.81897  0.55520  Biso   1.000  C
  C602     1.0000 0.57350  0.84300  0.49950  Biso   1.000  C
  H573     1.0000 0.54340  0.84460  0.50070  Biso   1.000  H
  C603     1.0000 0.59700  0.86470  0.44220  Biso   1.000  C
  H574     1.0000 0.58300  0.88110  0.40420  Biso   1.000  H
  C604     1.0000 0.64100  0.86240  0.44050  Biso   1.000  C
  H575     1.0000 0.65700  0.87730  0.40140  Biso   1.000  H
  C605     1.0000 0.66150  0.83840  0.49620  Biso   1.000  C
  H576     1.0000 0.69160  0.83680  0.49500  Biso   1.000  H
  C606     1.0000 0.63800  0.81670  0.55350  Biso   1.000  C
  H577     1.0000 0.65210  0.80020  0.59150  Biso   1.000  H
  C607     1.0000 0.40130  0.77010  0.81640  Biso   1.000  C
  C608     1.0000 0.37950  0.78876  0.74800  Biso   1.000  C
  H578     1.0000 0.38300  0.81250  0.74510  Biso   1.000  H
  C609     1.0000 0.35250  0.77260  0.68410  Biso   1.000  C
  H579     1.0000 0.33760  0.78540  0.63740  Biso   1.000  H
  C610     1.0000 0.34740  0.73780  0.68850  Biso   1.000  C
  H580     1.0000 0.32900  0.72680  0.64480  Biso   1.000  H
  C611     1.0000 0.36920  0.71917  0.75680  Biso   1.000  C
  H581     1.0000 0.36560  0.69540  0.75980  Biso   1.000  H
  C612     1.0000 0.39610  0.73530  0.82070  Biso   1.000  C
  H582     1.0000 0.41100  0.72260  0.86740  Biso   1.000  H
  C613     1.0000 0.40675  0.81831  0.97170  Biso   1.000  C
  C614     1.0000 0.36303  0.81430  0.97790  Biso   1.000  C
  H583     1.0000 0.34930  0.79730  0.94130  Biso   1.000  H
  C615     1.0000 0.33942  0.83510  0.03750  Biso   1.000  C
  H584     1.0000 0.30950  0.83240  0.04170  Biso   1.000  H
  C616     1.0000 0.35950  0.85990  0.09110  Biso   1.000  C
  H585     1.0000 0.34340  0.87420  0.13180  Biso   1.000  H
  C617     1.0000 0.40330  0.86396  0.08490  Biso   1.000  C
  H586     1.0000 0.41700  0.88090  0.12150  Biso   1.000  H
  C618     1.0000 0.42686  0.84310  0.02530  Biso   1.000  C
  H587     1.0000 0.45670  0.84590  0.02110  Biso   1.000  H
  C619     1.0000 0.59800  0.76970  0.70370  Biso   1.000  C
  C620     1.0000 0.61930  0.78980  0.76920  Biso   1.000  C
  H588     1.0000 0.61480  0.81350  0.76960  Biso   1.000  H
  C621     1.0000 0.64720  0.77530  0.83430  Biso   1.000  C
  H589     1.0000 0.66180  0.78910  0.87910  Biso   1.000  H
  C622     1.0000 0.65380  0.74070  0.83380  Biso   1.000  C
  H590     1.0000 0.67290  0.73080  0.87820  Biso   1.000  H
  C623     1.0000 0.63250  0.72050  0.76820  Biso   1.000  C
  H591     1.0000 0.63710  0.69680  0.76780  Biso   1.000  H
  C624     1.0000 0.60470  0.73500  0.70310  Biso   1.000  C
  H592     1.0000 0.59010  0.72120  0.65830  Biso   1.000  H
