data_image0
_cell_length_a       36.155
_cell_length_b       18.566
_cell_length_c       48.725
_cell_angle_alpha    90
_cell_angle_beta     90
_cell_angle_gamma    90

_symmetry_space_group_name_H-M    "P 1"
_symmetry_int_tables_number       1

loop_
  _symmetry_equiv_pos_as_xyz
  'x, y, z'

loop_
  _atom_site_label
  _atom_site_occupancy
  _atom_site_fract_x
  _atom_site_fract_y
  _atom_site_fract_z
  _atom_site_thermal_displace_type
  _atom_site_B_iso_or_equiv
  _atom_site_type_symbol
  Fe1      1.0000 0.98206  0.96567  0.20941  Biso   1.000  Fe
  Fe2      1.0000 0.95751  0.02560  0.27070  Biso   1.000  Fe
  Fe3      1.0000 0.02974  0.09676  0.23795  Biso   1.000  Fe
  Fe4      1.0000 0.20823  0.52080  0.45501  Biso   1.000  Fe
  Fe5      1.0000 0.28390  0.59600  0.48561  Biso   1.000  Fe
  Fe6      1.0000 0.23379  0.46946  0.51647  Biso   1.000  Fe
  O1       1.0000 0.00107  0.01629  0.29871  Biso   1.000  O
  O2       1.0000 0.04576  0.08112  0.27853  Biso   1.000  O
  O3       1.0000 0.20327  0.41571  0.45538  Biso   1.000  O
  O4       1.0000 0.22328  0.37356  0.49452  Biso   1.000  O
  O5       1.0000 0.25177  0.67941  0.47204  Biso   1.000  O
  O6       1.0000 0.20861  0.63077  0.44800  Biso   1.000  O
  O7       1.0000 0.25125  0.50694  0.42643  Biso   1.000  O
  O8       1.0000 0.29711  0.56879  0.44630  Biso   1.000  O
  O9       1.0000 0.45369  0.08230  0.27263  Biso   1.000  O
  O10      1.0000 0.47023  0.13005  0.23353  Biso   1.000  O
  O11      1.0000 0.50138  0.81616  0.24979  Biso   1.000  O
  O12      1.0000 0.45857  0.86698  0.27653  Biso   1.000  O
  O13      1.0000 0.27465  0.62928  0.52378  Biso   1.000  O
  O14      1.0000 0.24223  0.54743  0.54545  Biso   1.000  O
  O15      1.0000 0.46221  0.93319  0.70640  Biso   1.000  O
  O16      1.0000 0.43174  0.01830  0.72749  Biso   1.000  O
  O17      1.0000 0.08748  0.96416  0.74736  Biso   1.000  O
  O18      1.0000 0.07159  0.00944  0.70687  Biso   1.000  O
  O19      1.0000 0.16320  0.53721  0.47786  Biso   1.000  O
  O20      1.0000 0.17792  0.49197  0.51789  Biso   1.000  O
  O21      1.0000 0.00975  0.95833  0.67921  Biso   1.000  O
  O22      1.0000 0.97522  0.87741  0.70010  Biso   1.000  O
  O23      1.0000 0.78857  0.56531  0.52037  Biso   1.000  O
  O24      1.0000 0.81924  0.47812  0.49971  Biso   1.000  O
  O25      1.0000 0.97253  0.89254  0.17640  Biso   1.000  O
  O26      1.0000 0.92338  0.02440  0.30520  Biso   1.000  O
  O27      1.0000 0.07541  0.16560  0.23753  Biso   1.000  O
  O28      1.0000 0.99166  0.02686  0.24053  Biso   1.000  O
  O29      1.0000 0.17281  0.51723  0.42119  Biso   1.000  O
  O30      1.0000 0.22392  0.39991  0.55137  Biso   1.000  O
  O31      1.0000 0.24159  0.52933  0.48545  Biso   1.000  O
  C1       1.0000 0.03230  0.04520  0.29820  Biso   1.000  C
  C2       1.0000 0.05778  0.04210  0.32283  Biso   1.000  C
  C3       1.0000 0.08810  0.08280  0.32597  Biso   1.000  C
  H1       1.0000 0.09310  0.11770  0.31220  Biso   1.000  H
  C4       1.0000 0.11170  0.07830  0.34673  Biso   1.000  C
  H2       1.0000 0.13380  0.10590  0.34680  Biso   1.000  H
  C5       1.0000 0.10297  0.03090  0.36899  Biso   1.000  C
  C6       1.0000 0.07310  0.99050  0.36728  Biso   1.000  C
  H3       1.0000 0.06840  0.95630  0.38130  Biso   1.000  H
  C7       1.0000 0.04727  0.99640  0.34487  Biso   1.000  C
  H4       1.0000 0.02440  0.97110  0.34480  Biso   1.000  H
  C8       1.0000 0.12770  0.02810  0.39448  Biso   1.000  C
  C9       1.0000 0.13982  0.08870  0.40568  Biso   1.000  C
  H5       1.0000 0.13040  0.13320  0.39900  Biso   1.000  H
  C10      1.0000 0.16565  0.09000  0.42674  Biso   1.000  C
  C11      1.0000 0.17887  0.02450  0.43563  Biso   1.000  C
  H6       1.0000 0.19650  0.02340  0.45010  Biso   1.000  H
  C12      1.0000 0.16719  0.95990  0.42409  Biso   1.000  C
  C13      1.0000 0.13955  0.96140  0.40301  Biso   1.000  C
  H7       1.0000 0.12990  0.91830  0.39530  Biso   1.000  H
  C14      1.0000 0.17571  0.15780  0.43942  Biso   1.000  C
  C15      1.0000 0.18211  0.22340  0.42291  Biso   1.000  C
  H8       1.0000 0.17820  0.22070  0.40370  Biso   1.000  H
  C16      1.0000 0.19316  0.28670  0.43353  Biso   1.000  C
  H9       1.0000 0.19610  0.32740  0.42190  Biso   1.000  H
  C17      1.0000 0.20001  0.29220  0.46027  Biso   1.000  C
  C18      1.0000 0.19990  0.23150  0.47578  Biso   1.000  C
  H10      1.0000 0.20570  0.23570  0.49470  Biso   1.000  H
  C19      1.0000 0.19213  0.16640  0.46583  Biso   1.000  C
  H11      1.0000 0.19760  0.12500  0.47650  Biso   1.000  H
  C20      1.0000 0.21090  0.36510  0.47078  Biso   1.000  C
  C21      1.0000 0.18113  0.88930  0.43396  Biso   1.000  C
  C22      1.0000 0.21041  0.88180  0.44927  Biso   1.000  C
  H12      1.0000 0.22130  0.92420  0.45660  Biso   1.000  H
  C23      1.0000 0.22697  0.81590  0.45577  Biso   1.000  C
  H13      1.0000 0.25010  0.81490  0.46490  Biso   1.000  H
  C24      1.0000 0.20994  0.75380  0.44897  Biso   1.000  C
  C25      1.0000 0.17643  0.75840  0.43470  Biso   1.000  C
  H14      1.0000 0.16580  0.71680  0.42650  Biso   1.000  H
  C26      1.0000 0.15834  0.82750  0.43272  Biso   1.000  C
  H15      1.0000 0.13230  0.83120  0.43070  Biso   1.000  H
  C27      1.0000 0.22494  0.68320  0.45704  Biso   1.000  C
  C28      1.0000 0.28328  0.53200  0.42782  Biso   1.000  C
  C29      1.0000 0.30849  0.51120  0.40448  Biso   1.000  C
  C30      1.0000 0.29917  0.46330  0.38452  Biso   1.000  C
  H16      1.0000 0.27650  0.43760  0.38590  Biso   1.000  H
  C31      1.0000 0.32235  0.45120  0.36219  Biso   1.000  C
  H17      1.0000 0.31450  0.42020  0.34780  Biso   1.000  H
  C32      1.0000 0.35652  0.48390  0.36074  Biso   1.000  C
  C33      1.0000 0.36649  0.53010  0.38068  Biso   1.000  C
  H18      1.0000 0.38960  0.55430  0.37940  Biso   1.000  H
  C34      1.0000 0.34380  0.54300  0.40294  Biso   1.000  C
  H19      1.0000 0.35210  0.57360  0.41730  Biso   1.000  H
  C35      1.0000 0.38123  0.47920  0.33733  Biso   1.000  C
  C36      1.0000 0.38992  0.41180  0.32474  Biso   1.000  C
  H20      1.0000 0.38060  0.36860  0.33260  Biso   1.000  H
  C37      1.0000 0.41217  0.40790  0.30069  Biso   1.000  C
  C38      1.0000 0.42454  0.47370  0.28849  Biso   1.000  C
  H21      1.0000 0.44010  0.47180  0.27280  Biso   1.000  H
  C39      1.0000 0.41420  0.54140  0.29927  Biso   1.000  C
  C40      1.0000 0.39591  0.54050  0.32572  Biso   1.000  C
  H22      1.0000 0.39390  0.58450  0.33560  Biso   1.000  H
  C41      1.0000 0.42520  0.33760  0.28992  Biso   1.000  C
  C42      1.0000 0.42452  0.28170  0.30644  Biso   1.000  C
  H23      1.0000 0.41680  0.28630  0.32500  Biso   1.000  H
  C43      1.0000 0.43621  0.21130  0.29516  Biso   1.000  C
  H24      1.0000 0.43620  0.17010  0.30670  Biso   1.000  H
  C44      1.0000 0.44725  0.20410  0.26786  Biso   1.000  C
  C45      1.0000 0.44695  0.26400  0.25184  Biso   1.000  C
  H25      1.0000 0.45650  0.26090  0.23370  Biso   1.000  H
  C46      1.0000 0.43291  0.33150  0.26121  Biso   1.000  C
  H26      1.0000 0.42890  0.37050  0.24900  Biso   1.000  H
  C47      1.0000 0.45737  0.13290  0.25647  Biso   1.000  C
  C48      1.0000 0.43199  0.60900  0.29112  Biso   1.000  C
  C49      1.0000 0.46698  0.61560  0.27819  Biso   1.000  C
  H27      1.0000 0.48210  0.57410  0.27620  Biso   1.000  H
  C50      1.0000 0.47915  0.67950  0.26869  Biso   1.000  C
  H28      1.0000 0.50160  0.68120  0.25860  Biso   1.000  H
  C51      1.0000 0.46019  0.74140  0.27313  Biso   1.000  C
  C52      1.0000 0.42153  0.73710  0.28165  Biso   1.000  C
  H29      1.0000 0.40430  0.77490  0.27840  Biso   1.000  H
  C53      1.0000 0.41198  0.67430  0.29470  Biso   1.000  C
  H30      1.0000 0.39120  0.67440  0.30660  Biso   1.000  H
  C54      1.0000 0.47350  0.81450  0.26629  Biso   1.000  C
  C55      1.0000 0.25742  0.60750  0.54420  Biso   1.000  C
  C56      1.0000 0.25687  0.65430  0.56817  Biso   1.000  C
  C57      1.0000 0.27919  0.71580  0.56851  Biso   1.000  C
  H31      1.0000 0.29300  0.72980  0.55280  Biso   1.000  H
  C58      1.0000 0.28040  0.75650  0.59325  Biso   1.000  C
  H32      1.0000 0.29770  0.79470  0.59490  Biso   1.000  H
  C59      1.0000 0.25674  0.74170  0.61523  Biso   1.000  C
  C60      1.0000 0.23259  0.68560  0.61310  Biso   1.000  C
  H33      1.0000 0.21530  0.67610  0.62730  Biso   1.000  H
  C61      1.0000 0.23370  0.64230  0.58962  Biso   1.000  C
  H34      1.0000 0.21740  0.60230  0.58860  Biso   1.000  H
  C62      1.0000 0.25700  0.79000  0.63991  Biso   1.000  C
  C63      1.0000 0.29298  0.81490  0.64988  Biso   1.000  C
  H35      1.0000 0.31530  0.80140  0.64090  Biso   1.000  H
  C64      1.0000 0.29340  0.85850  0.67280  Biso   1.000  C
  C65      1.0000 0.25952  0.88000  0.68509  Biso   1.000  C
  H36      1.0000 0.25990  0.90900  0.70120  Biso   1.000  H
  C66      1.0000 0.22697  0.85990  0.67421  Biso   1.000  C
  C67      1.0000 0.22526  0.81550  0.65095  Biso   1.000  C
  H37      1.0000 0.20210  0.80350  0.64300  Biso   1.000  H
  C68      1.0000 0.32929  0.88530  0.68331  Biso   1.000  C
  C69      1.0000 0.36145  0.84420  0.67999  Biso   1.000  C
  H38      1.0000 0.36040  0.79750  0.67210  Biso   1.000  H
  C70      1.0000 0.39473  0.87310  0.68844  Biso   1.000  C
  H39      1.0000 0.41680  0.84830  0.68360  Biso   1.000  H
  C71      1.0000 0.39783  0.93450  0.70317  Biso   1.000  C
  C72      1.0000 0.36593  0.97780  0.70412  Biso   1.000  C
  H40      1.0000 0.36760  0.02660  0.70980  Biso   1.000  H
  C73      1.0000 0.33243  0.94900  0.69684  Biso   1.000  C
  H41      1.0000 0.31050  0.97460  0.70140  Biso   1.000  H
  C74      1.0000 0.43449  0.96270  0.71273  Biso   1.000  C
  C75      1.0000 0.19069  0.88700  0.68768  Biso   1.000  C
  C76      1.0000 0.18728  0.89260  0.71492  Biso   1.000  C
  H42      1.0000 0.20700  0.87670  0.72630  Biso   1.000  H
  C77      1.0000 0.15614  0.92080  0.72685  Biso   1.000  C
  H43      1.0000 0.15440  0.92290  0.74630  Biso   1.000  H
  C78      1.0000 0.12693  0.94630  0.71087  Biso   1.000  C
  C79      1.0000 0.13181  0.94150  0.68229  Biso   1.000  C
  H44      1.0000 0.11340  0.96090  0.67060  Biso   1.000  H
  C80      1.0000 0.16213  0.90990  0.67089  Biso   1.000  C
  H45      1.0000 0.16370  0.90370  0.65160  Biso   1.000  H
  C81      1.0000 0.09339  0.97860  0.72296  Biso   1.000  C
  C82      1.0000 0.15783  0.52710  0.50321  Biso   1.000  C
  C83      1.0000 0.12371  0.55850  0.51532  Biso   1.000  C
  C84      1.0000 0.12015  0.56490  0.54268  Biso   1.000  C
  H46      1.0000 0.13950  0.54930  0.55440  Biso   1.000  H
  C85      1.0000 0.08846  0.59400  0.55369  Biso   1.000  C
  H47      1.0000 0.08730  0.59970  0.57300  Biso   1.000  H
  C86      1.0000 0.05853  0.61530  0.53854  Biso   1.000  C
  C87      1.0000 0.06344  0.61210  0.50965  Biso   1.000  C
  H48      1.0000 0.04490  0.63050  0.49770  Biso   1.000  H
  C88      1.0000 0.09537  0.58220  0.49911  Biso   1.000  C
  H49      1.0000 0.09770  0.57780  0.47980  Biso   1.000  H
  C89      1.0000 0.02532  0.64760  0.54882  Biso   1.000  C
  C90      1.0000 0.02514  0.69390  0.57106  Biso   1.000  C
  H50      1.0000 0.04820  0.71210  0.57740  Biso   1.000  H
  C91      1.0000 0.99297  0.71550  0.58469  Biso   1.000  C
  C92      1.0000 0.95976  0.69320  0.57328  Biso   1.000  C
  H51      1.0000 0.93740  0.71100  0.58090  Biso   1.000  H
  C93      1.0000 0.95763  0.64630  0.55126  Biso   1.000  C
  C94      1.0000 0.99041  0.62190  0.53957  Biso   1.000  C
  H52      1.0000 0.98950  0.58760  0.52510  Biso   1.000  H
  C95      1.0000 0.99340  0.76240  0.60966  Biso   1.000  C
  C96      1.0000 0.01685  0.82300  0.61118  Biso   1.000  C
  H53      1.0000 0.03350  0.83200  0.59650  Biso   1.000  H
  C97      1.0000 0.01651  0.86950  0.63317  Biso   1.000  C
  H54      1.0000 0.03170  0.91120  0.63320  Biso   1.000  H
  C98      1.0000 0.99362  0.85460  0.65529  Biso   1.000  C
  C99      1.0000 0.96993  0.79760  0.65261  Biso   1.000  C
  H55      1.0000 0.95210  0.79000  0.66670  Biso   1.000  H
  C100     1.0000 0.97030  0.75170  0.63136  Biso   1.000  C
  H56      1.0000 0.95430  0.71110  0.63140  Biso   1.000  H
  C101     1.0000 0.99254  0.90020  0.67983  Biso   1.000  C
  C102     1.0000 0.92198  0.62080  0.54069  Biso   1.000  C
  C103     1.0000 0.88856  0.65650  0.54471  Biso   1.000  C
  H57      1.0000 0.88880  0.69960  0.55520  Biso   1.000  H
  C104     1.0000 0.85482  0.63290  0.53431  Biso   1.000  C
  H58      1.0000 0.83350  0.66250  0.53540  Biso   1.000  H
  C105     1.0000 0.85298  0.56510  0.52239  Biso   1.000  C
  C106     1.0000 0.88671  0.53020  0.51535  Biso   1.000  C
  H59      1.0000 0.88700  0.49170  0.50250  Biso   1.000  H
  C107     1.0000 0.91984  0.55430  0.52794  Biso   1.000  C
  H60      1.0000 0.94110  0.52420  0.52760  Biso   1.000  H
  C108     1.0000 0.81812  0.53440  0.51319  Biso   1.000  C
  Co1      1.0000 0.98400  0.95522  0.20956  Biso   1.000  Co
  Co2      1.0000 0.96263  0.02440  0.27041  Biso   1.000  Co
  Co3      1.0000 0.03320  0.08672  0.24133  Biso   1.000  Co
  Co4      1.0000 0.21279  0.52580  0.45504  Biso   1.000  Co
  Co5      1.0000 0.27835  0.58740  0.48480  Biso   1.000  Co
  Co6      1.0000 0.23360  0.45820  0.51749  Biso   1.000  Co
  Fe7      1.0000 0.01794  0.03433  0.70941  Biso   1.000  Fe
  Fe8      1.0000 0.04249  0.97440  0.77070  Biso   1.000  Fe
  Fe9      1.0000 0.97026  0.90324  0.73795  Biso   1.000  Fe
  Fe10     1.0000 0.79177  0.47920  0.95501  Biso   1.000  Fe
  Fe11     1.0000 0.71610  0.40400  0.98561  Biso   1.000  Fe
  Fe12     1.0000 0.76621  0.53054  0.01647  Biso   1.000  Fe
  O32      1.0000 0.99893  0.98371  0.79871  Biso   1.000  O
  O33      1.0000 0.95424  0.91888  0.77853  Biso   1.000  O
  O34      1.0000 0.79673  0.58429  0.95538  Biso   1.000  O
  O35      1.0000 0.77672  0.62644  0.99452  Biso   1.000  O
  O36      1.0000 0.74823  0.32059  0.97204  Biso   1.000  O
  O37      1.0000 0.79139  0.36923  0.94800  Biso   1.000  O
  O38      1.0000 0.74875  0.49306  0.92643  Biso   1.000  O
  O39      1.0000 0.70289  0.43121  0.94630  Biso   1.000  O
  O40      1.0000 0.54631  0.91770  0.77263  Biso   1.000  O
  O41      1.0000 0.52977  0.86995  0.73353  Biso   1.000  O
  O42      1.0000 0.49862  0.18384  0.74979  Biso   1.000  O
  O43      1.0000 0.54143  0.13302  0.77653  Biso   1.000  O
  O44      1.0000 0.72535  0.37072  0.02378  Biso   1.000  O
  O45      1.0000 0.75777  0.45257  0.04545  Biso   1.000  O
  O46      1.0000 0.53779  0.06681  0.20640  Biso   1.000  O
  O47      1.0000 0.56826  0.98170  0.22749  Biso   1.000  O
  O48      1.0000 0.91252  0.03584  0.24736  Biso   1.000  O
  O49      1.0000 0.92841  0.99056  0.20687  Biso   1.000  O
  O50      1.0000 0.83680  0.46279  0.97786  Biso   1.000  O
  O51      1.0000 0.82208  0.50803  0.01789  Biso   1.000  O
  O52      1.0000 0.99025  0.04167  0.17921  Biso   1.000  O
  O53      1.0000 0.02478  0.12259  0.20010  Biso   1.000  O
  O54      1.0000 0.21143  0.43469  0.02037  Biso   1.000  O
  O55      1.0000 0.18076  0.52188  0.99971  Biso   1.000  O
  O56      1.0000 0.02747  0.10746  0.67640  Biso   1.000  O
  O57      1.0000 0.07662  0.97560  0.80520  Biso   1.000  O
  O58      1.0000 0.92459  0.83440  0.73753  Biso   1.000  O
  O59      1.0000 0.00834  0.97314  0.74053  Biso   1.000  O
  O60      1.0000 0.82719  0.48277  0.92119  Biso   1.000  O
  O61      1.0000 0.77608  0.60009  0.05137  Biso   1.000  O
  O62      1.0000 0.75841  0.47067  0.98545  Biso   1.000  O
  C109     1.0000 0.96770  0.95480  0.79820  Biso   1.000  C
  C110     1.0000 0.94222  0.95790  0.82283  Biso   1.000  C
  C111     1.0000 0.91190  0.91720  0.82597  Biso   1.000  C
  H61      1.0000 0.90690  0.88230  0.81220  Biso   1.000  H
  C112     1.0000 0.88830  0.92170  0.84673  Biso   1.000  C
  H62      1.0000 0.86620  0.89410  0.84680  Biso   1.000  H
  C113     1.0000 0.89703  0.96910  0.86899  Biso   1.000  C
  C114     1.0000 0.92690  0.00950  0.86728  Biso   1.000  C
  H63      1.0000 0.93160  0.04370  0.88130  Biso   1.000  H
  C115     1.0000 0.95273  0.00360  0.84487  Biso   1.000  C
  H64      1.0000 0.97560  0.02890  0.84480  Biso   1.000  H
  C116     1.0000 0.87230  0.97190  0.89448  Biso   1.000  C
  C117     1.0000 0.86018  0.91130  0.90568  Biso   1.000  C
  H65      1.0000 0.86960  0.86680  0.89900  Biso   1.000  H
  C118     1.0000 0.83435  0.91000  0.92674  Biso   1.000  C
  C119     1.0000 0.82113  0.97550  0.93563  Biso   1.000  C
  H66      1.0000 0.80350  0.97660  0.95010  Biso   1.000  H
  C120     1.0000 0.83281  0.04010  0.92409  Biso   1.000  C
  C121     1.0000 0.86045  0.03860  0.90301  Biso   1.000  C
  H67      1.0000 0.87010  0.08170  0.89530  Biso   1.000  H
  C122     1.0000 0.82429  0.84220  0.93942  Biso   1.000  C
  C123     1.0000 0.81789  0.77660  0.92291  Biso   1.000  C
  H68      1.0000 0.82180  0.77930  0.90370  Biso   1.000  H
  C124     1.0000 0.80684  0.71330  0.93353  Biso   1.000  C
  H69      1.0000 0.80390  0.67260  0.92190  Biso   1.000  H
  C125     1.0000 0.79999  0.70780  0.96027  Biso   1.000  C
  C126     1.0000 0.80010  0.76850  0.97578  Biso   1.000  C
  H70      1.0000 0.79430  0.76430  0.99470  Biso   1.000  H
  C127     1.0000 0.80787  0.83360  0.96583  Biso   1.000  C
  H71      1.0000 0.80240  0.87500  0.97650  Biso   1.000  H
  C128     1.0000 0.78910  0.63490  0.97078  Biso   1.000  C
  C129     1.0000 0.81887  0.11070  0.93396  Biso   1.000  C
  C130     1.0000 0.78959  0.11820  0.94927  Biso   1.000  C
  H72      1.0000 0.77870  0.07580  0.95660  Biso   1.000  H
  C131     1.0000 0.77303  0.18410  0.95577  Biso   1.000  C
  H73      1.0000 0.74990  0.18510  0.96490  Biso   1.000  H
  C132     1.0000 0.79006  0.24620  0.94897  Biso   1.000  C
  C133     1.0000 0.82357  0.24160  0.93470  Biso   1.000  C
  H74      1.0000 0.83420  0.28320  0.92650  Biso   1.000  H
  C134     1.0000 0.84166  0.17250  0.93272  Biso   1.000  C
  H75      1.0000 0.86770  0.16880  0.93070  Biso   1.000  H
  C135     1.0000 0.77506  0.31680  0.95704  Biso   1.000  C
  C136     1.0000 0.71672  0.46800  0.92782  Biso   1.000  C
  C137     1.0000 0.69151  0.48880  0.90448  Biso   1.000  C
  C138     1.0000 0.70083  0.53670  0.88452  Biso   1.000  C
  H76      1.0000 0.72350  0.56240  0.88590  Biso   1.000  H
  C139     1.0000 0.67765  0.54880  0.86219  Biso   1.000  C
  H77      1.0000 0.68550  0.57980  0.84780  Biso   1.000  H
  C140     1.0000 0.64348  0.51610  0.86074  Biso   1.000  C
  C141     1.0000 0.63351  0.46990  0.88068  Biso   1.000  C
  H78      1.0000 0.61040  0.44570  0.87940  Biso   1.000  H
  C142     1.0000 0.65620  0.45700  0.90294  Biso   1.000  C
  H79      1.0000 0.64790  0.42640  0.91730  Biso   1.000  H
  C143     1.0000 0.61877  0.52080  0.83733  Biso   1.000  C
  C144     1.0000 0.61008  0.58820  0.82474  Biso   1.000  C
  H80      1.0000 0.61940  0.63140  0.83260  Biso   1.000  H
  C145     1.0000 0.58783  0.59210  0.80069  Biso   1.000  C
  C146     1.0000 0.57546  0.52630  0.78849  Biso   1.000  C
  H81      1.0000 0.55990  0.52820  0.77280  Biso   1.000  H
  C147     1.0000 0.58580  0.45860  0.79927  Biso   1.000  C
  C148     1.0000 0.60409  0.45950  0.82572  Biso   1.000  C
  H82      1.0000 0.60610  0.41550  0.83560  Biso   1.000  H
  C149     1.0000 0.57480  0.66240  0.78992  Biso   1.000  C
  C150     1.0000 0.57548  0.71830  0.80644  Biso   1.000  C
  H83      1.0000 0.58320  0.71370  0.82500  Biso   1.000  H
  C151     1.0000 0.56379  0.78870  0.79516  Biso   1.000  C
  H84      1.0000 0.56380  0.82990  0.80670  Biso   1.000  H
  C152     1.0000 0.55275  0.79590  0.76786  Biso   1.000  C
  C153     1.0000 0.55305  0.73600  0.75184  Biso   1.000  C
  H85      1.0000 0.54350  0.73910  0.73370  Biso   1.000  H
  C154     1.0000 0.56709  0.66850  0.76121  Biso   1.000  C
  H86      1.0000 0.57110  0.62950  0.74900  Biso   1.000  H
  C155     1.0000 0.54263  0.86710  0.75647  Biso   1.000  C
  C156     1.0000 0.56801  0.39100  0.79112  Biso   1.000  C
  C157     1.0000 0.53302  0.38440  0.77819  Biso   1.000  C
  H87      1.0000 0.51790  0.42590  0.77620  Biso   1.000  H
  C158     1.0000 0.52085  0.32050  0.76869  Biso   1.000  C
  H88      1.0000 0.49840  0.31880  0.75860  Biso   1.000  H
  C159     1.0000 0.53981  0.25860  0.77313  Biso   1.000  C
  C160     1.0000 0.57847  0.26290  0.78165  Biso   1.000  C
  H89      1.0000 0.59570  0.22510  0.77840  Biso   1.000  H
  C161     1.0000 0.58802  0.32570  0.79470  Biso   1.000  C
  H90      1.0000 0.60880  0.32560  0.80660  Biso   1.000  H
  C162     1.0000 0.52650  0.18550  0.76629  Biso   1.000  C
  C163     1.0000 0.74258  0.39250  0.04420  Biso   1.000  C
  C164     1.0000 0.74313  0.34570  0.06817  Biso   1.000  C
  C165     1.0000 0.72081  0.28420  0.06851  Biso   1.000  C
  H91      1.0000 0.70700  0.27020  0.05280  Biso   1.000  H
  C166     1.0000 0.71960  0.24350  0.09325  Biso   1.000  C
  H92      1.0000 0.70230  0.20530  0.09490  Biso   1.000  H
  C167     1.0000 0.74326  0.25830  0.11523  Biso   1.000  C
  C168     1.0000 0.76741  0.31440  0.11310  Biso   1.000  C
  H93      1.0000 0.78470  0.32390  0.12730  Biso   1.000  H
  C169     1.0000 0.76630  0.35770  0.08962  Biso   1.000  C
  H94      1.0000 0.78260  0.39770  0.08860  Biso   1.000  H
  C170     1.0000 0.74300  0.21000  0.13991  Biso   1.000  C
  C171     1.0000 0.70702  0.18510  0.14988  Biso   1.000  C
  H95      1.0000 0.68470  0.19860  0.14090  Biso   1.000  H
  C172     1.0000 0.70660  0.14150  0.17280  Biso   1.000  C
  C173     1.0000 0.74048  0.12000  0.18509  Biso   1.000  C
  H96      1.0000 0.74010  0.09100  0.20120  Biso   1.000  H
  C174     1.0000 0.77303  0.14010  0.17421  Biso   1.000  C
  C175     1.0000 0.77474  0.18450  0.15095  Biso   1.000  C
  H97      1.0000 0.79790  0.19650  0.14300  Biso   1.000  H
  C176     1.0000 0.67071  0.11470  0.18331  Biso   1.000  C
  C177     1.0000 0.63855  0.15580  0.17999  Biso   1.000  C
  H98      1.0000 0.63960  0.20250  0.17210  Biso   1.000  H
  C178     1.0000 0.60527  0.12690  0.18844  Biso   1.000  C
  H99      1.0000 0.58320  0.15170  0.18360  Biso   1.000  H
  C179     1.0000 0.60217  0.06550  0.20317  Biso   1.000  C
  C180     1.0000 0.63407  0.02220  0.20412  Biso   1.000  C
  H100     1.0000 0.63240  0.97340  0.20980  Biso   1.000  H
  C181     1.0000 0.66757  0.05100  0.19684  Biso   1.000  C
  H101     1.0000 0.68950  0.02540  0.20140  Biso   1.000  H
  C182     1.0000 0.56551  0.03730  0.21273  Biso   1.000  C
  C183     1.0000 0.80931  0.11300  0.18768  Biso   1.000  C
  C184     1.0000 0.81272  0.10740  0.21492  Biso   1.000  C
  H102     1.0000 0.79300  0.12330  0.22630  Biso   1.000  H
  C185     1.0000 0.84386  0.07920  0.22685  Biso   1.000  C
  H103     1.0000 0.84560  0.07710  0.24630  Biso   1.000  H
  C186     1.0000 0.87307  0.05370  0.21087  Biso   1.000  C
  C187     1.0000 0.86819  0.05850  0.18229  Biso   1.000  C
  H104     1.0000 0.88660  0.03910  0.17060  Biso   1.000  H
  C188     1.0000 0.83787  0.09010  0.17089  Biso   1.000  C
  H105     1.0000 0.83630  0.09630  0.15160  Biso   1.000  H
  C189     1.0000 0.90661  0.02140  0.22296  Biso   1.000  C
  C190     1.0000 0.84217  0.47290  0.00321  Biso   1.000  C
  C191     1.0000 0.87629  0.44150  0.01532  Biso   1.000  C
  C192     1.0000 0.87985  0.43510  0.04268  Biso   1.000  C
  H106     1.0000 0.86050  0.45070  0.05440  Biso   1.000  H
  C193     1.0000 0.91154  0.40600  0.05369  Biso   1.000  C
  H107     1.0000 0.91270  0.40030  0.07300  Biso   1.000  H
  C194     1.0000 0.94147  0.38470  0.03854  Biso   1.000  C
  C195     1.0000 0.93656  0.38790  0.00965  Biso   1.000  C
  H108     1.0000 0.95510  0.36950  0.99770  Biso   1.000  H
  C196     1.0000 0.90463  0.41780  0.99911  Biso   1.000  C
  H109     1.0000 0.90230  0.42220  0.97980  Biso   1.000  H
  C197     1.0000 0.97468  0.35240  0.04882  Biso   1.000  C
  C198     1.0000 0.97486  0.30610  0.07106  Biso   1.000  C
  H110     1.0000 0.95180  0.28790  0.07740  Biso   1.000  H
  C199     1.0000 0.00703  0.28450  0.08469  Biso   1.000  C
  C200     1.0000 0.04024  0.30680  0.07328  Biso   1.000  C
  H111     1.0000 0.06260  0.28900  0.08090  Biso   1.000  H
  C201     1.0000 0.04237  0.35370  0.05126  Biso   1.000  C
  C202     1.0000 0.00959  0.37810  0.03957  Biso   1.000  C
  H112     1.0000 0.01050  0.41240  0.02510  Biso   1.000  H
  C203     1.0000 0.00660  0.23760  0.10966  Biso   1.000  C
  C204     1.0000 0.98315  0.17700  0.11118  Biso   1.000  C
  H113     1.0000 0.96650  0.16800  0.09650  Biso   1.000  H
  C205     1.0000 0.98349  0.13050  0.13317  Biso   1.000  C
  H114     1.0000 0.96830  0.08880  0.13320  Biso   1.000  H
  C206     1.0000 0.00638  0.14540  0.15529  Biso   1.000  C
  C207     1.0000 0.03007  0.20240  0.15261  Biso   1.000  C
  H115     1.0000 0.04790  0.21000  0.16670  Biso   1.000  H
  C208     1.0000 0.02970  0.24830  0.13136  Biso   1.000  C
  H116     1.0000 0.04570  0.28890  0.13140  Biso   1.000  H
  C209     1.0000 0.00746  0.09980  0.17983  Biso   1.000  C
  C210     1.0000 0.07802  0.37920  0.04069  Biso   1.000  C
  C211     1.0000 0.11144  0.34350  0.04471  Biso   1.000  C
  H117     1.0000 0.11120  0.30040  0.05520  Biso   1.000  H
  C212     1.0000 0.14518  0.36710  0.03431  Biso   1.000  C
  H118     1.0000 0.16650  0.33750  0.03540  Biso   1.000  H
  C213     1.0000 0.14702  0.43490  0.02239  Biso   1.000  C
  C214     1.0000 0.11329  0.46980  0.01535  Biso   1.000  C
  H119     1.0000 0.11300  0.50830  0.00250  Biso   1.000  H
  C215     1.0000 0.08016  0.44570  0.02794  Biso   1.000  C
  H120     1.0000 0.05890  0.47580  0.02760  Biso   1.000  H
  C216     1.0000 0.18188  0.46560  0.01319  Biso   1.000  C
  Co7      1.0000 0.01600  0.04478  0.70956  Biso   1.000  Co
  Co8      1.0000 0.03737  0.97560  0.77041  Biso   1.000  Co
  Co9      1.0000 0.96680  0.91328  0.74133  Biso   1.000  Co
  Co10     1.0000 0.78721  0.47420  0.95504  Biso   1.000  Co
  Co11     1.0000 0.72165  0.41260  0.98480  Biso   1.000  Co
  Co12     1.0000 0.76640  0.54180  0.01749  Biso   1.000  Co
  Fe13     1.0000 0.48206  0.03433  0.20941  Biso   1.000  Fe
  Fe14     1.0000 0.45751  0.97440  0.27070  Biso   1.000  Fe
  Fe15     1.0000 0.52974  0.90324  0.23795  Biso   1.000  Fe
  Fe16     1.0000 0.70823  0.47920  0.45501  Biso   1.000  Fe
  Fe17     1.0000 0.78390  0.40400  0.48561  Biso   1.000  Fe
  Fe18     1.0000 0.73379  0.53054  0.51647  Biso   1.000  Fe
  O63      1.0000 0.50107  0.98371  0.29871  Biso   1.000  O
  O64      1.0000 0.54576  0.91888  0.27853  Biso   1.000  O
  O65      1.0000 0.70327  0.58429  0.45538  Biso   1.000  O
  O66      1.0000 0.72328  0.62644  0.49452  Biso   1.000  O
  O67      1.0000 0.75177  0.32059  0.47204  Biso   1.000  O
  O68      1.0000 0.70861  0.36923  0.44800  Biso   1.000  O
  O69      1.0000 0.75125  0.49306  0.42643  Biso   1.000  O
  O70      1.0000 0.79711  0.43121  0.44630  Biso   1.000  O
  O71      1.0000 0.95369  0.91770  0.27263  Biso   1.000  O
  O72      1.0000 0.97023  0.86995  0.23353  Biso   1.000  O
  O73      1.0000 0.00138  0.18384  0.24979  Biso   1.000  O
  O74      1.0000 0.95857  0.13302  0.27653  Biso   1.000  O
  O75      1.0000 0.77465  0.37072  0.52378  Biso   1.000  O
  O76      1.0000 0.74223  0.45257  0.54545  Biso   1.000  O
  O77      1.0000 0.96221  0.06681  0.70640  Biso   1.000  O
  O78      1.0000 0.93174  0.98170  0.72749  Biso   1.000  O
  O79      1.0000 0.58748  0.03584  0.74736  Biso   1.000  O
  O80      1.0000 0.57159  0.99056  0.70687  Biso   1.000  O
  O81      1.0000 0.66320  0.46279  0.47786  Biso   1.000  O
  O82      1.0000 0.67792  0.50803  0.51789  Biso   1.000  O
  O83      1.0000 0.50975  0.04167  0.67921  Biso   1.000  O
  O84      1.0000 0.47522  0.12259  0.70010  Biso   1.000  O
  O85      1.0000 0.28857  0.43469  0.52037  Biso   1.000  O
  O86      1.0000 0.31924  0.52188  0.49971  Biso   1.000  O
  O87      1.0000 0.47253  0.10746  0.17640  Biso   1.000  O
  O88      1.0000 0.42338  0.97560  0.30520  Biso   1.000  O
  O89      1.0000 0.57541  0.83440  0.23753  Biso   1.000  O
  O90      1.0000 0.49166  0.97314  0.24053  Biso   1.000  O
  O91      1.0000 0.67281  0.48277  0.42119  Biso   1.000  O
  O92      1.0000 0.72392  0.60009  0.55137  Biso   1.000  O
  O93      1.0000 0.74159  0.47067  0.48545  Biso   1.000  O
  C217     1.0000 0.53230  0.95480  0.29820  Biso   1.000  C
  C218     1.0000 0.55778  0.95790  0.32283  Biso   1.000  C
  C219     1.0000 0.58810  0.91720  0.32597  Biso   1.000  C
  H121     1.0000 0.59310  0.88230  0.31220  Biso   1.000  H
  C220     1.0000 0.61170  0.92170  0.34673  Biso   1.000  C
  H122     1.0000 0.63380  0.89410  0.34680  Biso   1.000  H
  C221     1.0000 0.60297  0.96910  0.36899  Biso   1.000  C
  C222     1.0000 0.57310  0.00950  0.36728  Biso   1.000  C
  H123     1.0000 0.56840  0.04370  0.38130  Biso   1.000  H
  C223     1.0000 0.54727  0.00360  0.34487  Biso   1.000  C
  H124     1.0000 0.52440  0.02890  0.34480  Biso   1.000  H
  C224     1.0000 0.62770  0.97190  0.39448  Biso   1.000  C
  C225     1.0000 0.63982  0.91130  0.40568  Biso   1.000  C
  H125     1.0000 0.63040  0.86680  0.39900  Biso   1.000  H
  C226     1.0000 0.66565  0.91000  0.42674  Biso   1.000  C
  C227     1.0000 0.67887  0.97550  0.43563  Biso   1.000  C
  H126     1.0000 0.69650  0.97660  0.45010  Biso   1.000  H
  C228     1.0000 0.66719  0.04010  0.42409  Biso   1.000  C
  C229     1.0000 0.63955  0.03860  0.40301  Biso   1.000  C
  H127     1.0000 0.62990  0.08170  0.39530  Biso   1.000  H
  C230     1.0000 0.67571  0.84220  0.43942  Biso   1.000  C
  C231     1.0000 0.68211  0.77660  0.42291  Biso   1.000  C
  H128     1.0000 0.67820  0.77930  0.40370  Biso   1.000  H
  C232     1.0000 0.69316  0.71330  0.43353  Biso   1.000  C
  H129     1.0000 0.69610  0.67260  0.42190  Biso   1.000  H
  C233     1.0000 0.70001  0.70780  0.46027  Biso   1.000  C
  C234     1.0000 0.69990  0.76850  0.47578  Biso   1.000  C
  H130     1.0000 0.70570  0.76430  0.49470  Biso   1.000  H
  C235     1.0000 0.69213  0.83360  0.46583  Biso   1.000  C
  H131     1.0000 0.69760  0.87500  0.47650  Biso   1.000  H
  C236     1.0000 0.71090  0.63490  0.47078  Biso   1.000  C
  C237     1.0000 0.68113  0.11070  0.43396  Biso   1.000  C
  C238     1.0000 0.71041  0.11820  0.44927  Biso   1.000  C
  H132     1.0000 0.72130  0.07580  0.45660  Biso   1.000  H
  C239     1.0000 0.72697  0.18410  0.45577  Biso   1.000  C
  H133     1.0000 0.75010  0.18510  0.46490  Biso   1.000  H
  C240     1.0000 0.70994  0.24620  0.44897  Biso   1.000  C
  C241     1.0000 0.67643  0.24160  0.43470  Biso   1.000  C
  H134     1.0000 0.66580  0.28320  0.42650  Biso   1.000  H
  C242     1.0000 0.65834  0.17250  0.43272  Biso   1.000  C
  H135     1.0000 0.63230  0.16880  0.43070  Biso   1.000  H
  C243     1.0000 0.72494  0.31680  0.45704  Biso   1.000  C
  C244     1.0000 0.78328  0.46800  0.42782  Biso   1.000  C
  C245     1.0000 0.80849  0.48880  0.40448  Biso   1.000  C
  C246     1.0000 0.79917  0.53670  0.38452  Biso   1.000  C
  H136     1.0000 0.77650  0.56240  0.38590  Biso   1.000  H
  C247     1.0000 0.82235  0.54880  0.36219  Biso   1.000  C
  H137     1.0000 0.81450  0.57980  0.34780  Biso   1.000  H
  C248     1.0000 0.85652  0.51610  0.36074  Biso   1.000  C
  C249     1.0000 0.86649  0.46990  0.38068  Biso   1.000  C
  H138     1.0000 0.88960  0.44570  0.37940  Biso   1.000  H
  C250     1.0000 0.84380  0.45700  0.40294  Biso   1.000  C
  H139     1.0000 0.85210  0.42640  0.41730  Biso   1.000  H
  C251     1.0000 0.88123  0.52080  0.33733  Biso   1.000  C
  C252     1.0000 0.88992  0.58820  0.32474  Biso   1.000  C
  H140     1.0000 0.88060  0.63140  0.33260  Biso   1.000  H
  C253     1.0000 0.91217  0.59210  0.30069  Biso   1.000  C
  C254     1.0000 0.92454  0.52630  0.28849  Biso   1.000  C
  H141     1.0000 0.94010  0.52820  0.27280  Biso   1.000  H
  C255     1.0000 0.91420  0.45860  0.29927  Biso   1.000  C
  C256     1.0000 0.89591  0.45950  0.32572  Biso   1.000  C
  H142     1.0000 0.89390  0.41550  0.33560  Biso   1.000  H
  C257     1.0000 0.92520  0.66240  0.28992  Biso   1.000  C
  C258     1.0000 0.92452  0.71830  0.30644  Biso   1.000  C
  H143     1.0000 0.91680  0.71370  0.32500  Biso   1.000  H
  C259     1.0000 0.93621  0.78870  0.29516  Biso   1.000  C
  H144     1.0000 0.93620  0.82990  0.30670  Biso   1.000  H
  C260     1.0000 0.94725  0.79590  0.26786  Biso   1.000  C
  C261     1.0000 0.94695  0.73600  0.25184  Biso   1.000  C
  H145     1.0000 0.95650  0.73910  0.23370  Biso   1.000  H
  C262     1.0000 0.93291  0.66850  0.26121  Biso   1.000  C
  H146     1.0000 0.92890  0.62950  0.24900  Biso   1.000  H
  C263     1.0000 0.95737  0.86710  0.25647  Biso   1.000  C
  C264     1.0000 0.93199  0.39100  0.29112  Biso   1.000  C
  C265     1.0000 0.96698  0.38440  0.27819  Biso   1.000  C
  H147     1.0000 0.98210  0.42590  0.27620  Biso   1.000  H
  C266     1.0000 0.97915  0.32050  0.26869  Biso   1.000  C
  H148     1.0000 0.00160  0.31880  0.25860  Biso   1.000  H
  C267     1.0000 0.96019  0.25860  0.27313  Biso   1.000  C
  C268     1.0000 0.92153  0.26290  0.28165  Biso   1.000  C
  H149     1.0000 0.90430  0.22510  0.27840  Biso   1.000  H
  C269     1.0000 0.91198  0.32570  0.29470  Biso   1.000  C
  H150     1.0000 0.89120  0.32560  0.30660  Biso   1.000  H
  C270     1.0000 0.97350  0.18550  0.26629  Biso   1.000  C
  C271     1.0000 0.75742  0.39250  0.54420  Biso   1.000  C
  C272     1.0000 0.75687  0.34570  0.56817  Biso   1.000  C
  C273     1.0000 0.77919  0.28420  0.56851  Biso   1.000  C
  H151     1.0000 0.79300  0.27020  0.55280  Biso   1.000  H
  C274     1.0000 0.78040  0.24350  0.59325  Biso   1.000  C
  H152     1.0000 0.79770  0.20530  0.59490  Biso   1.000  H
  C275     1.0000 0.75674  0.25830  0.61523  Biso   1.000  C
  C276     1.0000 0.73259  0.31440  0.61310  Biso   1.000  C
  H153     1.0000 0.71530  0.32390  0.62730  Biso   1.000  H
  C277     1.0000 0.73370  0.35770  0.58962  Biso   1.000  C
  H154     1.0000 0.71740  0.39770  0.58860  Biso   1.000  H
  C278     1.0000 0.75700  0.21000  0.63991  Biso   1.000  C
  C279     1.0000 0.79298  0.18510  0.64988  Biso   1.000  C
  H155     1.0000 0.81530  0.19860  0.64090  Biso   1.000  H
  C280     1.0000 0.79340  0.14150  0.67280  Biso   1.000  C
  C281     1.0000 0.75952  0.12000  0.68509  Biso   1.000  C
  H156     1.0000 0.75990  0.09100  0.70120  Biso   1.000  H
  C282     1.0000 0.72697  0.14010  0.67421  Biso   1.000  C
  C283     1.0000 0.72526  0.18450  0.65095  Biso   1.000  C
  H157     1.0000 0.70210  0.19650  0.64300  Biso   1.000  H
  C284     1.0000 0.82929  0.11470  0.68331  Biso   1.000  C
  C285     1.0000 0.86145  0.15580  0.67999  Biso   1.000  C
  H158     1.0000 0.86040  0.20250  0.67210  Biso   1.000  H
  C286     1.0000 0.89473  0.12690  0.68844  Biso   1.000  C
  H159     1.0000 0.91680  0.15170  0.68360  Biso   1.000  H
  C287     1.0000 0.89783  0.06550  0.70317  Biso   1.000  C
  C288     1.0000 0.86593  0.02220  0.70412  Biso   1.000  C
  H160     1.0000 0.86760  0.97340  0.70980  Biso   1.000  H
  C289     1.0000 0.83243  0.05100  0.69684  Biso   1.000  C
  H161     1.0000 0.81050  0.02540  0.70140  Biso   1.000  H
  C290     1.0000 0.93449  0.03730  0.71273  Biso   1.000  C
  C291     1.0000 0.69069  0.11300  0.68768  Biso   1.000  C
  C292     1.0000 0.68728  0.10740  0.71492  Biso   1.000  C
  H162     1.0000 0.70700  0.12330  0.72630  Biso   1.000  H
  C293     1.0000 0.65614  0.07920  0.72685  Biso   1.000  C
  H163     1.0000 0.65440  0.07710  0.74630  Biso   1.000  H
  C294     1.0000 0.62693  0.05370  0.71087  Biso   1.000  C
  C295     1.0000 0.63181  0.05850  0.68229  Biso   1.000  C
  H164     1.0000 0.61340  0.03910  0.67060  Biso   1.000  H
  C296     1.0000 0.66213  0.09010  0.67089  Biso   1.000  C
  H165     1.0000 0.66370  0.09630  0.65160  Biso   1.000  H
  C297     1.0000 0.59339  0.02140  0.72296  Biso   1.000  C
  C298     1.0000 0.65783  0.47290  0.50321  Biso   1.000  C
  C299     1.0000 0.62371  0.44150  0.51532  Biso   1.000  C
  C300     1.0000 0.62015  0.43510  0.54268  Biso   1.000  C
  H166     1.0000 0.63950  0.45070  0.55440  Biso   1.000  H
  C301     1.0000 0.58846  0.40600  0.55369  Biso   1.000  C
  H167     1.0000 0.58730  0.40030  0.57300  Biso   1.000  H
  C302     1.0000 0.55853  0.38470  0.53854  Biso   1.000  C
  C303     1.0000 0.56344  0.38790  0.50965  Biso   1.000  C
  H168     1.0000 0.54490  0.36950  0.49770  Biso   1.000  H
  C304     1.0000 0.59537  0.41780  0.49911  Biso   1.000  C
  H169     1.0000 0.59770  0.42220  0.47980  Biso   1.000  H
  C305     1.0000 0.52532  0.35240  0.54882  Biso   1.000  C
  C306     1.0000 0.52514  0.30610  0.57106  Biso   1.000  C
  H170     1.0000 0.54820  0.28790  0.57740  Biso   1.000  H
  C307     1.0000 0.49297  0.28450  0.58469  Biso   1.000  C
  C308     1.0000 0.45976  0.30680  0.57328  Biso   1.000  C
  H171     1.0000 0.43740  0.28900  0.58090  Biso   1.000  H
  C309     1.0000 0.45763  0.35370  0.55126  Biso   1.000  C
  C310     1.0000 0.49041  0.37810  0.53957  Biso   1.000  C
  H172     1.0000 0.48950  0.41240  0.52510  Biso   1.000  H
  C311     1.0000 0.49340  0.23760  0.60966  Biso   1.000  C
  C312     1.0000 0.51685  0.17700  0.61118  Biso   1.000  C
  H173     1.0000 0.53350  0.16800  0.59650  Biso   1.000  H
  C313     1.0000 0.51651  0.13050  0.63317  Biso   1.000  C
  H174     1.0000 0.53170  0.08880  0.63320  Biso   1.000  H
  C314     1.0000 0.49362  0.14540  0.65529  Biso   1.000  C
  C315     1.0000 0.46993  0.20240  0.65261  Biso   1.000  C
  H175     1.0000 0.45210  0.21000  0.66670  Biso   1.000  H
  C316     1.0000 0.47030  0.24830  0.63136  Biso   1.000  C
  H176     1.0000 0.45430  0.28890  0.63140  Biso   1.000  H
  C317     1.0000 0.49254  0.09980  0.67983  Biso   1.000  C
  C318     1.0000 0.42198  0.37920  0.54069  Biso   1.000  C
  C319     1.0000 0.38856  0.34350  0.54471  Biso   1.000  C
  H177     1.0000 0.38880  0.30040  0.55520  Biso   1.000  H
  C320     1.0000 0.35482  0.36710  0.53431  Biso   1.000  C
  H178     1.0000 0.33350  0.33750  0.53540  Biso   1.000  H
  C321     1.0000 0.35298  0.43490  0.52239  Biso   1.000  C
  C322     1.0000 0.38671  0.46980  0.51535  Biso   1.000  C
  H179     1.0000 0.38700  0.50830  0.50250  Biso   1.000  H
  C323     1.0000 0.41984  0.44570  0.52794  Biso   1.000  C
  H180     1.0000 0.44110  0.47580  0.52760  Biso   1.000  H
  C324     1.0000 0.31812  0.46560  0.51319  Biso   1.000  C
  Co13     1.0000 0.48400  0.04478  0.20956  Biso   1.000  Co
  Co14     1.0000 0.46263  0.97560  0.27041  Biso   1.000  Co
  Co15     1.0000 0.53320  0.91328  0.24133  Biso   1.000  Co
  Co16     1.0000 0.71279  0.47420  0.45504  Biso   1.000  Co
  Co17     1.0000 0.77835  0.41260  0.48480  Biso   1.000  Co
  Co18     1.0000 0.73360  0.54180  0.51749  Biso   1.000  Co
  Fe19     1.0000 0.51794  0.96567  0.70941  Biso   1.000  Fe
  Fe20     1.0000 0.54249  0.02560  0.77070  Biso   1.000  Fe
  Fe21     1.0000 0.47026  0.09676  0.73795  Biso   1.000  Fe
  Fe22     1.0000 0.29177  0.52080  0.95501  Biso   1.000  Fe
  Fe23     1.0000 0.21610  0.59600  0.98561  Biso   1.000  Fe
  Fe24     1.0000 0.26621  0.46946  0.01647  Biso   1.000  Fe
  O94      1.0000 0.49893  0.01629  0.79871  Biso   1.000  O
  O95      1.0000 0.45424  0.08112  0.77853  Biso   1.000  O
  O96      1.0000 0.29673  0.41571  0.95538  Biso   1.000  O
  O97      1.0000 0.27672  0.37356  0.99452  Biso   1.000  O
  O98      1.0000 0.24823  0.67941  0.97204  Biso   1.000  O
  O99      1.0000 0.29139  0.63077  0.94800  Biso   1.000  O
  O100     1.0000 0.24875  0.50694  0.92643  Biso   1.000  O
  O101     1.0000 0.20289  0.56879  0.94630  Biso   1.000  O
  O102     1.0000 0.04631  0.08230  0.77263  Biso   1.000  O
  O103     1.0000 0.02977  0.13005  0.73353  Biso   1.000  O
  O104     1.0000 0.99862  0.81616  0.74979  Biso   1.000  O
  O105     1.0000 0.04143  0.86698  0.77653  Biso   1.000  O
  O106     1.0000 0.22535  0.62928  0.02378  Biso   1.000  O
  O107     1.0000 0.25777  0.54743  0.04545  Biso   1.000  O
  O108     1.0000 0.03779  0.93319  0.20640  Biso   1.000  O
  O109     1.0000 0.06826  0.01830  0.22749  Biso   1.000  O
  O110     1.0000 0.41252  0.96416  0.24736  Biso   1.000  O
  O111     1.0000 0.42841  0.00944  0.20687  Biso   1.000  O
  O112     1.0000 0.33680  0.53721  0.97786  Biso   1.000  O
  O113     1.0000 0.32208  0.49197  0.01789  Biso   1.000  O
  O114     1.0000 0.49025  0.95833  0.17921  Biso   1.000  O
  O115     1.0000 0.52478  0.87741  0.20010  Biso   1.000  O
  O116     1.0000 0.71143  0.56531  0.02037  Biso   1.000  O
  O117     1.0000 0.68076  0.47812  0.99971  Biso   1.000  O
  O118     1.0000 0.52747  0.89254  0.67640  Biso   1.000  O
  O119     1.0000 0.57662  0.02440  0.80520  Biso   1.000  O
  O120     1.0000 0.42459  0.16560  0.73753  Biso   1.000  O
  O121     1.0000 0.50834  0.02686  0.74053  Biso   1.000  O
  O122     1.0000 0.32719  0.51723  0.92119  Biso   1.000  O
  O123     1.0000 0.27608  0.39991  0.05137  Biso   1.000  O
  O124     1.0000 0.25841  0.52933  0.98545  Biso   1.000  O
  C325     1.0000 0.46770  0.04520  0.79820  Biso   1.000  C
  C326     1.0000 0.44222  0.04210  0.82283  Biso   1.000  C
  C327     1.0000 0.41190  0.08280  0.82597  Biso   1.000  C
  H181     1.0000 0.40690  0.11770  0.81220  Biso   1.000  H
  C328     1.0000 0.38830  0.07830  0.84673  Biso   1.000  C
  H182     1.0000 0.36620  0.10590  0.84680  Biso   1.000  H
  C329     1.0000 0.39703  0.03090  0.86899  Biso   1.000  C
  C330     1.0000 0.42690  0.99050  0.86728  Biso   1.000  C
  H183     1.0000 0.43160  0.95630  0.88130  Biso   1.000  H
  C331     1.0000 0.45273  0.99640  0.84487  Biso   1.000  C
  H184     1.0000 0.47560  0.97110  0.84480  Biso   1.000  H
  C332     1.0000 0.37230  0.02810  0.89448  Biso   1.000  C
  C333     1.0000 0.36018  0.08870  0.90568  Biso   1.000  C
  H185     1.0000 0.36960  0.13320  0.89900  Biso   1.000  H
  C334     1.0000 0.33435  0.09000  0.92674  Biso   1.000  C
  C335     1.0000 0.32113  0.02450  0.93563  Biso   1.000  C
  H186     1.0000 0.30350  0.02340  0.95010  Biso   1.000  H
  C336     1.0000 0.33281  0.95990  0.92409  Biso   1.000  C
  C337     1.0000 0.36045  0.96140  0.90301  Biso   1.000  C
  H187     1.0000 0.37010  0.91830  0.89530  Biso   1.000  H
  C338     1.0000 0.32429  0.15780  0.93942  Biso   1.000  C
  C339     1.0000 0.31789  0.22340  0.92291  Biso   1.000  C
  H188     1.0000 0.32180  0.22070  0.90370  Biso   1.000  H
  C340     1.0000 0.30684  0.28670  0.93353  Biso   1.000  C
  H189     1.0000 0.30390  0.32740  0.92190  Biso   1.000  H
  C341     1.0000 0.29999  0.29220  0.96027  Biso   1.000  C
  C342     1.0000 0.30010  0.23150  0.97578  Biso   1.000  C
  H190     1.0000 0.29430  0.23570  0.99470  Biso   1.000  H
  C343     1.0000 0.30787  0.16640  0.96583  Biso   1.000  C
  H191     1.0000 0.30240  0.12500  0.97650  Biso   1.000  H
  C344     1.0000 0.28910  0.36510  0.97078  Biso   1.000  C
  C345     1.0000 0.31887  0.88930  0.93396  Biso   1.000  C
  C346     1.0000 0.28959  0.88180  0.94927  Biso   1.000  C
  H192     1.0000 0.27870  0.92420  0.95660  Biso   1.000  H
  C347     1.0000 0.27303  0.81590  0.95577  Biso   1.000  C
  H193     1.0000 0.24990  0.81490  0.96490  Biso   1.000  H
  C348     1.0000 0.29006  0.75380  0.94897  Biso   1.000  C
  C349     1.0000 0.32357  0.75840  0.93470  Biso   1.000  C
  H194     1.0000 0.33420  0.71680  0.92650  Biso   1.000  H
  C350     1.0000 0.34166  0.82750  0.93272  Biso   1.000  C
  H195     1.0000 0.36770  0.83120  0.93070  Biso   1.000  H
  C351     1.0000 0.27506  0.68320  0.95704  Biso   1.000  C
  C352     1.0000 0.21672  0.53200  0.92782  Biso   1.000  C
  C353     1.0000 0.19151  0.51120  0.90448  Biso   1.000  C
  C354     1.0000 0.20083  0.46330  0.88452  Biso   1.000  C
  H196     1.0000 0.22350  0.43760  0.88590  Biso   1.000  H
  C355     1.0000 0.17765  0.45120  0.86219  Biso   1.000  C
  H197     1.0000 0.18550  0.42020  0.84780  Biso   1.000  H
  C356     1.0000 0.14348  0.48390  0.86074  Biso   1.000  C
  C357     1.0000 0.13351  0.53010  0.88068  Biso   1.000  C
  H198     1.0000 0.11040  0.55430  0.87940  Biso   1.000  H
  C358     1.0000 0.15620  0.54300  0.90294  Biso   1.000  C
  H199     1.0000 0.14790  0.57360  0.91730  Biso   1.000  H
  C359     1.0000 0.11877  0.47920  0.83733  Biso   1.000  C
  C360     1.0000 0.11008  0.41180  0.82474  Biso   1.000  C
  H200     1.0000 0.11940  0.36860  0.83260  Biso   1.000  H
  C361     1.0000 0.08783  0.40790  0.80069  Biso   1.000  C
  C362     1.0000 0.07546  0.47370  0.78849  Biso   1.000  C
  H201     1.0000 0.05990  0.47180  0.77280  Biso   1.000  H
  C363     1.0000 0.08580  0.54140  0.79927  Biso   1.000  C
  C364     1.0000 0.10409  0.54050  0.82572  Biso   1.000  C
  H202     1.0000 0.10610  0.58450  0.83560  Biso   1.000  H
  C365     1.0000 0.07480  0.33760  0.78992  Biso   1.000  C
  C366     1.0000 0.07548  0.28170  0.80644  Biso   1.000  C
  H203     1.0000 0.08320  0.28630  0.82500  Biso   1.000  H
  C367     1.0000 0.06379  0.21130  0.79516  Biso   1.000  C
  H204     1.0000 0.06380  0.17010  0.80670  Biso   1.000  H
  C368     1.0000 0.05275  0.20410  0.76786  Biso   1.000  C
  C369     1.0000 0.05305  0.26400  0.75184  Biso   1.000  C
  H205     1.0000 0.04350  0.26090  0.73370  Biso   1.000  H
  C370     1.0000 0.06709  0.33150  0.76121  Biso   1.000  C
  H206     1.0000 0.07110  0.37050  0.74900  Biso   1.000  H
  C371     1.0000 0.04263  0.13290  0.75647  Biso   1.000  C
  C372     1.0000 0.06801  0.60900  0.79112  Biso   1.000  C
  C373     1.0000 0.03302  0.61560  0.77819  Biso   1.000  C
  H207     1.0000 0.01790  0.57410  0.77620  Biso   1.000  H
  C374     1.0000 0.02085  0.67950  0.76869  Biso   1.000  C
  H208     1.0000 0.99840  0.68120  0.75860  Biso   1.000  H
  C375     1.0000 0.03981  0.74140  0.77313  Biso   1.000  C
  C376     1.0000 0.07847  0.73710  0.78165  Biso   1.000  C
  H209     1.0000 0.09570  0.77490  0.77840  Biso   1.000  H
  C377     1.0000 0.08802  0.67430  0.79470  Biso   1.000  C
  H210     1.0000 0.10880  0.67440  0.80660  Biso   1.000  H
  C378     1.0000 0.02650  0.81450  0.76629  Biso   1.000  C
  C379     1.0000 0.24258  0.60750  0.04420  Biso   1.000  C
  C380     1.0000 0.24313  0.65430  0.06817  Biso   1.000  C
  C381     1.0000 0.22081  0.71580  0.06851  Biso   1.000  C
  H211     1.0000 0.20700  0.72980  0.05280  Biso   1.000  H
  C382     1.0000 0.21960  0.75650  0.09325  Biso   1.000  C
  H212     1.0000 0.20230  0.79470  0.09490  Biso   1.000  H
  C383     1.0000 0.24326  0.74170  0.11523  Biso   1.000  C
  C384     1.0000 0.26741  0.68560  0.11310  Biso   1.000  C
  H213     1.0000 0.28470  0.67610  0.12730  Biso   1.000  H
  C385     1.0000 0.26630  0.64230  0.08962  Biso   1.000  C
  H214     1.0000 0.28260  0.60230  0.08860  Biso   1.000  H
  C386     1.0000 0.24300  0.79000  0.13991  Biso   1.000  C
  C387     1.0000 0.20702  0.81490  0.14988  Biso   1.000  C
  H215     1.0000 0.18470  0.80140  0.14090  Biso   1.000  H
  C388     1.0000 0.20660  0.85850  0.17280  Biso   1.000  C
  C389     1.0000 0.24048  0.88000  0.18509  Biso   1.000  C
  H216     1.0000 0.24010  0.90900  0.20120  Biso   1.000  H
  C390     1.0000 0.27303  0.85990  0.17421  Biso   1.000  C
  C391     1.0000 0.27474  0.81550  0.15095  Biso   1.000  C
  H217     1.0000 0.29790  0.80350  0.14300  Biso   1.000  H
  C392     1.0000 0.17071  0.88530  0.18331  Biso   1.000  C
  C393     1.0000 0.13855  0.84420  0.17999  Biso   1.000  C
  H218     1.0000 0.13960  0.79750  0.17210  Biso   1.000  H
  C394     1.0000 0.10527  0.87310  0.18844  Biso   1.000  C
  H219     1.0000 0.08320  0.84830  0.18360  Biso   1.000  H
  C395     1.0000 0.10217  0.93450  0.20317  Biso   1.000  C
  C396     1.0000 0.13407  0.97780  0.20412  Biso   1.000  C
  H220     1.0000 0.13240  0.02660  0.20980  Biso   1.000  H
  C397     1.0000 0.16757  0.94900  0.19684  Biso   1.000  C
  H221     1.0000 0.18950  0.97460  0.20140  Biso   1.000  H
  C398     1.0000 0.06551  0.96270  0.21273  Biso   1.000  C
  C399     1.0000 0.30931  0.88700  0.18768  Biso   1.000  C
  C400     1.0000 0.31272  0.89260  0.21492  Biso   1.000  C
  H222     1.0000 0.29300  0.87670  0.22630  Biso   1.000  H
  C401     1.0000 0.34386  0.92080  0.22685  Biso   1.000  C
  H223     1.0000 0.34560  0.92290  0.24630  Biso   1.000  H
  C402     1.0000 0.37307  0.94630  0.21087  Biso   1.000  C
  C403     1.0000 0.36819  0.94150  0.18229  Biso   1.000  C
  H224     1.0000 0.38660  0.96090  0.17060  Biso   1.000  H
  C404     1.0000 0.33787  0.90990  0.17089  Biso   1.000  C
  H225     1.0000 0.33630  0.90370  0.15160  Biso   1.000  H
  C405     1.0000 0.40661  0.97860  0.22296  Biso   1.000  C
  C406     1.0000 0.34217  0.52710  0.00321  Biso   1.000  C
  C407     1.0000 0.37629  0.55850  0.01532  Biso   1.000  C
  C408     1.0000 0.37985  0.56490  0.04268  Biso   1.000  C
  H226     1.0000 0.36050  0.54930  0.05440  Biso   1.000  H
  C409     1.0000 0.41154  0.59400  0.05369  Biso   1.000  C
  H227     1.0000 0.41270  0.59970  0.07300  Biso   1.000  H
  C410     1.0000 0.44147  0.61530  0.03854  Biso   1.000  C
  C411     1.0000 0.43656  0.61210  0.00965  Biso   1.000  C
  H228     1.0000 0.45510  0.63050  0.99770  Biso   1.000  H
  C412     1.0000 0.40463  0.58220  0.99911  Biso   1.000  C
  H229     1.0000 0.40230  0.57780  0.97980  Biso   1.000  H
  C413     1.0000 0.47468  0.64760  0.04882  Biso   1.000  C
  C414     1.0000 0.47486  0.69390  0.07106  Biso   1.000  C
  H230     1.0000 0.45180  0.71210  0.07740  Biso   1.000  H
  C415     1.0000 0.50703  0.71550  0.08469  Biso   1.000  C
  C416     1.0000 0.54024  0.69320  0.07328  Biso   1.000  C
  H231     1.0000 0.56260  0.71100  0.08090  Biso   1.000  H
  C417     1.0000 0.54237  0.64630  0.05126  Biso   1.000  C
  C418     1.0000 0.50959  0.62190  0.03957  Biso   1.000  C
  H232     1.0000 0.51050  0.58760  0.02510  Biso   1.000  H
  C419     1.0000 0.50660  0.76240  0.10966  Biso   1.000  C
  C420     1.0000 0.48315  0.82300  0.11118  Biso   1.000  C
  H233     1.0000 0.46650  0.83200  0.09650  Biso   1.000  H
  C421     1.0000 0.48349  0.86950  0.13317  Biso   1.000  C
  H234     1.0000 0.46830  0.91120  0.13320  Biso   1.000  H
  C422     1.0000 0.50638  0.85460  0.15529  Biso   1.000  C
  C423     1.0000 0.53007  0.79760  0.15261  Biso   1.000  C
  H235     1.0000 0.54790  0.79000  0.16670  Biso   1.000  H
  C424     1.0000 0.52970  0.75170  0.13136  Biso   1.000  C
  H236     1.0000 0.54570  0.71110  0.13140  Biso   1.000  H
  C425     1.0000 0.50746  0.90020  0.17983  Biso   1.000  C
  C426     1.0000 0.57802  0.62080  0.04069  Biso   1.000  C
  C427     1.0000 0.61144  0.65650  0.04471  Biso   1.000  C
  H237     1.0000 0.61120  0.69960  0.05520  Biso   1.000  H
  C428     1.0000 0.64518  0.63290  0.03431  Biso   1.000  C
  H238     1.0000 0.66650  0.66250  0.03540  Biso   1.000  H
  C429     1.0000 0.64702  0.56510  0.02239  Biso   1.000  C
  C430     1.0000 0.61329  0.53020  0.01535  Biso   1.000  C
  H239     1.0000 0.61300  0.49170  0.00250  Biso   1.000  H
  C431     1.0000 0.58016  0.55430  0.02794  Biso   1.000  C
  H240     1.0000 0.55890  0.52420  0.02760  Biso   1.000  H
  C432     1.0000 0.68188  0.53440  0.01319  Biso   1.000  C
  Co19     1.0000 0.51600  0.95522  0.70956  Biso   1.000  Co
  Co20     1.0000 0.53737  0.02440  0.77041  Biso   1.000  Co
  Co21     1.0000 0.46680  0.08672  0.74133  Biso   1.000  Co
  Co22     1.0000 0.28721  0.52580  0.95504  Biso   1.000  Co
  Co23     1.0000 0.22165  0.58740  0.98480  Biso   1.000  Co
  Co24     1.0000 0.26640  0.45820  0.01749  Biso   1.000  Co
