data_TOWPEC_clean
_audit_creation_date              2015-10-16
_audit_creation_method            'Materials Studio'
_symmetry_space_group_name_H-M    'P1'
_symmetry_Int_Tables_number       1
_symmetry_cell_setting            triclinic
loop_
_symmetry_equiv_pos_as_xyz
  x,y,z
_cell_length_a                    38.1424
_cell_length_b                    38.1424
_cell_length_c                    38.1424
_cell_angle_alpha                 109.4710
_cell_angle_beta                  109.4710
_cell_angle_gamma                 109.4710
loop_
_atom_site_label
_atom_site_type_symbol
_atom_site_fract_x
_atom_site_fract_y
_atom_site_fract_z
_atom_site_U_iso_or_equiv
_atom_site_adp_type
_atom_site_occupancy
Fe1    Fe    0.72066   0.97096   0.42306   0.01267  Uiso   1.00
Fe2    Fe    0.27934   0.02904   0.57694   0.01267  Uiso   1.00
Fe3    Fe    0.93909   0.46779   0.23690   0.01267  Uiso   1.00
Fe4    Fe    0.70219   0.76310   0.23089   0.01267  Uiso   1.00
Fe5    Fe    0.53221   0.26310   0.56091   0.01267  Uiso   1.00
Fe6    Fe    0.73690   0.93909   0.96779   0.01267  Uiso   1.00
Fe7    Fe    0.95150   0.73393   0.01563   0.01267  Uiso   1.00
Fe8    Fe    0.04850   0.26607   0.98437   0.01267  Uiso   1.00
Fe9    Fe    0.22066   0.79760   0.74970   0.01267  Uiso   1.00
Fe10   Fe    0.73630   0.28040   0.75190   0.01267  Uiso   1.00
Fe11   Fe    0.01560   0.75190   0.47150   0.01267  Uiso   1.00
Fe12   Fe    0.70240   0.42306   0.45210   0.01267  Uiso   1.00
Fe13   Fe    0.23089   0.96779   0.02870   0.01267  Uiso   1.00
Fe14   Fe    0.56091   0.79781   0.52870   0.01267  Uiso   1.00
Fe15   Fe    0.45150   0.43587   0.21757   0.01267  Uiso   1.00
Fe16   Fe    0.23630   0.48440   0.45590   0.01267  Uiso   1.00
Fe17   Fe    0.24970   0.22066   0.29760   0.01267  Uiso   1.00
Fe18   Fe    0.28040   0.25190   0.23630   0.01267  Uiso   1.00
Fe19   Fe    0.79760   0.24970   0.72066   0.01267  Uiso   1.00
Fe20   Fe    0.97096   0.92306   0.22066   0.01267  Uiso   1.00
Fe21   Fe    0.07694   0.27934   0.52904   0.01267  Uiso   1.00
Fe22   Fe    0.06091   0.53221   0.76310   0.01267  Uiso   1.00
Fe23   Fe    0.73393   0.51563   0.45150   0.01267  Uiso   1.00
Fe24   Fe    0.47130   0.76911   0.53221   0.01267  Uiso   1.00
Fe25   Fe    0.75030   0.77934   0.70240   0.01267  Uiso   1.00
Fe26   Fe    0.51560   0.04410   0.26370   0.01267  Uiso   1.00
Fe27   Fe    0.75190   0.97150   0.51560   0.01267  Uiso   1.00
Fe28   Fe    0.02904   0.07694   0.77934   0.01267  Uiso   1.00
Fe29   Fe    0.57694   0.04790   0.79760   0.01267  Uiso   1.00
Fe30   Fe    0.45210   0.52904   0.24970   0.01267  Uiso   1.00
Fe31   Fe    0.25030   0.54790   0.97096   0.01267  Uiso   1.00
Fe32   Fe    0.52850   0.78040   0.04410   0.01267  Uiso   1.00
Fe33   Fe    0.98437   0.21830   0.43587   0.01267  Uiso   1.00
Fe34   Fe    0.78170   0.06413   0.51563   0.01267  Uiso   1.00
Fe35   Fe    0.23690   0.26911   0.79781   0.01267  Uiso   1.00
Fe36   Fe    0.03221   0.47130   0.26911   0.01267  Uiso   1.00
Fe37   Fe    0.02850   0.98440   0.74810   0.01267  Uiso   1.00
Fe38   Fe    0.25190   0.73630   0.78040   0.01267  Uiso   1.00
Fe39   Fe    0.76911   0.03221   0.97130   0.01267  Uiso   1.00
Fe40   Fe    0.93587   0.98437   0.71830   0.01267  Uiso   1.00
Fe41   Fe    0.77934   0.20240   0.25030   0.01267  Uiso   1.00
Fe42   Fe    0.24810   0.02850   0.48440   0.01267  Uiso   1.00
Fe43   Fe    0.21830   0.93587   0.48437   0.01267  Uiso   1.00
Fe44   Fe    0.02870   0.56091   0.29781   0.01267  Uiso   1.00
Fe45   Fe    0.21960   0.45590   0.97150   0.01267  Uiso   1.00
Fe46   Fe    0.26310   0.06091   0.03221   0.01267  Uiso   1.00
Fe47   Fe    0.78243   0.71830   0.73393   0.01267  Uiso   1.00
Fe48   Fe    0.29760   0.57694   0.54790   0.01267  Uiso   1.00
Fe49   Fe    0.26607   0.48437   0.54850   0.01267  Uiso   1.00
Fe50   Fe    0.76607   0.21757   0.78170   0.01267  Uiso   1.00
Fe51   Fe    0.76370   0.51560   0.54410   0.01267  Uiso   1.00
Fe52   Fe    0.20219   0.97130   0.93909   0.01267  Uiso   1.00
Fe53   Fe    0.97150   0.01560   0.25190   0.01267  Uiso   1.00
Fe54   Fe    0.51563   0.95150   0.23393   0.01267  Uiso   1.00
Fe55   Fe    0.06413   0.01563   0.28170   0.01267  Uiso   1.00
Fe56   Fe    0.96779   0.52870   0.73089   0.01267  Uiso   1.00
Fe57   Fe    0.71830   0.23393   0.28243   0.01267  Uiso   1.00
Fe58   Fe    0.23393   0.78243   0.21830   0.01267  Uiso   1.00
Fe59   Fe    0.42306   0.95210   0.20240   0.01267  Uiso   1.00
Fe60   Fe    0.97130   0.43909   0.70219   0.01267  Uiso   1.00
Fe61   Fe    0.28243   0.54850   0.06413   0.01267  Uiso   1.00
Fe62   Fe    0.78040   0.54410   0.02850   0.01267  Uiso   1.00
Fe63   Fe    0.71757   0.45150   0.93587   0.01267  Uiso   1.00
Fe64   Fe    0.21757   0.28170   0.26607   0.01267  Uiso   1.00
Fe65   Fe    0.29781   0.23690   0.76911   0.01267  Uiso   1.00
Fe66   Fe    0.52870   0.23089   0.46779   0.01267  Uiso   1.00
Fe67   Fe    0.43587   0.71757   0.95150   0.01267  Uiso   1.00
Fe68   Fe    0.92306   0.72066   0.47096   0.01267  Uiso   1.00
Fe69   Fe    0.79781   0.02870   0.06091   0.01267  Uiso   1.00
Fe70   Fe    0.45590   0.47150   0.71960   0.01267  Uiso   1.00
Fe71   Fe    0.43909   0.20219   0.47130   0.01267  Uiso   1.00
Fe72   Fe    0.01563   0.78170   0.56413   0.01267  Uiso   1.00
Fe73   Fe    0.74810   0.26370   0.21960   0.01267  Uiso   1.00
Fe74   Fe    0.52904   0.74970   0.95210   0.01267  Uiso   1.00
Fe75   Fe    0.04410   0.76370   0.01560   0.01267  Uiso   1.00
Fe76   Fe    0.76310   0.73089   0.20219   0.01267  Uiso   1.00
Fe77   Fe    0.48440   0.95590   0.73630   0.01267  Uiso   1.00
Fe78   Fe    0.46779   0.73690   0.43909   0.01267  Uiso   1.00
Fe79   Fe    0.28170   0.76607   0.71757   0.01267  Uiso   1.00
Fe80   Fe    0.74970   0.45210   0.02904   0.01267  Uiso   1.00
Fe81   Fe    0.47150   0.21960   0.95590   0.01267  Uiso   1.00
Fe82   Fe    0.54850   0.56413   0.78243   0.01267  Uiso   1.00
Fe83   Fe    0.95210   0.70240   0.92306   0.01267  Uiso   1.00
Fe84   Fe    0.71960   0.74810   0.76370   0.01267  Uiso   1.00
Fe85   Fe    0.54410   0.52850   0.28040   0.01267  Uiso   1.00
Fe86   Fe    0.20240   0.75030   0.27934   0.01267  Uiso   1.00
Fe87   Fe    0.26911   0.29781   0.73690   0.01267  Uiso   1.00
Fe88   Fe    0.95590   0.23630   0.98440   0.01267  Uiso   1.00
Fe89   Fe    0.98440   0.24810   0.52850   0.01267  Uiso   1.00
Fe90   Fe    0.47096   0.25030   0.04790   0.01267  Uiso   1.00
Fe91   Fe    0.56413   0.28243   0.04850   0.01267  Uiso   1.00
Fe92   Fe    0.26370   0.71960   0.24810   0.01267  Uiso   1.00
Fe93   Fe    0.73089   0.70219   0.26310   0.01267  Uiso   1.00
Fe94   Fe    0.54790   0.47096   0.75030   0.01267  Uiso   1.00
Fe95   Fe    0.04790   0.29760   0.07694   0.01267  Uiso   1.00
Fe96   Fe    0.48437   0.04850   0.76607   0.01267  Uiso   1.00
H1     H     0.11930   0.42990   0.12180   0.01267  Uiso   1.00
H2     H     0.87090   0.23120   0.37770   0.01267  Uiso   1.00
H3     H     0.62290   0.60680   0.91010   0.01267  Uiso   1.00
H4     H     0.49790   0.30160   0.90830   0.01267  Uiso   1.00
H5     H     0.92960   0.10990   0.11070   0.01267  Uiso   1.00
H6     H     0.57040   0.68110   0.18030   0.01267  Uiso   1.00
H7     H     0.71260   0.10360   0.99840   0.01267  Uiso   1.00
H8     H     0.61020   0.70020   0.98180   0.01267  Uiso   1.00
H9     H     0.10900   0.21260   0.71420   0.01267  Uiso   1.00
H10    H     0.80370   0.39330   0.30160   0.01267  Uiso   1.00
H11    H     0.91000   0.28160   0.29980   0.01267  Uiso   1.00
H12    H     0.81900   0.41230   0.80290   0.01267  Uiso   1.00
H13    H     0.49750   0.18940   0.11930   0.01267  Uiso   1.00
H14    H     0.91170   0.09060   0.39250   0.01267  Uiso   1.00
H15    H     0.35910   0.00830   0.13080   0.01267  Uiso   1.00
H16    H     0.00080   0.39010   0.31970   0.01267  Uiso   1.00
H17    H     0.48390   0.09330   0.18100   0.01267  Uiso   1.00
H18    H     0.89600   0.25040   0.87220   0.01267  Uiso   1.00
H19    H     0.85910   0.72830   0.35080   0.01267  Uiso   1.00
H20    H     0.62180   0.24960   0.14560   0.01267  Uiso   1.00
H21    H     0.58830   0.98080   0.17890   0.01267  Uiso   1.00
H22    H     0.63970   0.14650   0.76880   0.01267  Uiso   1.00
H23    H     0.36030   0.85350   0.23120   0.01267  Uiso   1.00
H24    H     0.60400   0.47620   0.35440   0.01267  Uiso   1.00
H25    H     0.48390   0.87710   0.28720   0.01267  Uiso   1.00
H26    H     0.14920   0.14090   0.77170   0.01267  Uiso   1.00
H27    H     0.12290   0.21280   0.01610   0.01267  Uiso   1.00
H28    H     0.08990   0.19670   0.21280   0.01267  Uiso   1.00
H29    H     0.42990   0.62180   0.61930   0.01267  Uiso   1.00
H30    H     0.01610   0.30330   0.39320   0.01267  Uiso   1.00
H31    H     0.41170   0.01920   0.82110   0.01267  Uiso   1.00
H32    H     0.91040   0.30370   0.50210   0.01267  Uiso   1.00
H33    H     0.08830   0.90940   0.60750   0.01267  Uiso   1.00
H34    H     0.00680   0.86030   0.12910   0.01267  Uiso   1.00
H35    H     0.90670   0.31900   0.01610   0.01267  Uiso   1.00
H36    H     0.99320   0.13970   0.87090   0.01267  Uiso   1.00
H37    H     0.60520   0.71420   0.50160   0.01267  Uiso   1.00
H38    H     0.25040   0.37220   0.39600   0.01267  Uiso   1.00
H39    H     0.11020   0.12840   0.91000   0.01267  Uiso   1.00
H40    H     0.39010   0.81970   0.50080   0.01267  Uiso   1.00
H41    H     0.87820   0.80810   0.49750   0.01267  Uiso   1.00
H42    H     0.30330   0.89320   0.51610   0.01267  Uiso   1.00
H43    H     0.98390   0.69670   0.60680   0.01267  Uiso   1.00
H44    H     0.21260   0.21420   0.60900   0.01267  Uiso   1.00
H45    H     0.59000   0.88980   0.37160   0.01267  Uiso   1.00
H46    H     0.86030   0.62910   0.50680   0.01267  Uiso   1.00
H47    H     0.81890   0.88930   0.99920   0.01267  Uiso   1.00
H48    H     0.17890   0.69810   0.09060   0.01267  Uiso   1.00
H49    H     0.69810   0.59060   0.67890   0.01267  Uiso   1.00
H50    H     0.49320   0.62230   0.85350   0.01267  Uiso   1.00
H51    H     0.07040   0.89010   0.88930   0.01267  Uiso   1.00
H52    H     0.69630   0.99790   0.58960   0.01267  Uiso   1.00
H53    H     0.50210   0.69840   0.09170   0.01267  Uiso   1.00
H54    H     0.60360   0.39100   0.60520   0.01267  Uiso   1.00
H55    H     0.79980   0.91000   0.78160   0.01267  Uiso   1.00
H56    H     0.67890   0.58830   0.48080   0.01267  Uiso   1.00
H57    H     0.51610   0.90670   0.81900   0.01267  Uiso   1.00
H58    H     0.80290   0.89060   0.48390   0.01267  Uiso   1.00
H59    H     0.00210   0.91040   0.80370   0.01267  Uiso   1.00
H60    H     0.37090   0.99320   0.63970   0.01267  Uiso   1.00
H61    H     0.12180   0.19190   0.50250   0.01267  Uiso   1.00
H62    H     0.91230   0.59330   0.10940   0.01267  Uiso   1.00
H63    H     0.35050   0.74640   0.37750   0.01267  Uiso   1.00
H64    H     0.81060   0.38070   0.00250   0.01267  Uiso   1.00
H65    H     0.40940   0.82110   0.80190   0.01267  Uiso   1.00
H66    H     0.24960   0.64560   0.12180   0.01267  Uiso   1.00
H67    H     0.35080   0.12250   0.99170   0.01267  Uiso   1.00
H68    H     0.09330   0.68100   0.98390   0.01267  Uiso   1.00
H69    H     0.40830   0.49790   0.80160   0.01267  Uiso   1.00
H70    H     0.30370   0.00210   0.41040   0.01267  Uiso   1.00
H71    H     0.19810   0.51920   0.10750   0.01267  Uiso   1.00
H72    H     0.62840   0.01820   0.71840   0.01267  Uiso   1.00
H73    H     0.78160   0.37160   0.48180   0.01267  Uiso   1.00
H74    H     0.91010   0.80330   0.78720   0.01267  Uiso   1.00
H75    H     0.63080   0.35910   0.50830   0.01267  Uiso   1.00
H76    H     0.69840   0.59170   0.00210   0.01267  Uiso   1.00
H77    H     0.40670   0.39060   0.58770   0.01267  Uiso   1.00
H78    H     0.39330   0.80160   0.30370   0.01267  Uiso   1.00
H79    H     0.28740   0.89640   0.00160   0.01267  Uiso   1.00
H80    H     0.39600   0.52380   0.64560   0.01267  Uiso   1.00
H81    H     0.97300   0.62250   0.36890   0.01267  Uiso   1.00
H82    H     0.36890   0.24640   0.89590   0.01267  Uiso   1.00
H83    H     0.86890   0.97300   0.12250   0.01267  Uiso   1.00
H84    H     0.39590   0.36890   0.74640   0.01267  Uiso   1.00
H85    H     0.37770   0.64650   0.00680   0.01267  Uiso   1.00
H86    H     0.87750   0.35050   0.24640   0.01267  Uiso   1.00
H87    H     0.39480   0.28580   0.49840   0.01267  Uiso   1.00
H88    H     0.61070   0.92960   0.60990   0.01267  Uiso   1.00
H89    H     0.36920   0.64090   0.49170   0.01267  Uiso   1.00
H90    H     0.59170   0.50210   0.19840   0.01267  Uiso   1.00
H91    H     0.58990   0.37710   0.89320   0.01267  Uiso   1.00
H92    H     0.29980   0.51820   0.88980   0.01267  Uiso   1.00
H93    H     0.39060   0.08770   0.90670   0.01267  Uiso   1.00
H94    H     0.37820   0.88070   0.07010   0.01267  Uiso   1.00
H95    H     0.89480   0.39640   0.10900   0.01267  Uiso   1.00
H96    H     0.64650   0.50680   0.87770   0.01267  Uiso   1.00
H97    H     0.69190   0.07010   0.18940   0.01267  Uiso   1.00
H98    H     0.75360   0.60410   0.13110   0.01267  Uiso   1.00
H99    H     0.10360   0.49840   0.21260   0.01267  Uiso   1.00
H100   H     0.35440   0.37820   0.25040   0.01267  Uiso   1.00
H101   H     0.10680   0.98390   0.19670   0.01267  Uiso   1.00
H102   H     0.87820   0.02380   0.62780   0.01267  Uiso   1.00
H103   H     0.92990   0.31060   0.80810   0.01267  Uiso   1.00
H104   H     0.50830   0.64920   0.37750   0.01267  Uiso   1.00
H105   H     0.18110   0.11070   0.00080   0.01267  Uiso   1.00
H106   H     0.85050   0.47300   0.60410   0.01267  Uiso   1.00
H107   H     0.80160   0.80370   0.89330   0.01267  Uiso   1.00
H108   H     0.47620   0.85440   0.10400   0.01267  Uiso   1.00
H109   H     0.19840   0.19630   0.10670   0.01267  Uiso   1.00
H110   H     0.30810   0.92990   0.81060   0.01267  Uiso   1.00
H111   H     0.58960   0.09170   0.39330   0.01267  Uiso   1.00
H112   H     0.08770   0.40670   0.89060   0.01267  Uiso   1.00
H113   H     0.89060   0.98390   0.30290   0.01267  Uiso   1.00
H114   H     0.64950   0.25360   0.62250   0.01267  Uiso   1.00
H115   H     0.12910   0.76880   0.62230   0.01267  Uiso   1.00
H116   H     0.12250   0.64950   0.75360   0.01267  Uiso   1.00
H117   H     0.89100   0.78740   0.28580   0.01267  Uiso   1.00
H118   H     0.89590   0.14950   0.02700   0.01267  Uiso   1.00
H119   H     0.87710   0.78720   0.98390   0.01267  Uiso   1.00
H120   H     0.74640   0.87750   0.85050   0.01267  Uiso   1.00
H121   H     0.08960   0.69630   0.49790   0.01267  Uiso   1.00
H122   H     0.89330   0.58960   0.59170   0.01267  Uiso   1.00
H123   H     0.30290   0.81900   0.91230   0.01267  Uiso   1.00
H124   H     0.89320   0.01610   0.80330   0.01267  Uiso   1.00
H125   H     0.12780   0.87820   0.52380   0.01267  Uiso   1.00
H126   H     0.50160   0.28740   0.39640   0.01267  Uiso   1.00
H127   H     0.88980   0.87160   0.09000   0.01267  Uiso   1.00
H128   H     0.61930   0.49750   0.68940   0.01267  Uiso   1.00
H129   H     0.07010   0.68940   0.19190   0.01267  Uiso   1.00
H130   H     0.62910   0.00680   0.36030   0.01267  Uiso   1.00
H131   H     0.00160   0.60520   0.21420   0.01267  Uiso   1.00
H132   H     0.64560   0.62180   0.74960   0.01267  Uiso   1.00
H133   H     0.62230   0.35350   0.99320   0.01267  Uiso   1.00
H134   H     0.87220   0.12180   0.47620   0.01267  Uiso   1.00
H135   H     0.89010   0.38930   0.57040   0.01267  Uiso   1.00
H136   H     0.21420   0.10900   0.71260   0.01267  Uiso   1.00
H137   H     0.00250   0.12180   0.69190   0.01267  Uiso   1.00
H138   H     0.57010   0.37820   0.38070   0.01267  Uiso   1.00
H139   H     0.78740   0.78580   0.39100   0.01267  Uiso   1.00
H140   H     0.62250   0.77170   0.63080   0.01267  Uiso   1.00
H141   H     0.28580   0.99840   0.89480   0.01267  Uiso   1.00
H142   H     0.98180   0.78160   0.87160   0.01267  Uiso   1.00
H143   H     0.09000   0.71840   0.70020   0.01267  Uiso   1.00
H144   H     0.72830   0.85080   0.35910   0.01267  Uiso   1.00
H145   H     0.18100   0.58770   0.19710   0.01267  Uiso   1.00
H146   H     0.14950   0.52700   0.39590   0.01267  Uiso   1.00
H147   H     0.97620   0.87220   0.62180   0.01267  Uiso   1.00
H148   H     0.58770   0.69710   0.68100   0.01267  Uiso   1.00
H149   H     0.02380   0.12780   0.37820   0.01267  Uiso   1.00
H150   H     0.01920   0.32110   0.91170   0.01267  Uiso   1.00
H151   H     0.88070   0.57010   0.87820   0.01267  Uiso   1.00
H152   H     0.50080   0.18110   0.61070   0.01267  Uiso   1.00
H153   H     0.10400   0.74960   0.12780   0.01267  Uiso   1.00
H154   H     0.78580   0.89100   0.28740   0.01267  Uiso   1.00
H155   H     0.13110   0.02700   0.87750   0.01267  Uiso   1.00
H156   H     0.68030   0.57040   0.18110   0.01267  Uiso   1.00
H157   H     0.80330   0.28720   0.41010   0.01267  Uiso   1.00
H158   H     0.25360   0.12250   0.14950   0.01267  Uiso   1.00
H159   H     0.50680   0.37770   0.14650   0.01267  Uiso   1.00
H160   H     0.59330   0.60940   0.41230   0.01267  Uiso   1.00
H161   H     0.48080   0.39250   0.30190   0.01267  Uiso   1.00
H162   H     0.63110   0.75360   0.10410   0.01267  Uiso   1.00
H163   H     0.12840   0.41000   0.61020   0.01267  Uiso   1.00
H164   H     0.31060   0.30810   0.42990   0.01267  Uiso   1.00
H165   H     0.01820   0.21840   0.12840   0.01267  Uiso   1.00
H166   H     0.80190   0.48080   0.89250   0.01267  Uiso   1.00
H167   H     0.12180   0.97620   0.37220   0.01267  Uiso   1.00
H168   H     0.27170   0.14920   0.64090   0.01267  Uiso   1.00
H169   H     0.71280   0.08990   0.69670   0.01267  Uiso   1.00
H170   H     0.10520   0.60360   0.89100   0.01267  Uiso   1.00
H171   H     0.47300   0.10410   0.35050   0.01267  Uiso   1.00
H172   H     0.41000   0.11020   0.62840   0.01267  Uiso   1.00
H173   H     0.12230   0.12910   0.26880   0.01267  Uiso   1.00
H174   H     0.78720   0.48390   0.37710   0.01267  Uiso   1.00
H175   H     0.10940   0.01610   0.69710   0.01267  Uiso   1.00
H176   H     0.39320   0.58990   0.87710   0.01267  Uiso   1.00
H177   H     0.10990   0.61070   0.42960   0.01267  Uiso   1.00
H178   H     0.68940   0.69190   0.57010   0.01267  Uiso   1.00
H179   H     0.87160   0.59000   0.38980   0.01267  Uiso   1.00
H180   H     0.28720   0.91010   0.30330   0.01267  Uiso   1.00
H181   H     0.37750   0.22830   0.36920   0.01267  Uiso   1.00
H182   H     0.41040   0.90830   0.60670   0.01267  Uiso   1.00
H183   H     0.62180   0.11930   0.92990   0.01267  Uiso   1.00
H184   H     0.82110   0.30190   0.90940   0.01267  Uiso   1.00
H185   H     0.19710   0.10940   0.51610   0.01267  Uiso   1.00
H186   H     0.20020   0.09000   0.21840   0.01267  Uiso   1.00
H187   H     0.71420   0.00160   0.10520   0.01267  Uiso   1.00
H188   H     0.13970   0.37090   0.49320   0.01267  Uiso   1.00
H189   H     0.87770   0.87090   0.73120   0.01267  Uiso   1.00
H190   H     0.62780   0.10400   0.24960   0.01267  Uiso   1.00
H191   H     0.19630   0.60670   0.69840   0.01267  Uiso   1.00
H192   H     0.73120   0.36030   0.35350   0.01267  Uiso   1.00
H193   H     0.85350   0.73120   0.86030   0.01267  Uiso   1.00
H194   H     0.80810   0.99750   0.37820   0.01267  Uiso   1.00
H195   H     0.18940   0.61930   0.99750   0.01267  Uiso   1.00
H196   H     0.37220   0.89600   0.75040   0.01267  Uiso   1.00
H197   H     0.39640   0.60900   0.39480   0.01267  Uiso   1.00
H198   H     0.52380   0.14560   0.89600   0.01267  Uiso   1.00
H199   H     0.00830   0.63080   0.85910   0.01267  Uiso   1.00
H200   H     0.09060   0.89250   0.41170   0.01267  Uiso   1.00
H201   H     0.39250   0.80190   0.98080   0.01267  Uiso   1.00
H202   H     0.99170   0.36920   0.14090   0.01267  Uiso   1.00
H203   H     0.11070   0.50080   0.68110   0.01267  Uiso   1.00
H204   H     0.21280   0.51610   0.62290   0.01267  Uiso   1.00
H205   H     0.35350   0.49320   0.12230   0.01267  Uiso   1.00
H206   H     0.60990   0.18030   0.49920   0.01267  Uiso   1.00
H207   H     0.99920   0.60990   0.68030   0.01267  Uiso   1.00
H208   H     0.51820   0.38980   0.79980   0.01267  Uiso   1.00
H209   H     0.13080   0.62250   0.27170   0.01267  Uiso   1.00
H210   H     0.99840   0.39480   0.78580   0.01267  Uiso   1.00
H211   H     0.69710   0.18100   0.08770   0.01267  Uiso   1.00
H212   H     0.28160   0.79980   0.41000   0.01267  Uiso   1.00
H213   H     0.32110   0.41170   0.51920   0.01267  Uiso   1.00
H214   H     0.22830   0.86920   0.87750   0.01267  Uiso   1.00
H215   H     0.49920   0.81890   0.38930   0.01267  Uiso   1.00
H216   H     0.85440   0.60400   0.97620   0.01267  Uiso   1.00
H217   H     0.59060   0.17890   0.19810   0.01267  Uiso   1.00
H218   H     0.60680   0.41010   0.12290   0.01267  Uiso   1.00
H219   H     0.60410   0.63110   0.25360   0.01267  Uiso   1.00
H220   H     0.87750   0.50830   0.14920   0.01267  Uiso   1.00
H221   H     0.86920   0.37750   0.72830   0.01267  Uiso   1.00
H222   H     0.71840   0.20020   0.59000   0.01267  Uiso   1.00
H223   H     0.52700   0.89590   0.64950   0.01267  Uiso   1.00
H224   H     0.42960   0.31890   0.81970   0.01267  Uiso   1.00
H225   H     0.19670   0.71280   0.58990   0.01267  Uiso   1.00
H226   H     0.10410   0.85050   0.97300   0.01267  Uiso   1.00
H227   H     0.24640   0.39590   0.86890   0.01267  Uiso   1.00
H228   H     0.31970   0.42960   0.81890   0.01267  Uiso   1.00
H229   H     0.14560   0.39600   0.02380   0.01267  Uiso   1.00
H230   H     0.60750   0.19810   0.01920   0.01267  Uiso   1.00
H231   H     0.48180   0.61020   0.20020   0.01267  Uiso   1.00
H232   H     0.69670   0.10680   0.48390   0.01267  Uiso   1.00
H233   H     0.37750   0.13110   0.52700   0.01267  Uiso   1.00
H234   H     0.49840   0.71260   0.60360   0.01267  Uiso   1.00
H235   H     0.37160   0.98180   0.28160   0.01267  Uiso   1.00
H236   H     0.62250   0.86890   0.47300   0.01267  Uiso   1.00
H237   H     0.09170   0.89330   0.08960   0.01267  Uiso   1.00
H238   H     0.30190   0.40940   0.32110   0.01267  Uiso   1.00
H239   H     0.38930   0.07040   0.39010   0.01267  Uiso   1.00
H240   H     0.70020   0.48180   0.11020   0.01267  Uiso   1.00
H241   H     0.26880   0.63970   0.64650   0.01267  Uiso   1.00
H242   H     0.89640   0.50160   0.78740   0.01267  Uiso   1.00
H243   H     0.64090   0.99170   0.86920   0.01267  Uiso   1.00
H244   H     0.38070   0.50250   0.31060   0.01267  Uiso   1.00
H245   H     0.41010   0.62290   0.10680   0.01267  Uiso   1.00
H246   H     0.10750   0.08830   0.40940   0.01267  Uiso   1.00
H247   H     0.74960   0.62780   0.60400   0.01267  Uiso   1.00
H248   H     0.12250   0.49170   0.85080   0.01267  Uiso   1.00
H249   H     0.88930   0.49920   0.31890   0.01267  Uiso   1.00
H250   H     0.98390   0.80290   0.39060   0.01267  Uiso   1.00
H251   H     0.75040   0.35440   0.87820   0.01267  Uiso   1.00
H252   H     0.30160   0.40830   0.99790   0.01267  Uiso   1.00
H253   H     0.76880   0.12230   0.62910   0.01267  Uiso   1.00
H254   H     0.41230   0.30290   0.31900   0.01267  Uiso   1.00
H255   H     0.10670   0.41040   0.40830   0.01267  Uiso   1.00
H256   H     0.51920   0.60750   0.69810   0.01267  Uiso   1.00
H257   H     0.99790   0.08960   0.19630   0.01267  Uiso   1.00
H258   H     0.01610   0.19710   0.60940   0.01267  Uiso   1.00
H259   H     0.68100   0.48390   0.59330   0.01267  Uiso   1.00
H260   H     0.68110   0.68030   0.07040   0.01267  Uiso   1.00
H261   H     0.14090   0.27170   0.64920   0.01267  Uiso   1.00
H262   H     0.90830   0.10670   0.91040   0.01267  Uiso   1.00
H263   H     0.49170   0.35080   0.62250   0.01267  Uiso   1.00
H264   H     0.21840   0.62840   0.51820   0.01267  Uiso   1.00
H265   H     0.60900   0.89480   0.89640   0.01267  Uiso   1.00
H266   H     0.51610   0.12290   0.71280   0.01267  Uiso   1.00
H267   H     0.77170   0.13080   0.12250   0.01267  Uiso   1.00
H268   H     0.60940   0.91230   0.09330   0.01267  Uiso   1.00
H269   H     0.02700   0.37750   0.63110   0.01267  Uiso   1.00
H270   H     0.23120   0.87770   0.37090   0.01267  Uiso   1.00
H271   H     0.50250   0.81060   0.88070   0.01267  Uiso   1.00
H272   H     0.85080   0.85910   0.22830   0.01267  Uiso   1.00
H273   H     0.64920   0.87750   0.00830   0.01267  Uiso   1.00
H274   H     0.38980   0.29980   0.01820   0.01267  Uiso   1.00
H275   H     0.89250   0.91170   0.59060   0.01267  Uiso   1.00
H276   H     0.18030   0.99920   0.10990   0.01267  Uiso   1.00
H277   H     0.37820   0.75040   0.85440   0.01267  Uiso   1.00
H278   H     0.60670   0.19840   0.69630   0.01267  Uiso   1.00
H279   H     0.98080   0.67890   0.08830   0.01267  Uiso   1.00
H280   H     0.90940   0.10750   0.58830   0.01267  Uiso   1.00
H281   H     0.99750   0.87820   0.30810   0.01267  Uiso   1.00
H282   H     0.81970   0.00080   0.89010   0.01267  Uiso   1.00
H283   H     0.31890   0.31970   0.92960   0.01267  Uiso   1.00
H284   H     0.14650   0.26880   0.13970   0.01267  Uiso   1.00
H285   H     0.19190   0.00250   0.62180   0.01267  Uiso   1.00
H286   H     0.31900   0.51610   0.40670   0.01267  Uiso   1.00
H287   H     0.39100   0.10520   0.10360   0.01267  Uiso   1.00
H288   H     0.37710   0.39320   0.08990   0.01267  Uiso   1.00
C1     C     0.54550   0.24550   0.10380   0.01267  Uiso   1.00
C2     C     0.64110   0.02200   0.18070   0.01267  Uiso   1.00
C3     C     0.34130   0.46040   0.31930   0.01267  Uiso   1.00
C4     C     0.46160   0.30170   0.35950   0.01267  Uiso   1.00
C5     C     0.06020   0.34080   0.58680   0.01267  Uiso   1.00
C6     C     0.09440   0.87620   0.93540   0.01267  Uiso   1.00
C7     C     0.60080   0.34910   0.96790   0.01267  Uiso   1.00
C8     C     0.05830   0.20000   0.45450   0.01267  Uiso   1.00
C9     C     0.87620   0.43540   0.59440   0.01267  Uiso   1.00
C10    C     0.45790   0.18460   0.54530   0.01267  Uiso   1.00
C11    C     0.87730   0.92480   0.26410   0.01267  Uiso   1.00
C12    C     0.58770   0.84240   0.02810   0.01267  Uiso   1.00
C13    C     0.55830   0.10380   0.85830   0.01267  Uiso   1.00
C14    C     0.05110   0.39890   0.63380   0.01267  Uiso   1.00
C15    C     0.33000   0.93710   0.80330   0.01267  Uiso   1.00
C16    C     0.21840   0.17590   0.76170   0.01267  Uiso   1.00
C17    C     0.09110   0.95530   0.17320   0.01267  Uiso   1.00
C18    C     0.38740   0.63220   0.44480   0.01267  Uiso   1.00
C19    C     0.45310   0.79740   0.02450   0.01267  Uiso   1.00
C20    C     0.54330   0.76170   0.58580   0.01267  Uiso   1.00
C21    C     0.88740   0.44260   0.75520   0.01267  Uiso   1.00
C22    C     0.78060   0.43980   0.52660   0.01267  Uiso   1.00
C23    C     0.40560   0.57190   0.63010   0.01267  Uiso   1.00
C24    C     0.86620   0.94890   0.10110   0.01267  Uiso   1.00
C25    C     0.25170   0.61880   0.65090   0.01267  Uiso   1.00
C26    C     0.64170   0.10420   0.44190   0.01267  Uiso   1.00
C27    C     0.53960   0.18070   0.15870   0.01267  Uiso   1.00
C28    C     0.13380   0.43710   0.10710   0.01267  Uiso   1.00
C29    C     0.94590   0.07630   0.83320   0.01267  Uiso   1.00
C30    C     0.54680   0.44150   0.17710   0.01267  Uiso   1.00
C31    C     0.40010   0.06290   0.37140   0.01267  Uiso   1.00
C32    C     0.79820   0.91740   0.80720   0.01267  Uiso   1.00
C33    C     0.39920   0.65090   0.03210   0.01267  Uiso   1.00
C34    C     0.26170   0.21840   0.67590   0.01267  Uiso   1.00
C35    C     0.59840   0.18100   0.98980   0.01267  Uiso   1.00
C36    C     0.57520   0.95250   0.83930   0.01267  Uiso   1.00
C37    C     0.45750   0.28160   0.54330   0.01267  Uiso   1.00
C38    C     0.30020   0.96250   0.35830   0.01267  Uiso   1.00
C39    C     0.95470   0.54210   0.31540   0.01267  Uiso   1.00
C40    C     0.81540   0.95470   0.04210   0.01267  Uiso   1.00
C41    C     0.86620   0.56290   0.89290   0.01267  Uiso   1.00
C42    C     0.36990   0.44180   0.27550   0.01267  Uiso   1.00
C43    C     0.29740   0.47270   0.04370   0.01267  Uiso   1.00
C44    C     0.36970   0.82290   0.26440   0.01267  Uiso   1.00
C45    C     0.55920   0.84100   0.43540   0.01267  Uiso   1.00
C46    C     0.04960   0.13230   0.39890   0.01267  Uiso   1.00
C47    C     0.15870   0.47800   0.11910   0.01267  Uiso   1.00
C48    C     0.06290   0.87140   0.90010   0.01267  Uiso   1.00
C49    C     0.65220   0.23490   0.60110   0.01267  Uiso   1.00
C50    C     0.24310   0.57630   0.63040   0.01267  Uiso   1.00
C51    C     0.61670   0.39870   0.58960   0.01267  Uiso   1.00
C52    C     0.58080   0.70890   0.66310   0.01267  Uiso   1.00
C53    C     0.97340   0.21940   0.06020   0.01267  Uiso   1.00
C54    C     0.65070   0.60110   0.73340   0.01267  Uiso   1.00
C55    C     0.30170   0.85950   0.96160   0.01267  Uiso   1.00
C56    C     0.63380   0.52670   0.69670   0.01267  Uiso   1.00
C57    C     0.43540   0.09440   0.37620   0.01267  Uiso   1.00
C58    C     0.42480   0.04750   0.16070   0.01267  Uiso   1.00
C59    C     0.53210   0.39920   0.15090   0.01267  Uiso   1.00
C60    C     0.47340   0.41320   0.75400   0.01267  Uiso   1.00
C61    C     0.93980   0.65920   0.41320   0.01267  Uiso   1.00
C62    C     0.94480   0.38740   0.13220   0.01267  Uiso   1.00
C63    C     0.89290   0.83000   0.52670   0.01267  Uiso   1.00
C64    C     0.76170   0.08580   0.04330   0.01267  Uiso   1.00
C65    C     0.92860   0.15570   0.45310   0.01267  Uiso   1.00
C66    C     0.24630   0.67530   0.70260   0.01267  Uiso   1.00
C67    C     0.24550   0.60380   0.04550   0.01267  Uiso   1.00
C68    C     0.41730   0.36620   0.76510   0.01267  Uiso   1.00
C69    C     0.80120   0.24050   0.34170   0.01267  Uiso   1.00
C70    C     0.10120   0.25950   0.06070   0.01267  Uiso   1.00
C71    C     0.41230   0.15760   0.97190   0.01267  Uiso   1.00
C72    C     0.02660   0.78060   0.93980   0.01267  Uiso   1.00
C73    C     0.60380   0.54550   0.74550   0.01267  Uiso   1.00
C74    C     0.36620   0.26510   0.91730   0.01267  Uiso   1.00
C75    C     0.91040   0.38330   0.10130   0.01267  Uiso   1.00
C76    C     0.41750   0.52730   0.81860   0.01267  Uiso   1.00
C77    C     0.16050   0.62040   0.47990   0.01267  Uiso   1.00
C78    C     0.62860   0.19150   0.52870   0.01267  Uiso   1.00
C79    C     0.29130   0.97270   0.39020   0.01267  Uiso   1.00
C80    C     0.26510   0.41730   0.86620   0.01267  Uiso   1.00
C81    C     0.73830   0.78160   0.32410   0.01267  Uiso   1.00
C82    C     0.45670   0.23830   0.41420   0.01267  Uiso   1.00
C83    C     0.36770   0.91730   0.76660   0.01267  Uiso   1.00
C84    C     0.55780   0.89790   0.85950   0.01267  Uiso   1.00
C85    C     0.86770   0.10110   0.45040   0.01267  Uiso   1.00
C86    C     0.80910   0.89870   0.28200   0.01267  Uiso   1.00
C87    C     0.39620   0.45450   0.25450   0.01267  Uiso   1.00
C88    C     0.10420   0.94190   0.14170   0.01267  Uiso   1.00
C89    C     0.42370   0.86960   0.25690   0.01267  Uiso   1.00
C90    C     0.11920   0.11020   0.91740   0.01267  Uiso   1.00
C91    C     0.65760   0.74530   0.68570   0.01267  Uiso   1.00
C92    C     0.10110   0.65220   0.73490   0.01267  Uiso   1.00
C93    C     0.58270   0.63380   0.23490   0.01267  Uiso   1.00
C94    C     0.90010   0.52870   0.33720   0.01267  Uiso   1.00
C95    C     0.61940   0.96710   0.86570   0.01267  Uiso   1.00
C96    C     0.24480   0.18740   0.63220   0.01267  Uiso   1.00
C97    C     0.66630   0.09440   0.22450   0.01267  Uiso   1.00
C98    C     0.63230   0.08270   0.23340   0.01267  Uiso   1.00
C99    C     0.58260   0.19120   0.18100   0.01267  Uiso   1.00
C100   C     0.02710   0.41040   0.80910   0.01267  Uiso   1.00
C101   C     0.08270   0.84780   0.94890   0.01267  Uiso   1.00
C102   C     0.44170   0.89620   0.14170   0.01267  Uiso   1.00
C103   C     0.60130   0.91040   0.88330   0.01267  Uiso   1.00
C104   C     0.75370   0.13430   0.10140   0.01267  Uiso   1.00
C105   C     0.95040   0.86770   0.60110   0.01267  Uiso   1.00
C106   C     0.27400   0.45970   0.88850   0.01267  Uiso   1.00
C107   C     0.67590   0.95750   0.91420   0.01267  Uiso   1.00
C108   C     0.32290   0.45320   0.05850   0.01267  Uiso   1.00
C109   C     0.95530   0.67320   0.59110   0.01267  Uiso   1.00
C110   C     0.97130   0.37140   0.30850   0.01267  Uiso   1.00
C111   C     0.41040   0.30910   0.52710   0.01267  Uiso   1.00
C112   C     0.28060   0.75400   0.34080   0.01267  Uiso   1.00
C113   C     0.04210   0.58740   0.72670   0.01267  Uiso   1.00
C114   C     0.34010   0.03840   0.89790   0.01267  Uiso   1.00
C115   C     0.19280   0.61020   0.49100   0.01267  Uiso   1.00
C116   C     0.05520   0.61260   0.86780   0.01267  Uiso   1.00
C117   C     0.33720   0.30850   0.93710   0.01267  Uiso   1.00
C118   C     0.44080   0.15900   0.56460   0.01267  Uiso   1.00
C119   C     0.96710   0.36570   0.11940   0.01267  Uiso   1.00
C120   C     0.45250   0.37730   0.61320   0.01267  Uiso   1.00
C121   C     0.45950   0.65830   0.89880   0.01267  Uiso   1.00
C122   C     0.18740   0.13220   0.74480   0.01267  Uiso   1.00
C123   C     0.73560   0.05850   0.60530   0.01267  Uiso   1.00
C124   C     0.18060   0.04010   0.16050   0.01267  Uiso   1.00
C125   C     0.08260   0.90160   0.39140   0.01267  Uiso   1.00
C126   C     0.91730   0.15220   0.05110   0.01267  Uiso   1.00
C127   C     0.59440   0.65900   0.21820   0.01267  Uiso   1.00
C128   C     0.75370   0.32470   0.29740   0.01267  Uiso   1.00
C129   C     0.11320   0.45250   0.87730   0.01267  Uiso   1.00
C130   C     0.78160   0.82410   0.23830   0.01267  Uiso   1.00
C131   C     0.30000   0.85830   0.75450   0.01267  Uiso   1.00
C132   C     0.05740   0.44480   0.81260   0.01267  Uiso   1.00
C133   C     0.24530   0.08770   0.55960   0.01267  Uiso   1.00
C134   C     0.65830   0.39880   0.95950   0.01267  Uiso   1.00
C135   C     0.86960   0.75690   0.92370   0.01267  Uiso   1.00
C136   C     0.15920   0.71940   0.74600   0.01267  Uiso   1.00
C137   C     0.20890   0.12810   0.54580   0.01267  Uiso   1.00
C138   C     0.85890   0.03960   0.38090   0.01267  Uiso   1.00
C139   C     0.41320   0.25400   0.97340   0.01267  Uiso   1.00
C140   C     0.08210   0.17320   0.21790   0.01267  Uiso   1.00
C141   C     0.61150   0.72600   0.04030   0.01267  Uiso   1.00
C142   C     0.77330   0.95790   0.91260   0.01267  Uiso   1.00
C143   C     0.60700   0.04170   0.21910   0.01267  Uiso   1.00
C144   C     0.74630   0.84770   0.38060   0.01267  Uiso   1.00
C145   C     0.25520   0.88740   0.94260   0.01267  Uiso   1.00
C146   C     0.22450   0.63010   0.05820   0.01267  Uiso   1.00
C147   C     0.23490   0.10110   0.15220   0.01267  Uiso   1.00
C148   C     0.13010   0.40560   0.07190   0.01267  Uiso   1.00
C149   C     0.13220   0.24480   0.68740   0.01267  Uiso   1.00
C150   C     0.95250   0.33930   0.07520   0.01267  Uiso   1.00
C151   C     0.54580   0.91770   0.83690   0.01267  Uiso   1.00
C152   C     0.80850   0.97130   0.87140   0.01267  Uiso   1.00
C153   C     0.47290   0.28200   0.38330   0.01267  Uiso   1.00
C154   C     0.11940   0.25370   0.65230   0.01267  Uiso   1.00
C155   C     0.63220   0.94480   0.88740   0.01267  Uiso   1.00
C156   C     0.91320   0.93980   0.15920   0.01267  Uiso   1.00
C157   C     0.09990   0.47130   0.66280   0.01267  Uiso   1.00
C158   C     0.02450   0.72710   0.07140   0.01267  Uiso   1.00
C159   C     0.89140   0.08260   0.40160   0.01267  Uiso   1.00
C160   C     0.60710   0.13380   0.93710   0.01267  Uiso   1.00
C161   C     0.11150   0.07120   0.88550   0.01267  Uiso   1.00
C162   C     0.03840   0.39790   0.84010   0.01267  Uiso   1.00
C163   C     0.05820   0.92810   0.33370   0.01267  Uiso   1.00
C164   C     0.39580   0.53750   0.83770   0.01267  Uiso   1.00
C165   C     0.17590   0.26170   0.71840   0.01267  Uiso   1.00
C166   C     0.32260   0.38790   0.28090   0.01267  Uiso   1.00
C167   C     0.03290   0.63430   0.88060   0.01267  Uiso   1.00
C168   C     0.54530   0.86070   0.58740   0.01267  Uiso   1.00
C169   C     0.96160   0.60210   0.15990   0.01267  Uiso   1.00
C170   C     0.60530   0.04680   0.36970   0.01267  Uiso   1.00
C171   C     0.09440   0.72450   0.16630   0.01267  Uiso   1.00
C172   C     0.31860   0.41750   0.02730   0.01267  Uiso   1.00
C173   C     0.13380   0.05110   0.89890   0.01267  Uiso   1.00
C174   C     0.17710   0.23560   0.13030   0.01267  Uiso   1.00
C175   C     0.05410   0.92370   0.16680   0.01267  Uiso   1.00
C176   C     0.38850   0.27400   0.95970   0.01267  Uiso   1.00
C177   C     0.97270   0.89020   0.79130   0.01267  Uiso   1.00
C178   C     0.62380   0.21820   0.55920   0.01267  Uiso   1.00
C179   C     0.93930   0.69880   0.54050   0.01267  Uiso   1.00
C180   C     0.08270   0.73340   0.13230   0.01267  Uiso   1.00
C181   C     0.78200   0.80910   0.39870   0.01267  Uiso   1.00
C182   C     0.04050   0.93930   0.19880   0.01267  Uiso   1.00
C183   C     0.85830   0.30020   0.46250   0.01267  Uiso   1.00
C184   C     0.37730   0.11320   0.95250   0.01267  Uiso   1.00
C185   C     0.82410   0.73830   0.28160   0.01267  Uiso   1.00
C186   C     0.81900   0.51020   0.90160   0.01267  Uiso   1.00
C187   C     0.95750   0.41420   0.17590   0.01267  Uiso   1.00
C188   C     0.35950   0.55780   0.39790   0.01267  Uiso   1.00
C189   C     0.93470   0.89300   0.61210   0.01267  Uiso   1.00
C190   C     0.37960   0.02010   0.33950   0.01267  Uiso   1.00
C191   C     0.72710   0.57140   0.52450   0.01267  Uiso   1.00
C192   C     0.29740   0.34430   0.27290   0.01267  Uiso   1.00
C193   C     0.55520   0.68740   0.44260   0.01267  Uiso   1.00
C194   C     0.34770   0.10140   0.96710   0.01267  Uiso   1.00
C195   C     0.15830   0.19880   0.25950   0.01267  Uiso   1.00
C196   C     0.25370   0.15230   0.61940   0.01267  Uiso   1.00
C197   C     0.76410   0.87730   0.42480   0.01267  Uiso   1.00
C198   C     0.28180   0.40560   0.84100   0.01267  Uiso   1.00
C199   C     0.01020   0.69120   0.10860   0.01267  Uiso   1.00
C200   C     0.27330   0.36070   0.81540   0.01267  Uiso   1.00
C201   C     0.15990   0.05780   0.69830   0.01267  Uiso   1.00
C202   C     0.37620   0.78180   0.44080   0.01267  Uiso   1.00
C203   C     0.89890   0.04960   0.63230   0.01267  Uiso   1.00
C204   C     0.36070   0.31540   0.77330   0.01267  Uiso   1.00
C205   C     0.32680   0.90890   0.54470   0.01267  Uiso   1.00
C206   C     0.20260   0.47550   0.04690   0.01267  Uiso   1.00
C207   C     0.13030   0.39470   0.45320   0.01267  Uiso   1.00
C208   C     0.89860   0.53290   0.15230   0.01267  Uiso   1.00
C209   C     0.67710   0.54680   0.94150   0.01267  Uiso   1.00
C210   C     0.24630   0.86570   0.89860   0.01267  Uiso   1.00
C211   C     0.41740   0.11920   0.61020   0.01267  Uiso   1.00
C212   C     0.81260   0.86780   0.25520   0.01267  Uiso   1.00
C213   C     0.41260   0.77330   0.45790   0.01267  Uiso   1.00
C214   C     0.88080   0.88980   0.08260   0.01267  Uiso   1.00
C215   C     0.84770   0.88060   0.24630   0.01267  Uiso   1.00
C216   C     0.53840   0.69830   0.64050   0.01267  Uiso   1.00
C217   C     0.40890   0.58210   0.86420   0.01267  Uiso   1.00
C218   C     0.14050   0.12040   0.95990   0.01267  Uiso   1.00
C219   C     0.52870   0.83720   0.40010   0.01267  Uiso   1.00
C220   C     0.31260   0.05740   0.94480   0.01267  Uiso   1.00
C221   C     0.16280   0.09990   0.97130   0.01267  Uiso   1.00
C222   C     0.39140   0.98980   0.80880   0.01267  Uiso   1.00
C223   C     0.20260   0.24630   0.17530   0.01267  Uiso   1.00
C224   C     0.88790   0.06530   0.60700   0.01267  Uiso   1.00
C225   C     0.37190   0.08080   0.91770   0.01267  Uiso   1.00
C226   C     0.78180   0.94080   0.87620   0.01267  Uiso   1.00
C227   C     0.02200   0.68070   0.14110   0.01267  Uiso   1.00
C228   C     0.88730   0.83320   0.75690   0.01267  Uiso   1.00
C229   C     0.02730   0.82470   0.07100   0.01267  Uiso   1.00
C230   C     0.84130   0.52200   0.88090   0.01267  Uiso   1.00
C231   C     0.33950   0.81940   0.45990   0.01267  Uiso   1.00
C232   C     0.58680   0.74600   0.02660   0.01267  Uiso   1.00
C233   C     0.71940   0.24600   0.65920   0.01267  Uiso   1.00
C234   C     0.15220   0.55110   0.41730   0.01267  Uiso   1.00
C235   C     0.81430   0.34240   0.75470   0.01267  Uiso   1.00
C236   C     0.67000   0.06290   0.19670   0.01267  Uiso   1.00
C237   C     0.12810   0.04580   0.70890   0.01267  Uiso   1.00
C238   C     0.46250   0.66230   0.10420   0.01267  Uiso   1.00
C239   C     0.04680   0.86970   0.10530   0.01267  Uiso   1.00
C240   C     0.34170   0.60120   0.04050   0.01267  Uiso   1.00
C241   C     0.13230   0.89890   0.54960   0.01267  Uiso   1.00
C242   C     0.25470   0.81430   0.84240   0.01267  Uiso   1.00
C243   C     0.04550   0.94170   0.30000   0.01267  Uiso   1.00
C244   C     0.39470   0.95320   0.63030   0.01267  Uiso   1.00
C245   C     0.22670   0.04210   0.08740   0.01267  Uiso   1.00
C246   C     0.95630   0.92900   0.75370   0.01267  Uiso   1.00
C247   C     0.16680   0.74310   0.61270   0.01267  Uiso   1.00
C248   C     0.84010   0.94220   0.30170   0.01267  Uiso   1.00
C249   C     0.75450   0.39620   0.95450   0.01267  Uiso   1.00
C250   C     0.11910   0.14110   0.46040   0.01267  Uiso   1.00
C251   C     0.20000   0.95450   0.55830   0.01267  Uiso   1.00
C252   C     0.60120   0.54050   0.84170   0.01267  Uiso   1.00
C253   C     0.25450   0.30000   0.35830   0.01267  Uiso   1.00
C254   C     0.39890   0.13380   0.55110   0.01267  Uiso   1.00
C255   C     0.18570   0.57120   0.45970   0.01267  Uiso   1.00
C256   C     0.56290   0.39290   0.36620   0.01267  Uiso   1.00
C257   C     0.91920   0.58230   0.12810   0.01267  Uiso   1.00
C258   C     0.28200   0.88330   0.97290   0.01267  Uiso   1.00
C259   C     0.94190   0.64170   0.60420   0.01267  Uiso   1.00
C260   C     0.03960   0.88090   0.35890   0.01267  Uiso   1.00
C261   C     0.66050   0.18060   0.54010   0.01267  Uiso   1.00
C262   C     0.90890   0.04470   0.82680   0.01267  Uiso   1.00
C263   C     0.44180   0.77550   0.86990   0.01267  Uiso   1.00
C264   C     0.71800   0.11670   0.02710   0.01267  Uiso   1.00
C265   C     0.74550   0.70000   0.64170   0.01267  Uiso   1.00
C266   C     0.52450   0.45310   0.29740   0.01267  Uiso   1.00
C267   C     0.64170   0.44170   0.39620   0.01267  Uiso   1.00
C268   C     0.18460   0.04530   0.95790   0.01267  Uiso   1.00
C269   C     0.68060   0.52010   0.14050   0.01267  Uiso   1.00
C270   C     0.08250   0.90110   0.10980   0.01267  Uiso   1.00
C271   C     0.19150   0.02870   0.12860   0.01267  Uiso   1.00
C272   C     0.03750   0.14170   0.19980   0.01267  Uiso   1.00
C273   C     0.14170   0.69980   0.53750   0.01267  Uiso   1.00
C274   C     0.89880   0.74050   0.93930   0.01267  Uiso   1.00
C275   C     0.89890   0.34780   0.26510   0.01267  Uiso   1.00
C276   C     0.04030   0.81430   0.92880   0.01267  Uiso   1.00
C277   C     0.77400   0.88550   0.81430   0.01267  Uiso   1.00
C278   C     0.41730   0.54960   0.65070   0.01267  Uiso   1.00
C279   C     0.63040   0.55410   0.88730   0.01267  Uiso   1.00
C280   C     0.21910   0.67740   0.11210   0.01267  Uiso   1.00
C281   C     0.63430   0.38060   0.53290   0.01267  Uiso   1.00
C282   C     0.93710   0.30330   0.83000   0.01267  Uiso   1.00
C283   C     0.36780   0.05520   0.11260   0.01267  Uiso   1.00
C284   C     0.32470   0.79740   0.25370   0.01267  Uiso   1.00
C285   C     0.91230   0.94040   0.25470   0.01267  Uiso   1.00
C286   C     0.20180   0.08260   0.19280   0.01267  Uiso   1.00
C287   C     0.04170   0.71910   0.10700   0.01267  Uiso   1.00
C288   C     0.57100   0.02730   0.32470   0.01267  Uiso   1.00
C289   C     0.24830   0.89920   0.36710   0.01267  Uiso   1.00
C290   C     0.28210   0.91790   0.32680   0.01267  Uiso   1.00
C291   C     0.45470   0.13930   0.41260   0.01267  Uiso   1.00
C292   C     0.87140   0.40010   0.56290   0.01267  Uiso   1.00
C293   C     0.12380   0.56460   0.40560   0.01267  Uiso   1.00
C294   C     0.13930   0.91260   0.95470   0.01267  Uiso   1.00
C295   C     0.83930   0.38680   0.76410   0.01267  Uiso   1.00
C296   C     0.36960   0.44590   0.11270   0.01267  Uiso   1.00
C297   C     0.36570   0.61940   0.46710   0.01267  Uiso   1.00
C298   C     0.55960   0.97190   0.81430   0.01267  Uiso   1.00
C299   C     0.70180   0.50900   0.11920   0.01267  Uiso   1.00
C300   C     0.20870   0.59890   0.68140   0.01267  Uiso   1.00
C301   C     0.89020   0.29130   0.47270   0.01267  Uiso   1.00
C302   C     0.23590   0.12270   0.57520   0.01267  Uiso   1.00
C303   C     0.05920   0.62380   0.71820   0.01267  Uiso   1.00
C304   C     0.57190   0.13010   0.90560   0.01267  Uiso   1.00
C305   C     0.86990   0.59440   0.92810   0.01267  Uiso   1.00
C306   C     0.34780   0.76510   0.39890   0.01267  Uiso   1.00
C307   C     0.45530   0.86420   0.28210   0.01267  Uiso   1.00
C308   C     0.45630   0.70260   0.02730   0.01267  Uiso   1.00
C309   C     0.19980   0.55810   0.66230   0.01267  Uiso   1.00
C310   C     0.25400   0.47340   0.91320   0.01267  Uiso   1.00
C311   C     0.15070   0.41730   0.04960   0.01267  Uiso   1.00
C312   C     0.80720   0.38980   0.50900   0.01267  Uiso   1.00
C313   C     0.16310   0.58080   0.20890   0.01267  Uiso   1.00
C314   C     0.04750   0.66070   0.92480   0.01267  Uiso   1.00
C315   C     0.39020   0.91750   0.59890   0.01267  Uiso   1.00
C316   C     0.74630   0.04370   0.57100   0.01267  Uiso   1.00
C317   C     0.84430   0.04690   0.57140   0.01267  Uiso   1.00
C318   C     0.88090   0.85890   0.53960   0.01267  Uiso   1.00
C319   C     0.91770   0.33690   0.04580   0.01267  Uiso   1.00
C320   C     0.52200   0.38090   0.34130   0.01267  Uiso   1.00
C321   C     0.10140   0.46710   0.84770   0.01267  Uiso   1.00
C322   C     0.26440   0.94150   0.39470   0.01267  Uiso   1.00
C323   C     0.29110   0.83690   0.91920   0.01267  Uiso   1.00
C324   C     0.96040   0.11910   0.64110   0.01267  Uiso   1.00
C325   C     0.79110   0.87190   0.45420   0.01267  Uiso   1.00
C326   C     0.43710   0.60710   0.63380   0.01267  Uiso   1.00
C327   C     0.76440   0.36970   0.32290   0.01267  Uiso   1.00
C328   C     0.35950   0.31940   0.97990   0.01267  Uiso   1.00
C329   C     0.09890   0.39020   0.41750   0.01267  Uiso   1.00
C330   C     0.97270   0.17530   0.92900   0.01267  Uiso   1.00
C331   C     0.74530   0.18570   0.15760   0.01267  Uiso   1.00
C332   C     0.45040   0.84930   0.08270   0.01267  Uiso   1.00
C333   C     0.33770   0.39580   0.03750   0.01267  Uiso   1.00
C334   C     0.92810   0.83370   0.55820   0.01267  Uiso   1.00
C335   C     0.36710   0.96790   0.61880   0.01267  Uiso   1.00
C336   C     0.83320   0.25690   0.38730   0.01267  Uiso   1.00
C337   C     0.63290   0.03210   0.38120   0.01267  Uiso   1.00
C338   C     0.19120   0.68100   0.08260   0.01267  Uiso   1.00
C339   C     0.38680   0.26410   0.33930   0.01267  Uiso   1.00
C340   C     0.73590   0.16070   0.11320   0.01267  Uiso   1.00
C341   C     0.70890   0.16310   0.08080   0.01267  Uiso   1.00
C342   C     0.91790   0.82680   0.78210   0.01267  Uiso   1.00
C343   C     0.90110   0.60980   0.58250   0.01267  Uiso   1.00
C344   C     0.79740   0.52450   0.95310   0.01267  Uiso   1.00
C345   C     0.58270   0.45040   0.34930   0.01267  Uiso   1.00
C346   C     0.54250   0.71840   0.45670   0.01267  Uiso   1.00
C347   C     0.10710   0.17000   0.47330   0.01267  Uiso   1.00
C348   C     0.54170   0.43470   0.32260   0.01267  Uiso   1.00
C349   C     0.19830   0.15990   0.55780   0.01267  Uiso   1.00
C350   C     0.40560   0.34100   0.78180   0.01267  Uiso   1.00
C351   C     0.89870   0.78200   0.30910   0.01267  Uiso   1.00
C352   C     0.60420   0.46250   0.16230   0.01267  Uiso   1.00
C353   C     0.46040   0.81930   0.84130   0.01267  Uiso   1.00
C354   C     0.70260   0.52730   0.95630   0.01267  Uiso   1.00
C355   C     0.34080   0.08680   0.56020   0.01267  Uiso   1.00
C356   C     0.94890   0.60110   0.36620   0.01267  Uiso   1.00
C357   C     0.26410   0.83930   0.88680   0.01267  Uiso   1.00
C358   C     0.64050   0.44220   0.60210   0.01267  Uiso   1.00
C359   C     0.56070   0.10120   0.75950   0.01267  Uiso   1.00
C360   C     0.50900   0.61920   0.20180   0.01267  Uiso   1.00
C361   C     0.42880   0.04030   0.31430   0.01267  Uiso   1.00
C362   C     0.92370   0.66680   0.55410   0.01267  Uiso   1.00
C363   C     0.61910   0.15870   0.97800   0.01267  Uiso   1.00
C364   C     0.30330   0.33000   0.43710   0.01267  Uiso   1.00
C365   C     0.68570   0.44040   0.52810   0.01267  Uiso   1.00
C366   C     0.55810   0.16230   0.69980   0.01267  Uiso   1.00
C367   C     0.91260   0.45470   0.63930   0.01267  Uiso   1.00
C368   C     0.31940   0.47990   0.85950   0.01267  Uiso   1.00
C369   C     0.52010   0.64050   0.18060   0.01267  Uiso   1.00
C370   C     0.83370   0.05820   0.42810   0.01267  Uiso   1.00
C371   C     0.08230   0.66310   0.95420   0.01267  Uiso   1.00
C372   C     0.82290   0.76440   0.86970   0.01267  Uiso   1.00
C373   C     0.90560   0.27550   0.83370   0.01267  Uiso   1.00
C374   C     0.18140   0.20870   0.09890   0.01267  Uiso   1.00
C375   C     0.65900   0.71820   0.09440   0.01267  Uiso   1.00
C376   C     0.68100   0.58260   0.69120   0.01267  Uiso   1.00
C377   C     0.67530   0.20260   0.74630   0.01267  Uiso   1.00
C378   C     0.96790   0.11880   0.86710   0.01267  Uiso   1.00
C379   C     0.97990   0.16050   0.12040   0.01267  Uiso   1.00
C380   C     0.31930   0.35890   0.47800   0.01267  Uiso   1.00
C381   C     0.52730   0.31860   0.91750   0.01267  Uiso   1.00
C382   C     0.02810   0.68570   0.94040   0.01267  Uiso   1.00
C383   C     0.11880   0.36710   0.46790   0.01267  Uiso   1.00
C384   C     0.12860   0.59990   0.43710   0.01267  Uiso   1.00
C385   C     0.71790   0.08210   0.67320   0.01267  Uiso   1.00
C386   C     0.55110   0.91730   0.65220   0.01267  Uiso   1.00
C387   C     0.30720   0.79820   0.41740   0.01267  Uiso   1.00
C388   C     0.54690   0.20260   0.97550   0.01267  Uiso   1.00
C389   C     0.10980   0.70870   0.52730   0.01267  Uiso   1.00
C390   C     0.63580   0.59110   0.91790   0.01267  Uiso   1.00
C391   C     0.74480   0.11260   0.05740   0.01267  Uiso   1.00
C392   C     0.14050   0.53840   0.19830   0.01267  Uiso   1.00
C393   C     0.99100   0.19280   0.11020   0.01267  Uiso   1.00
C394   C     0.35830   0.55830   0.60380   0.01267  Uiso   1.00
C395   C     0.06070   0.30120   0.45950   0.01267  Uiso   1.00
C396   C     0.52670   0.19670   0.13380   0.01267  Uiso   1.00
C397   C     0.55740   0.74480   0.61260   0.01267  Uiso   1.00
C398   C     0.11260   0.55740   0.24480   0.01267  Uiso   1.00
C399   C     0.76660   0.34930   0.89890   0.01267  Uiso   1.00
C400   C     0.59110   0.41790   0.13580   0.01267  Uiso   1.00
C401   C     0.69980   0.03750   0.64170   0.01267  Uiso   1.00
C402   C     0.10110   0.95040   0.36770   0.01267  Uiso   1.00
C403   C     0.43930   0.89880   0.24050   0.01267  Uiso   1.00
C404   C     0.41790   0.63580   0.09110   0.01267  Uiso   1.00
C405   C     0.46710   0.34770   0.60140   0.01267  Uiso   1.00
C406   C     0.67740   0.61210   0.71910   0.01267  Uiso   1.00
C407   C     0.02010   0.83950   0.87960   0.01267  Uiso   1.00
C408   C     0.47550   0.54690   0.70260   0.01267  Uiso   1.00
C409   C     0.13040   0.24310   0.07630   0.01267  Uiso   1.00
C410   C     0.38120   0.84910   0.24830   0.01267  Uiso   1.00
C411   C     0.88120   0.63290   0.53210   0.01267  Uiso   1.00
C412   C     0.56020   0.97340   0.71940   0.01267  Uiso   1.00
C413   C     0.79130   0.40110   0.31860   0.01267  Uiso   1.00
C414   C     0.66280   0.69150   0.06290   0.01267  Uiso   1.00
C415   C     0.52730   0.45630   0.20260   0.01267  Uiso   1.00
C416   C     0.95310   0.92860   0.65570   0.01267  Uiso   1.00
C417   C     0.44040   0.02810   0.18570   0.01267  Uiso   1.00
C418   C     0.80880   0.31900   0.91740   0.01267  Uiso   1.00
C419   C     0.72450   0.66630   0.59440   0.01267  Uiso   1.00
C420   C     0.06530   0.10700   0.38790   0.01267  Uiso   1.00
C421   C     0.81430   0.42880   0.54030   0.01267  Uiso   1.00
C422   C     0.61320   0.73590   0.66070   0.01267  Uiso   1.00
C423   C     0.83720   0.90010   0.02870   0.01267  Uiso   1.00
C424   C     0.07190   0.16630   0.44180   0.01267  Uiso   1.00
C425   C     0.47190   0.41230   0.65760   0.01267  Uiso   1.00
C426   C     0.24050   0.84170   0.30120   0.01267  Uiso   1.00
C427   C     0.04690   0.07140   0.34430   0.01267  Uiso   1.00
C428   C     0.44190   0.83770   0.30020   0.01267  Uiso   1.00
C429   C     0.83000   0.02670   0.39290   0.01267  Uiso   1.00
C430   C     0.48980   0.59840   0.68100   0.01267  Uiso   1.00
C431   C     0.94040   0.75470   0.41230   0.01267  Uiso   1.00
C432   C     0.35890   0.97800   0.81930   0.01267  Uiso   1.00
C433   C     0.95830   0.28090   0.89300   0.01267  Uiso   1.00
C434   C     0.44150   0.67710   0.04680   0.01267  Uiso   1.00
C435   C     0.66310   0.45420   0.58230   0.01267  Uiso   1.00
C436   C     0.85830   0.25450   0.80000   0.01267  Uiso   1.00
C437   C     0.14110   0.96040   0.61910   0.01267  Uiso   1.00
C438   C     0.54010   0.85950   0.37960   0.01267  Uiso   1.00
C439   C     0.74600   0.52660   0.08680   0.01267  Uiso   1.00
C440   C     0.39300   0.95830   0.78090   0.01267  Uiso   1.00
C441   C     0.86780   0.75520   0.31260   0.01267  Uiso   1.00
C442   C     0.15230   0.11940   0.75370   0.01267  Uiso   1.00
C443   C     0.17000   0.97330   0.60710   0.01267  Uiso   1.00
C444   C     0.23830   0.91420   0.95670   0.01267  Uiso   1.00
C445   C     0.45320   0.55850   0.82290   0.01267  Uiso   1.00
C446   C     0.81930   0.34130   0.96040   0.01267  Uiso   1.00
C447   C     0.97800   0.31930   0.85890   0.01267  Uiso   1.00
C448   C     0.12040   0.45990   0.64050   0.01267  Uiso   1.00
C449   C     0.80020   0.44190   0.33770   0.01267  Uiso   1.00
C450   C     0.67320   0.09110   0.45530   0.01267  Uiso   1.00
C451   C     0.44890   0.08270   0.34780   0.01267  Uiso   1.00
C452   C     0.86420   0.78210   0.95530   0.01267  Uiso   1.00
C453   C     0.94080   0.37620   0.28180   0.01267  Uiso   1.00
C454   C     0.38080   0.29820   0.99100   0.01267  Uiso   1.00
C455   C     0.45450   0.75450   0.89620   0.01267  Uiso   1.00
C456   C     0.61020   0.99100   0.69280   0.01267  Uiso   1.00
C457   C     0.91740   0.09840   0.60860   0.01267  Uiso   1.00
C458   C     0.45990   0.14050   0.62040   0.01267  Uiso   1.00
C459   C     0.78090   0.32260   0.88790   0.01267  Uiso   1.00
C460   C     0.33930   0.57520   0.45250   0.01267  Uiso   1.00
C461   C     0.41920   0.29110   0.33690   0.01267  Uiso   1.00
C462   C     0.73340   0.63230   0.58270   0.01267  Uiso   1.00
C463   C     0.86970   0.60530   0.54680   0.01267  Uiso   1.00
C464   C     0.89790   0.35950   0.05780   0.01267  Uiso   1.00
C465   C     0.77290   0.29740   0.84430   0.01267  Uiso   1.00
C466   C     0.95790   0.41260   0.27330   0.01267  Uiso   1.00
C467   C     0.44480   0.31260   0.55740   0.01267  Uiso   1.00
C468   C     0.61450   0.88850   0.42880   0.01267  Uiso   1.00
C469   C     0.08580   0.54330   0.26170   0.01267  Uiso   1.00
C470   C     0.71820   0.59440   0.15900   0.01267  Uiso   1.00
C471   C     0.15760   0.47190   0.91230   0.01267  Uiso   1.00
C472   C     0.88330   0.47290   0.78200   0.01267  Uiso   1.00
C473   C     0.91420   0.45670   0.73830   0.01267  Uiso   1.00
C474   C     0.21790   0.54470   0.63580   0.01267  Uiso   1.00
C475   C     0.63930   0.68460   0.22670   0.01267  Uiso   1.00
C476   C     0.61880   0.15090   0.75170   0.01267  Uiso   1.00
C477   C     0.38790   0.78090   0.82260   0.01267  Uiso   1.00
C478   C     0.62270   0.88680   0.04750   0.01267  Uiso   1.00
C479   C     0.09840   0.10860   0.41740   0.01267  Uiso   1.00
C480   C     0.39790   0.34010   0.53840   0.01267  Uiso   1.00
C481   C     0.51020   0.40160   0.31900   0.01267  Uiso   1.00
C482   C     0.21820   0.05920   0.12380   0.01267  Uiso   1.00
C483   C     0.21940   0.56020   0.47340   0.01267  Uiso   1.00
C484   C     0.44590   0.61270   0.86960   0.01267  Uiso   1.00
C485   C     0.89580   0.05810   0.85830   0.01267  Uiso   1.00
C486   C     0.36620   0.47330   0.30330   0.01267  Uiso   1.00
C487   C     0.58580   0.32410   0.54250   0.01267  Uiso   1.00
C488   C     0.61270   0.36960   0.94590   0.01267  Uiso   1.00
C489   C     0.75520   0.81260   0.36780   0.01267  Uiso   1.00
C490   C     0.33370   0.90560   0.77550   0.01267  Uiso   1.00
C491   C     0.16630   0.94180   0.57190   0.01267  Uiso   1.00
C492   C     0.30910   0.02710   0.91040   0.01267  Uiso   1.00
C493   C     0.04470   0.32680   0.40890   0.01267  Uiso   1.00
C494   C     0.38980   0.00900   0.30720   0.01267  Uiso   1.00
C495   C     0.84780   0.44890   0.58270   0.01267  Uiso   1.00
C496   C     0.28090   0.39300   0.45830   0.01267  Uiso   1.00
C497   C     0.18070   0.65870   0.03960   0.01267  Uiso   1.00
C498   C     0.88850   0.92880   0.11450   0.01267  Uiso   1.00
C499   C     0.56460   0.90560   0.62380   0.01267  Uiso   1.00
C500   C     0.95970   0.18570   0.07120   0.01267  Uiso   1.00
C501   C     0.42860   0.97550   0.77290   0.01267  Uiso   1.00
C502   C     0.27550   0.33370   0.40560   0.01267  Uiso   1.00
C503   C     0.62810   0.91920   0.08230   0.01267  Uiso   1.00
C504   C     0.34910   0.46790   0.10080   0.01267  Uiso   1.00
C505   C     0.52660   0.58680   0.24600   0.01267  Uiso   1.00
C506   C     0.54210   0.81540   0.45470   0.01267  Uiso   1.00
C507   C     0.19090   0.10130   0.71800   0.01267  Uiso   1.00
C508   C     0.39290   0.86620   0.06290   0.01267  Uiso   1.00
C509   C     0.84100   0.93540   0.05920   0.01267  Uiso   1.00
C510   C     0.79740   0.75370   0.82470   0.01267  Uiso   1.00
C511   C     0.94220   0.80170   0.34010   0.01267  Uiso   1.00
C512   C     0.74830   0.38120   0.34910   0.01267  Uiso   1.00
C513   C     0.86070   0.08740   0.04530   0.01267  Uiso   1.00
C514   C     0.06290   0.69670   0.17000   0.01267  Uiso   1.00
C515   C     0.34430   0.77290   0.79740   0.01267  Uiso   1.00
C516   C     0.85950   0.87960   0.04010   0.01267  Uiso   1.00
C517   C     0.75690   0.42370   0.36960   0.01267  Uiso   1.00
C518   C     0.58740   0.22670   0.54210   0.01267  Uiso   1.00
C519   C     0.57140   0.02450   0.22710   0.01267  Uiso   1.00
C520   C     0.34240   0.25470   0.31430   0.01267  Uiso   1.00
C521   C     0.66070   0.42480   0.54750   0.01267  Uiso   1.00
C522   C     0.38090   0.84130   0.02200   0.01267  Uiso   1.00
C523   C     0.23560   0.63030   0.67710   0.01267  Uiso   1.00
C524   C     0.92480   0.76410   0.37730   0.01267  Uiso   1.00
C525   C     0.15570   0.95310   0.42860   0.01267  Uiso   1.00
C526   C     0.15900   0.06460   0.94080   0.01267  Uiso   1.00
C527   C     0.95670   0.54250   0.21840   0.01267  Uiso   1.00
C528   C     0.56530   0.17740   0.95830   0.01267  Uiso   1.00
C529   C     0.45970   0.38850   0.77400   0.01267  Uiso   1.00
C530   C     0.69090   0.97290   0.08960   0.01267  Uiso   1.00
C531   C     0.42810   0.86990   0.09440   0.01267  Uiso   1.00
C532   C     0.71910   0.60700   0.54170   0.01267  Uiso   1.00
C533   C     0.80170   0.84010   0.44220   0.01267  Uiso   1.00
C534   C     0.92900   0.25370   0.45630   0.01267  Uiso   1.00
C535   C     0.82470   0.57100   0.52730   0.01267  Uiso   1.00
C536   C     0.68740   0.94260   0.05520   0.01267  Uiso   1.00
C537   C     0.86570   0.39860   0.74630   0.01267  Uiso   1.00
C538   C     0.65090   0.53210   0.89920   0.01267  Uiso   1.00
C539   C     0.63380   0.73490   0.08270   0.01267  Uiso   1.00
C540   C     0.47990   0.35950   0.81940   0.01267  Uiso   1.00
C541   C     0.04330   0.45750   0.78160   0.01267  Uiso   1.00
C542   C     0.92880   0.61450   0.38850   0.01267  Uiso   1.00
C543   C     0.89920   0.86710   0.74830   0.01267  Uiso   1.00
C544   C     0.30850   0.43710   0.83720   0.01267  Uiso   1.00
C545   C     0.11670   0.52710   0.21800   0.01267  Uiso   1.00
C546   C     0.30880   0.39140   0.48980   0.01267  Uiso   1.00
C547   C     0.41740   0.80880   0.81900   0.01267  Uiso   1.00
C548   C     0.89300   0.11210   0.43470   0.01267  Uiso   1.00
C549   C     0.72670   0.63930   0.18460   0.01267  Uiso   1.00
C550   C     0.38330   0.60130   0.41040   0.01267  Uiso   1.00
C551   C     0.88550   0.31430   0.27400   0.01267  Uiso   1.00
C552   C     0.12270   0.07520   0.73590   0.01267  Uiso   1.00
C553   C     0.91740   0.30720   0.29820   0.01267  Uiso   1.00
C554   C     0.75950   0.15830   0.69880   0.01267  Uiso   1.00
C555   C     0.42900   0.97270   0.67530   0.01267  Uiso   1.00
C556   C     0.61210   0.21910   0.17740   0.01267  Uiso   1.00
C557   C     0.82680   0.28210   0.41790   0.01267  Uiso   1.00
C558   C     0.25370   0.95630   0.42900   0.01267  Uiso   1.00
C559   C     0.19880   0.75950   0.65830   0.01267  Uiso   1.00
C560   C     0.25950   0.56070   0.60120   0.01267  Uiso   1.00
C561   C     0.07120   0.38550   0.61150   0.01267  Uiso   1.00
C562   C     0.84930   0.58270   0.95040   0.01267  Uiso   1.00
C563   C     0.25690   0.88730   0.33320   0.01267  Uiso   1.00
C564   C     0.82260   0.54170   0.93470   0.01267  Uiso   1.00
C565   C     0.65230   0.89860   0.03290   0.01267  Uiso   1.00
C566   C     0.54960   0.15070   0.91730   0.01267  Uiso   1.00
C567   C     0.96250   0.85830   0.80020   0.01267  Uiso   1.00
C568   C     0.72600   0.54030   0.11150   0.01267  Uiso   1.00
C569   C     0.94170   0.80000   0.54550   0.01267  Uiso   1.00
C570   C     0.52710   0.71800   0.61670   0.01267  Uiso   1.00
C571   C     0.43710   0.33720   0.80850   0.01267  Uiso   1.00
C572   C     0.38730   0.63040   0.05410   0.01267  Uiso   1.00
C573   C     0.17740   0.45830   0.06530   0.01267  Uiso   1.00
C574   C     0.55820   0.22450   0.13010   0.01267  Uiso   1.00
C575   C     0.69880   0.04050   0.43930   0.01267  Uiso   1.00
C576   C     0.07630   0.33320   0.44590   0.01267  Uiso   1.00
C577   C     0.22710   0.70260   0.15570   0.01267  Uiso   1.00
C578   C     0.32410   0.04250   0.08580   0.01267  Uiso   1.00
C579   C     0.86710   0.24830   0.39920   0.01267  Uiso   1.00
C580   C     0.10530   0.73560   0.55850   0.01267  Uiso   1.00
C581   C     0.97330   0.10710   0.67000   0.01267  Uiso   1.00
C582   C     0.89620   0.64170   0.94170   0.01267  Uiso   1.00
C583   C     0.84170   0.80120   0.74050   0.01267  Uiso   1.00
C584   C     0.08080   0.41770   0.87190   0.01267  Uiso   1.00
C585   C     0.95990   0.33950   0.31940   0.01267  Uiso   1.00
C586   C     0.17530   0.42900   0.47270   0.01267  Uiso   1.00
C587   C     0.07520   0.23590   0.62270   0.01267  Uiso   1.00
C588   C     0.10130   0.21800   0.69090   0.01267  Uiso   1.00
C589   C     0.04370   0.07100   0.24630   0.01267  Uiso   1.00
C590   C     0.08770   0.05960   0.74530   0.01267  Uiso   1.00
C591   C     0.88980   0.58260   0.38080   0.01267  Uiso   1.00
C592   C     0.04250   0.58580   0.82410   0.01267  Uiso   1.00
C593   C     0.58960   0.69090   0.47290   0.01267  Uiso   1.00
C594   C     0.97190   0.31430   0.05960   0.01267  Uiso   1.00
C595   C     0.95320   0.13030   0.89470   0.01267  Uiso   1.00
C596   C     0.43980   0.02660   0.28060   0.01267  Uiso   1.00
C597   C     0.58210   0.36420   0.90890   0.01267  Uiso   1.00
C598   C     0.49100   0.38080   0.79820   0.01267  Uiso   1.00
C599   C     0.66680   0.05410   0.42370   0.01267  Uiso   1.00
C600   C     0.93540   0.55920   0.34100   0.01267  Uiso   1.00
C601   C     0.40110   0.81860   0.29130   0.01267  Uiso   1.00
C602   C     0.11270   0.16680   0.24310   0.01267  Uiso   1.00
C603   C     0.43470   0.82260   0.04170   0.01267  Uiso   1.00
C604   C     0.73490   0.58270   0.13380   0.01267  Uiso   1.00
C605   C     0.28160   0.04330   0.95750   0.01267  Uiso   1.00
C606   C     0.30120   0.95950   0.56070   0.01267  Uiso   1.00
C607   C     0.38550   0.11150   0.57120   0.01267  Uiso   1.00
C608   C     0.61260   0.36780   0.55520   0.01267  Uiso   1.00
C609   C     0.65920   0.91320   0.43980   0.01267  Uiso   1.00
C610   C     0.10860   0.91740   0.59840   0.01267  Uiso   1.00
C611   C     0.04530   0.45790   0.68460   0.01267  Uiso   1.00
C612   C     0.63030   0.17710   0.73560   0.01267  Uiso   1.00
C613   C     0.74310   0.11270   0.66680   0.01267  Uiso   1.00
C614   C     0.94150   0.89470   0.76440   0.01267  Uiso   1.00
C615   C     0.71840   0.95670   0.04250   0.01267  Uiso   1.00
C616   C     0.95950   0.06070   0.80120   0.01267  Uiso   1.00
C617   C     0.14170   0.74550   0.20000   0.01267  Uiso   1.00
C618   C     0.11210   0.93470   0.39300   0.01267  Uiso   1.00
C619   C     0.80330   0.36620   0.97330   0.01267  Uiso   1.00
C620   C     0.97290   0.58960   0.19090   0.01267  Uiso   1.00
C621   C     0.55850   0.32290   0.95320   0.01267  Uiso   1.00
C622   C     0.46790   0.60080   0.84910   0.01267  Uiso   1.00
C623   C     0.08680   0.06020   0.84080   0.01267  Uiso   1.00
C624   C     0.45420   0.08230   0.16310   0.01267  Uiso   1.00
C625   C     0.54370   0.29740   0.97270   0.01267  Uiso   1.00
C626   C     0.05780   0.19830   0.65990   0.01267  Uiso   1.00
C627   C     0.39880   0.45950   0.15830   0.01267  Uiso   1.00
C628   C     0.88680   0.54750   0.12270   0.01267  Uiso   1.00
C629   C     0.08960   0.61670   0.89870   0.01267  Uiso   1.00
C630   C     0.21800   0.19090   0.60130   0.01267  Uiso   1.00
C631   C     0.87190   0.95420   0.29110   0.01267  Uiso   1.00
C632   C     0.93710   0.12860   0.09990   0.01267  Uiso   1.00
C633   C     0.60210   0.65990   0.46160   0.01267  Uiso   1.00
C634   C     0.91730   0.26660   0.86770   0.01267  Uiso   1.00
C635   C     0.52810   0.58770   0.34240   0.01267  Uiso   1.00
C636   C     0.02870   0.62860   0.69150   0.01267  Uiso   1.00
C637   C     0.13290   0.75170   0.60080   0.01267  Uiso   1.00
C638   C     0.13580   0.21790   0.04470   0.01267  Uiso   1.00
C639   C     0.68570   0.22600   0.61450   0.01267  Uiso   1.00
C640   C     0.47270   0.54370   0.79740   0.01267  Uiso   1.00
C641   C     0.66230   0.60420   0.96250   0.01267  Uiso   1.00
C642   C     0.47270   0.68140   0.08250   0.01267  Uiso   1.00
C643   C     0.11450   0.68570   0.72600   0.01267  Uiso   1.00
C644   C     0.22600   0.11450   0.18570   0.01267  Uiso   1.00
C645   C     0.68460   0.72670   0.13930   0.01267  Uiso   1.00
C646   C     0.34100   0.28180   0.90560   0.01267  Uiso   1.00
C647   C     0.04580   0.20890   0.62810   0.01267  Uiso   1.00
C648   C     0.33690   0.54580   0.41770   0.01267  Uiso   1.00
C649   C     0.58250   0.47270   0.18140   0.01267  Uiso   1.00
C650   C     0.26660   0.36770   0.41730   0.01267  Uiso   1.00
C651   C     0.41770   0.37190   0.58080   0.01267  Uiso   1.00
C652   C     0.04010   0.66050   0.68060   0.01267  Uiso   1.00
C653   C     0.38060   0.03290   0.13430   0.01267  Uiso   1.00
C654   C     0.10700   0.88790   0.56530   0.01267  Uiso   1.00
C655   C     0.95420   0.79110   0.37190   0.01267  Uiso   1.00
C656   C     0.54750   0.62270   0.38680   0.01267  Uiso   1.00
C657   C     0.18570   0.65760   0.24530   0.01267  Uiso   1.00
C658   C     0.70260   0.65570   0.72710   0.01267  Uiso   1.00
C659   C     0.68070   0.64110   0.52200   0.01267  Uiso   1.00
C660   C     0.35830   0.89580   0.55810   0.01267  Uiso   1.00
C661   C     0.69120   0.60860   0.51020   0.01267  Uiso   1.00
C662   C     0.59440   0.42810   0.36990   0.01267  Uiso   1.00
C663   C     0.88060   0.74630   0.34770   0.01267  Uiso   1.00
C664   C     0.69280   0.20180   0.58260   0.01267  Uiso   1.00
C665   C     0.03210   0.88120   0.13290   0.01267  Uiso   1.00
C666   C     0.61920   0.70180   0.00900   0.01267  Uiso   1.00
C667   C     0.00900   0.80720   0.88980   0.01267  Uiso   1.00
C668   C     0.39870   0.08960   0.11670   0.01267  Uiso   1.00
C669   C     0.18100   0.48980   0.09840   0.01267  Uiso   1.00
C670   C     0.08740   0.54530   0.36070   0.01267  Uiso   1.00
C671   C     0.54050   0.34170   0.10120   0.01267  Uiso   1.00
C672   C     0.34930   0.39890   0.26660   0.01267  Uiso   1.00
C673   C     0.44220   0.10210   0.14050   0.01267  Uiso   1.00
C674   C     0.10380   0.35830   0.05830   0.01267  Uiso   1.00
C675   C     0.60110   0.23340   0.15070   0.01267  Uiso   1.00
C676   C     0.81860   0.79130   0.90110   0.01267  Uiso   1.00
C677   C     0.69670   0.67000   0.56290   0.01267  Uiso   1.00
C678   C     0.55410   0.38730   0.13040   0.01267  Uiso   1.00
C679   C     0.84910   0.74830   0.88120   0.01267  Uiso   1.00
C680   C     0.68140   0.58250   0.97270   0.01267  Uiso   1.00
C681   C     0.08260   0.69280   0.70180   0.01267  Uiso   1.00
C682   C     0.64050   0.68060   0.02010   0.01267  Uiso   1.00
C683   C     0.47330   0.80330   0.86620   0.01267  Uiso   1.00
C684   C     0.45830   0.56530   0.67740   0.01267  Uiso   1.00
C685   C     0.83950   0.37960   0.52010   0.01267  Uiso   1.00
C686   C     0.60980   0.08250   0.40110   0.01267  Uiso   1.00
C687   C     0.05810   0.35830   0.39580   0.01267  Uiso   1.00
C688   C     0.98980   0.30880   0.89140   0.01267  Uiso   1.00
C689   C     0.89470   0.26440   0.44150   0.01267  Uiso   1.00
C690   C     0.53750   0.33770   0.89580   0.01267  Uiso   1.00
C691   C     0.02670   0.89290   0.33000   0.01267  Uiso   1.00
C692   C     0.41420   0.67590   0.45750   0.01267  Uiso   1.00
C693   C     0.78210   0.45530   0.36420   0.01267  Uiso   1.00
C694   C     0.69150   0.56290   0.16280   0.01267  Uiso   1.00
C695   C     0.58230   0.62810   0.41920   0.01267  Uiso   1.00
C696   C     0.57120   0.95970   0.68570   0.01267  Uiso   1.00
C697   C     0.80000   0.04550   0.44170   0.01267  Uiso   1.00
C698   C     0.75170   0.10080   0.63290   0.01267  Uiso   1.00
C699   C     0.83690   0.41920   0.79110   0.01267  Uiso   1.00
C700   C     0.60110   0.86620   0.44890   0.01267  Uiso   1.00
C701   C     0.95450   0.05830   0.70000   0.01267  Uiso   1.00
C702   C     0.10210   0.64050   0.94220   0.01267  Uiso   1.00
C703   C     0.97550   0.27290   0.92860   0.01267  Uiso   1.00
C704   C     0.13430   0.60140   0.25370   0.01267  Uiso   1.00
C705   C     0.31540   0.27330   0.86070   0.01267  Uiso   1.00
C706   C     0.65990   0.96160   0.10210   0.01267  Uiso   1.00
C707   C     0.23340   0.65070   0.10110   0.01267  Uiso   1.00
C708   C     0.54470   0.13580   0.71790   0.01267  Uiso   1.00
C709   C     0.40160   0.81900   0.01020   0.01267  Uiso   1.00
C710   C     0.11020   0.41740   0.61920   0.01267  Uiso   1.00
C711   C     0.57630   0.13040   0.74310   0.01267  Uiso   1.00
C712   C     0.17320   0.71790   0.58210   0.01267  Uiso   1.00
C713   C     0.59990   0.93710   0.62860   0.01267  Uiso   1.00
C714   C     0.31900   0.41740   0.30880   0.01267  Uiso   1.00
C715   C     0.94260   0.55520   0.18740   0.01267  Uiso   1.00
C716   C     0.83770   0.80020   0.94190   0.01267  Uiso   1.00
C717   C     0.07100   0.74630   0.54370   0.01267  Uiso   1.00
C718   C     0.39860   0.24630   0.36570   0.01267  Uiso   1.00
C719   C     0.16070   0.61320   0.23590   0.01267  Uiso   1.00
C720   C     0.70870   0.02730   0.60980   0.01267  Uiso   1.00
C721   C     0.90160   0.89140   0.58260   0.01267  Uiso   1.00
C722   C     0.58260   0.88080   0.38980   0.01267  Uiso   1.00
C723   C     0.87960   0.54010   0.35950   0.01267  Uiso   1.00
C724   C     0.63010   0.55820   0.72450   0.01267  Uiso   1.00
C725   C     0.65570   0.22710   0.20260   0.01267  Uiso   1.00
C726   C     0.84080   0.28060   0.25400   0.01267  Uiso   1.00
C727   C     0.91750   0.09890   0.89020   0.01267  Uiso   1.00
C728   C     0.31430   0.55960   0.47190   0.01267  Uiso   1.00
C729   C     0.16230   0.19980   0.05810   0.01267  Uiso   1.00
C730   C     0.24600   0.15920   0.21940   0.01267  Uiso   1.00
C731   C     0.05850   0.10530   0.23560   0.01267  Uiso   1.00
C732   C     0.75470   0.91230   0.44040   0.01267  Uiso   1.00
C733   C     0.90560   0.12380   0.06460   0.01267  Uiso   1.00
C734   C     0.81940   0.95990   0.83950   0.01267  Uiso   1.00
C735   C     0.05960   0.24530   0.58770   0.01267  Uiso   1.00
C736   C     0.65870   0.53960   0.68070   0.01267  Uiso   1.00
C737   C     0.39890   0.76660   0.84930   0.01267  Uiso   1.00
C738   C     0.59890   0.18140   0.70870   0.01267  Uiso   1.00
C739   C     0.27290   0.42860   0.47550   0.01267  Uiso   1.00
C740   C     0.56290   0.66280   0.19150   0.01267  Uiso   1.00
C741   C     0.76510   0.89890   0.84780   0.01267  Uiso   1.00
C742   C     0.53290   0.65230   0.39860   0.01267  Uiso   1.00
C743   C     0.69830   0.14050   0.03840   0.01267  Uiso   1.00
C744   C     0.85950   0.46160   0.80170   0.01267  Uiso   1.00
C745   C     0.60860   0.01020   0.19120   0.01267  Uiso   1.00
C746   C     0.70000   0.14170   0.24550   0.01267  Uiso   1.00
C747   C     0.47800   0.61910   0.65870   0.01267  Uiso   1.00
C748   C     0.36420   0.40890   0.08210   0.01267  Uiso   1.00
C749   C     0.10080   0.13290   0.25170   0.01267  Uiso   1.00
C750   C     0.77550   0.36990   0.94180   0.01267  Uiso   1.00
C751   C     0.75400   0.84080   0.78060   0.01267  Uiso   1.00
C752   C     0.62040   0.97990   0.66050   0.01267  Uiso   1.00
C753   C     0.07140   0.84430   0.54690   0.01267  Uiso   1.00
C754   C     0.54030   0.61150   0.22600   0.01267  Uiso   1.00
C755   C     0.02730   0.10980   0.20870   0.01267  Uiso   1.00
C756   C     0.06460   0.44080   0.65900   0.01267  Uiso   1.00
C757   C     0.19670   0.63380   0.02670   0.01267  Uiso   1.00
C758   C     0.15090   0.25170   0.11880   0.01267  Uiso   1.00
C759   C     0.47130   0.16280   0.59990   0.01267  Uiso   1.00
C760   C     0.60140   0.75370   0.63430   0.01267  Uiso   1.00
C761   C     0.94180   0.07190   0.66630   0.01267  Uiso   1.00
C762   C     0.74050   0.43930   0.39880   0.01267  Uiso   1.00
C763   C     0.33320   0.94590   0.57630   0.01267  Uiso   1.00
C764   C     0.29820   0.49100   0.88080   0.01267  Uiso   1.00
C765   C     0.37140   0.80850   0.47130   0.01267  Uiso   1.00
C766   C     0.31430   0.77400   0.38550   0.01267  Uiso   1.00
C767   C     0.84240   0.52810   0.08770   0.01267  Uiso   1.00
C768   C     0.44260   0.25520   0.38740   0.01267  Uiso   1.00
N1     N     0.00360   0.35980   0.83200   0.01267  Uiso   1.00
N2     N     0.84720   0.51140   0.36280   0.01267  Uiso   1.00
N3     N     0.13650   0.97340   0.14050   0.01267  Uiso   1.00
N4     N     0.33310   0.48990   0.34720   0.01267  Uiso   1.00
N5     N     0.16420   0.65280   0.51560   0.01267  Uiso   1.00
N6     N     0.83290   0.47340   0.33690   0.01267  Uiso   1.00
N7     N     0.35730   0.01410   0.84720   0.01267  Uiso   1.00
N8     N     0.85950   0.33290   0.49600   0.01267  Uiso   1.00
N9     N     0.84720   0.33310   0.98990   0.01267  Uiso   1.00
N10    N     0.50360   0.67160   0.64380   0.01267  Uiso   1.00
N11    N     0.48440   0.63720   0.14860   0.01267  Uiso   1.00
N12    N     0.01140   0.66420   0.64860   0.01267  Uiso   1.00
N13    N     0.33580   0.85140   0.48860   0.01267  Uiso   1.00
N14    N     0.15280   0.48860   0.63720   0.01267  Uiso   1.00
N15    N     0.65280   0.64270   0.48590   0.01267  Uiso   1.00
N16    N     0.47340   0.83690   0.33290   0.01267  Uiso   1.00
N17    N     0.50400   0.33690   0.86350   0.01267  Uiso   1.00
N18    N     0.85140   0.98860   0.83580   0.01267  Uiso   1.00
N19    N     0.97340   0.64050   0.63650   0.01267  Uiso   1.00
N20    N     0.15280   0.66690   0.01010   0.01267  Uiso   1.00
N21    N     0.83580   0.34720   0.48440   0.01267  Uiso   1.00
N22    N     0.84320   0.85730   0.51010   0.01267  Uiso   1.00
N23    N     0.14380   0.50360   0.17160   0.01267  Uiso   1.00
N24    N     0.14860   0.01140   0.16420   0.01267  Uiso   1.00
N25    N     0.15680   0.14270   0.48990   0.01267  Uiso   1.00
N26    N     0.98860   0.33580   0.35140   0.01267  Uiso   1.00
N27    N     0.49640   0.32840   0.35620   0.01267  Uiso   1.00
N28    N     0.64020   0.66800   0.49640   0.01267  Uiso   1.00
N29    N     0.33290   0.99600   0.35950   0.01267  Uiso   1.00
N30    N     0.99600   0.85950   0.83290   0.01267  Uiso   1.00
N31    N     0.16310   0.16710   0.02660   0.01267  Uiso   1.00
N32    N     0.16710   0.52660   0.66310   0.01267  Uiso   1.00
N33    N     0.01010   0.84320   0.35730   0.01267  Uiso   1.00
N34    N     0.00400   0.14050   0.16710   0.01267  Uiso   1.00
N35    N     0.99640   0.64020   0.16800   0.01267  Uiso   1.00
N36    N     0.97220   0.82840   0.33200   0.01267  Uiso   1.00
N37    N     0.51560   0.36280   0.85140   0.01267  Uiso   1.00
N38    N     0.16800   0.02780   0.67160   0.01267  Uiso   1.00
N39    N     0.85730   0.01010   0.34320   0.01267  Uiso   1.00
N40    N     0.48860   0.13720   0.65280   0.01267  Uiso   1.00
N41    N     0.67160   0.14380   0.00360   0.01267  Uiso   1.00
N42    N     0.83310   0.48590   0.84320   0.01267  Uiso   1.00
N43    N     0.64380   0.47220   0.64020   0.01267  Uiso   1.00
N44    N     0.14020   0.64380   0.97220   0.01267  Uiso   1.00
N45    N     0.33690   0.36350   0.00400   0.01267  Uiso   1.00
N46    N     0.35980   0.33200   0.50360   0.01267  Uiso   1.00
N47    N     0.16690   0.51410   0.15680   0.01267  Uiso   1.00
N48    N     0.63720   0.64860   0.98440   0.01267  Uiso   1.00
N49    N     0.66710   0.00400   0.64050   0.01267  Uiso   1.00
N50    N     0.13720   0.15280   0.98860   0.01267  Uiso   1.00
N51    N     0.02660   0.35950   0.36350   0.01267  Uiso   1.00
N52    N     0.48990   0.84720   0.83310   0.01267  Uiso   1.00
N53    N     0.01410   0.34720   0.85730   0.01267  Uiso   1.00
N54    N     0.33200   0.00360   0.85980   0.01267  Uiso   1.00
N55    N     0.66420   0.14860   0.51140   0.01267  Uiso   1.00
N56    N     0.51010   0.15280   0.16690   0.01267  Uiso   1.00
N57    N     0.51140   0.86280   0.34720   0.01267  Uiso   1.00
N58    N     0.36350   0.50400   0.83690   0.01267  Uiso   1.00
N59    N     0.17160   0.16800   0.52780   0.01267  Uiso   1.00
N60    N     0.35620   0.52780   0.35980   0.01267  Uiso   1.00
N61    N     0.82840   0.83200   0.47220   0.01267  Uiso   1.00
N62    N     0.98990   0.15680   0.64270   0.01267  Uiso   1.00
N63    N     0.66800   0.99640   0.14020   0.01267  Uiso   1.00
N64    N     0.85980   0.35620   0.02780   0.01267  Uiso   1.00
N65    N     0.14050   0.66710   0.50400   0.01267  Uiso   1.00
N66    N     0.86350   0.02660   0.85950   0.01267  Uiso   1.00
N67    N     0.64270   0.98590   0.15280   0.01267  Uiso   1.00
N68    N     0.85620   0.49640   0.82840   0.01267  Uiso   1.00
N69    N     0.66310   0.63650   0.99600   0.01267  Uiso   1.00
N70    N     0.83200   0.97220   0.32840   0.01267  Uiso   1.00
N71    N     0.02780   0.17160   0.66800   0.01267  Uiso   1.00
N72    N     0.48590   0.34320   0.33310   0.01267  Uiso   1.00
N73    N     0.32840   0.85620   0.99640   0.01267  Uiso   1.00
N74    N     0.51410   0.65680   0.66690   0.01267  Uiso   1.00
N75    N     0.64050   0.13650   0.47340   0.01267  Uiso   1.00
N76    N     0.34320   0.83310   0.98590   0.01267  Uiso   1.00
N77    N     0.98440   0.83580   0.84720   0.01267  Uiso   1.00
N78    N     0.52780   0.85980   0.85620   0.01267  Uiso   1.00
N79    N     0.47220   0.14020   0.14380   0.01267  Uiso   1.00
N80    N     0.01560   0.16420   0.15280   0.01267  Uiso   1.00
N81    N     0.65280   0.01560   0.66420   0.01267  Uiso   1.00
N82    N     0.35950   0.86350   0.52660   0.01267  Uiso   1.00
N83    N     0.83690   0.83290   0.97340   0.01267  Uiso   1.00
N84    N     0.49600   0.66310   0.13650   0.01267  Uiso   1.00
N85    N     0.52660   0.16310   0.66710   0.01267  Uiso   1.00
N86    N     0.36280   0.35140   0.01560   0.01267  Uiso   1.00
N87    N     0.65680   0.16690   0.01410   0.01267  Uiso   1.00
N88    N     0.98590   0.65280   0.14270   0.01267  Uiso   1.00
N89    N     0.35140   0.51560   0.86280   0.01267  Uiso   1.00
N90    N     0.14270   0.98990   0.65680   0.01267  Uiso   1.00
N91    N     0.34720   0.35730   0.51410   0.01267  Uiso   1.00
N92    N     0.64860   0.48440   0.13720   0.01267  Uiso   1.00
N93    N     0.66690   0.51010   0.65280   0.01267  Uiso   1.00
N94    N     0.34720   0.98440   0.33580   0.01267  Uiso   1.00
N95    N     0.86280   0.84720   0.01140   0.01267  Uiso   1.00
N96    N     0.63650   0.49600   0.16310   0.01267  Uiso   1.00
O1     O     0.80660   0.73690   0.79590   0.01267  Uiso   1.00
O2     O     0.91130   0.64530   0.91720   0.01267  Uiso   1.00
O3     O     0.16850   0.75970   0.19120   0.01267  Uiso   1.00
O4     O     0.28040   0.58850   0.59290   0.01267  Uiso   1.00
O5     O     0.00000   0.50000   0.73080   0.01267  Uiso   1.00
O6     O     0.73400   0.72810   0.64530   0.01267  Uiso   1.00
O7     O     0.35560   0.28700   0.78280   0.01267  Uiso   1.00
O8     O     0.93430   0.94860   0.66930   0.01267  Uiso   1.00
O9     O     0.92820   0.97640   0.26440   0.01267  Uiso   1.00
O10    O     0.33070   0.77930   0.76500   0.01267  Uiso   1.00
O11    O     0.93660   0.02520   0.77200   0.01267  Uiso   1.00
O12    O     0.48100   0.98240   0.23240   0.01267  Uiso   1.00
O13    O     0.69190   0.00440   0.41150   0.01267  Uiso   1.00
O14    O     0.51900   0.01760   0.76760   0.01267  Uiso   1.00
O15    O     0.66620   0.67480   0.24360   0.01267  Uiso   1.00
O16    O     0.23500   0.51430   0.06570   0.01267  Uiso   1.00
O17    O     0.79190   0.71640   0.28690   0.01267  Uiso   1.00
O18    O     0.70820   0.26090   0.68690   0.01267  Uiso   1.00
O19    O     0.42820   0.16380   0.95180   0.01267  Uiso   1.00
O20    O     0.24360   0.06880   0.07740   0.01267  Uiso   1.00
O21    O     0.32580   0.58760   0.51100   0.01267  Uiso   1.00
O22    O     0.57180   0.31210   0.56510   0.01267  Uiso   1.00
O23    O     0.93030   0.94100   0.73690   0.01267  Uiso   1.00
O24    O     0.48240   0.50140   0.25000   0.01267  Uiso   1.00
O25    O     0.78690   0.79190   0.21640   0.01267  Uiso   1.00
O26    O     0.94100   0.23690   0.43030   0.01267  Uiso   1.00
O27    O     0.24860   0.76760   0.75000   0.01267  Uiso   1.00
O28    O     0.42720   0.78280   0.49580   0.01267  Uiso   1.00
O29    O     0.99450   0.94330   0.68480   0.01267  Uiso   1.00
O30    O     0.28280   0.35560   0.78700   0.01267  Uiso   1.00
O31    O     0.98570   0.72070   0.05140   0.01267  Uiso   1.00
O32    O     0.99560   0.08850   0.80810   0.01267  Uiso   1.00
O33    O     0.50590   0.23400   0.08870   0.01267  Uiso   1.00
O34    O     0.00000   0.50000   0.26920   0.01267  Uiso   1.00
O35    O     0.58150   0.01230   0.75140   0.01267  Uiso   1.00
O36    O     0.58870   0.50590   0.73400   0.01267  Uiso   1.00
O37    O     0.29590   0.80660   0.23690   0.01267  Uiso   1.00
O38    O     0.23240   0.75000   0.25140   0.01267  Uiso   1.00
O39    O     0.25640   0.33380   0.82520   0.01267  Uiso   1.00
O40    O     0.76920  -0.00000  -0.00000   0.01267  Uiso   1.00
O41    O     0.50420   0.78700   0.43140   0.01267  Uiso   1.00
O42    O     0.99580   0.42720   0.28280   0.01267  Uiso   1.00
O43    O     0.55550   0.04990   0.31380   0.01267  Uiso   1.00
O44    O     0.79590   0.55900   0.48930   0.01267  Uiso   1.00
O45    O     0.40880   0.43150   0.24030   0.01267  Uiso   1.00
O46    O     0.05120   0.74150   0.05670   0.01267  Uiso   1.00
O47    O     0.02520   0.27200   0.43660   0.01267  Uiso   1.00
O48    O     0.70810   0.99500   0.92450   0.01267  Uiso   1.00
O49    O     0.99500   0.42450   0.20810   0.01267  Uiso   1.00
O50    O     0.97870   0.68690   0.42600   0.01267  Uiso   1.00
O51    O     0.14440   0.92720   0.93140   0.01267  Uiso   1.00
O52    O     0.00550   0.05670   0.31520   0.01267  Uiso   1.00
O53    O     0.71200   0.47640   0.54820   0.01267  Uiso   1.00
O54    O     0.33620   0.26440   0.28800   0.01267  Uiso   1.00
O55    O     0.55270   0.57400   0.26090   0.01267  Uiso   1.00
O56    O     0.83070   0.06570   0.55140   0.01267  Uiso   1.00
O57    O     0.27930   0.44860   0.51430   0.01267  Uiso   1.00
O58    O     0.21720   0.00420   0.07280   0.01267  Uiso   1.00
O59    O     0.58850   0.09290   0.78040   0.01267  Uiso   1.00
O60    O     0.42820   0.68790   0.43490   0.01267  Uiso   1.00
O61    O     0.54820   0.57180   0.33620   0.01267  Uiso   1.00
O62    O     0.73240   0.48100   0.48240   0.01267  Uiso   1.00
O63    O     0.02360   0.23560   0.57180   0.01267  Uiso   1.00
O64    O     0.78700   0.93140   0.00420   0.01267  Uiso   1.00
O65    O     0.95010   0.18620   0.94450   0.01267  Uiso   1.00
O66    O     0.68520   0.76180   0.67420   0.01267  Uiso   1.00
O67    O     0.30970   0.31520   0.25850   0.01267  Uiso   1.00
O68    O     0.24860   0.76090   0.33010   0.01267  Uiso   1.00
O69    O     0.08850   0.30810   0.49560   0.01267  Uiso   1.00
O70    O     0.58280   0.08870   0.85470   0.01267  Uiso   1.00
O71    O     0.43430   0.76500   0.98570   0.01267  Uiso   1.00
O72    O     0.50560   0.26390   0.95010   0.01267  Uiso   1.00
O73    O     0.51760   0.49860   0.75000   0.01267  Uiso   1.00
O74    O     0.00860   0.43120   0.67480   0.01267  Uiso   1.00
O75    O     0.56970   0.30660   0.01070   0.01267  Uiso   1.00
O76    O     0.16620   0.92260   0.99140   0.01267  Uiso   1.00
O77    O     0.50000   0.23080   0.50000   0.01267  Uiso   1.00
O78    O     0.26390   0.45010   0.00560   0.01267  Uiso   1.00
O79    O     0.49440   0.73610   0.04990   0.01267  Uiso   1.00
O80    O     0.22800   0.75320   0.66460   0.01267  Uiso   1.00
O81    O     0.57740   0.24360   0.56880   0.01267  Uiso   1.00
O82    O     0.06510   0.57180   0.81210   0.01267  Uiso   1.00
O83    O     0.75140   0.23240   0.25000   0.01267  Uiso   1.00
O84    O     0.64530   0.41720   0.41130   0.01267  Uiso   1.00
O85    O     0.68690   0.92600   0.47870   0.01267  Uiso   1.00
O86    O     0.66380   0.73560   0.71200   0.01267  Uiso   1.00
O87    O     0.50670   0.75970   0.57180   0.01267  Uiso   1.00
O88    O     0.00670   0.43490   0.74700   0.01267  Uiso   1.00
O89    O     0.56850   0.25970   0.09120   0.01267  Uiso   1.00
O90    O     0.06920   0.08150   0.83010   0.01267  Uiso   1.00
O91    O     0.69030   0.68480   0.74150   0.01267  Uiso   1.00
O92    O     0.75830   0.31380   0.26390   0.01267  Uiso   1.00
O93    O     0.91720   0.77190   0.50590   0.01267  Uiso   1.00
O94    O     0.56880   0.82520   0.49140   0.01267  Uiso   1.00
O95    O     0.93140   0.50420   0.28700   0.01267  Uiso   1.00
O96    O     0.49450   0.80970   0.05120   0.01267  Uiso   1.00
O97    O     0.75000   0.48240   0.00140   0.01267  Uiso   1.00
O98    O     0.30880   0.83150   0.74030   0.01267  Uiso   1.00
O99    O     0.99860   0.98100   0.24860   0.01267  Uiso   1.00
O100   O     0.07660   0.08760   0.76180   0.01267  Uiso   1.00
O101   O     0.81480   0.48900   0.07660   0.01267  Uiso   1.00
O102   O     0.72810   0.14530   0.23400   0.01267  Uiso   1.00
O103   O     0.83540   0.77200   0.74680   0.01267  Uiso   1.00
O104   O     0.25140   0.58150   0.51230   0.01267  Uiso   1.00
O105   O     0.71300   0.71720   0.14440   0.01267  Uiso   1.00
O106   O     0.26760   0.51900   0.51760   0.01267  Uiso   1.00
O107   O     0.47480   0.91140   0.24680   0.01267  Uiso   1.00
O108   O     0.55120   0.49450   0.30970   0.01267  Uiso   1.00
O109   O     0.05900   0.76310   0.56970   0.01267  Uiso   1.00
O110   O     0.55670   0.05120   0.24150   0.01267  Uiso   1.00
O111   O     0.07400   0.02130   0.81310   0.01267  Uiso   1.00
O112   O     0.77200   0.24680   0.33540   0.01267  Uiso   1.00
O113   O     0.07550   0.57050   0.28360   0.01267  Uiso   1.00
O114   O     0.66850   0.47730   0.40880   0.01267  Uiso   1.00
O115   O     0.55140   0.98570   0.22070   0.01267  Uiso   1.00
O116   O     0.98240   0.73240   0.98100   0.01267  Uiso   1.00
O117   O     0.50550   0.19030   0.94880   0.01267  Uiso   1.00
O118   O     0.94730   0.20820   0.02130   0.01267  Uiso   1.00
O119   O     0.55900   0.98930   0.29590   0.01267  Uiso   1.00
O120   O     0.58860   0.56340   0.83540   0.01267  Uiso   1.00
O121   O     0.16380   0.45180   0.92820   0.01267  Uiso   1.00
O122   O     0.41150   0.90710   0.21960   0.01267  Uiso   1.00
O123   O     0.90880   0.66850   0.97730   0.01267  Uiso   1.00
O124   O     0.41720   0.91130   0.14530   0.01267  Uiso   1.00
O125   O     0.54990   0.49440   0.23610   0.01267  Uiso   1.00
O126   O     0.57400   0.76090   0.05270   0.01267  Uiso   1.00
O127   O     0.76390   0.75830   0.81380   0.01267  Uiso   1.00
O128   O     0.00500   0.57550   0.79190   0.01267  Uiso   1.00
O129   O     0.26180   0.07660   0.58760   0.01267  Uiso   1.00
O130   O     0.06850   0.97730   0.30880   0.01267  Uiso   1.00
O131   O     0.09290   0.28040   0.08850   0.01267  Uiso   1.00
O132   O     0.31250   0.59290   0.00440   0.01267  Uiso   1.00
O133   O     0.42600   0.23910   0.94730   0.01267  Uiso   1.00
O134   O     0.73500   0.66930   0.72070   0.01267  Uiso   1.00
O135   O     0.66930   0.22070   0.23500   0.01267  Uiso   1.00
O136   O     0.23690   0.93030   0.44100   0.01267  Uiso   1.00
O137   O     0.31210   0.06510   0.07180   0.01267  Uiso   1.00
O138   O     0.83380   0.07740   0.00860   0.01267  Uiso   1.00
O139   O     0.52270   0.09120   0.83150   0.01267  Uiso   1.00
O140   O     0.75850   0.30970   0.81520   0.01267  Uiso   1.00
O141   O     0.69120   0.16850   0.25970   0.01267  Uiso   1.00
O142   O     0.97640   0.76440   0.42820   0.01267  Uiso   1.00
O143   O     0.21960   0.81250   0.30810   0.01267  Uiso   1.00
O144   O     0.93150   0.02270   0.69120   0.01267  Uiso   1.00
O145   O     0.25320   0.52520   0.58860   0.01267  Uiso   1.00
O146   O     0.35470   0.58280   0.58870   0.01267  Uiso   1.00
O147   O     0.18620   0.44450   0.45010   0.01267  Uiso   1.00
O148   O     0.51070   0.56970   0.80660   0.01267  Uiso   1.00
O149   O     0.20410   0.44100   0.51070   0.01267  Uiso   1.00
O150   O     0.52520   0.08860   0.75320   0.01267  Uiso   1.00
O151   O     0.91850   0.66990   0.43080   0.01267  Uiso   1.00
O152   O     0.25850   0.44330   0.44880   0.01267  Uiso   1.00
O153   O     0.21640   0.92450   0.92950   0.01267  Uiso   1.00
O154   O     0.17480   0.00860   0.93120   0.01267  Uiso   1.00
O155   O     0.92820   0.49330   0.74030   0.01267  Uiso   1.00
O156   O     0.68750   0.40710   0.99560   0.01267  Uiso   1.00
O157   O     0.74170   0.00560   0.55550   0.01267  Uiso   1.00
O158   O     0.81380   0.55550   0.54990   0.01267  Uiso   1.00
O159   O     0.93080   0.91850   0.16990   0.01267  Uiso   1.00
O160   O     0.25830   0.99440   0.44450   0.01267  Uiso   1.00
O161   O     0.74360   0.66620   0.17480   0.01267  Uiso   1.00
O162   O     0.48900   0.57660   0.31480   0.01267  Uiso   1.00
O163   O     0.33540   0.58860   0.06340   0.01267  Uiso   1.00
O164   O     0.90710   0.71960   0.91150   0.01267  Uiso   1.00
O165   O     0.92340   0.91240   0.23820   0.01267  Uiso   1.00
O166   O     0.07050   0.49500   0.78690   0.01267  Uiso   1.00
O167   O     0.42450   0.70810   0.49500   0.01267  Uiso   1.00
O168   O     0.57050   0.78360   0.57550   0.01267  Uiso   1.00
O169   O     0.64440   0.71300   0.21720   0.01267  Uiso   1.00
O170   O     0.51100   0.42340   0.68520   0.01267  Uiso   1.00
O171   O     0.71960   0.41150   0.40710   0.01267  Uiso   1.00
O172   O     0.94860   0.16930   0.43430   0.01267  Uiso   1.00
O173   O     0.23910   0.16990   0.25140   0.01267  Uiso   1.00
O174   O     0.82580   0.31480   0.73820   0.01267  Uiso   1.00
O175   O     0.08870   0.35470   0.08280   0.01267  Uiso   1.00
O176   O     0.56340   0.33540   0.08860   0.01267  Uiso   1.00
O177   O     0.78280   0.99580   0.92720   0.01267  Uiso   1.00
O178   O     0.05140   0.83070   0.56570   0.01267  Uiso   1.00
O179   O     0.50140   0.75000   0.98240   0.01267  Uiso   1.00
O180   O     0.09120   0.33150   0.02270   0.01267  Uiso   1.00
O181   O     0.43490   0.24700   0.50670   0.01267  Uiso   1.00
O182   O     0.22070   0.73500   0.16930   0.01267  Uiso   1.00
O183   O     0.74700   0.81210   0.24030   0.01267  Uiso   1.00
O184   O     0.50440   0.31250   0.09290   0.01267  Uiso   1.00
O185   O     0.31310   0.07400   0.52130   0.01267  Uiso   1.00
O186   O     0.56860   0.85560   0.57280   0.01267  Uiso   1.00
O187   O     0.48570   0.43430   0.26500   0.01267  Uiso   1.00
O188   O     0.32520   0.25640   0.83380   0.01267  Uiso   1.00
O189   O     0.16990   0.75140   0.73910   0.01267  Uiso   1.00
O190   O     0.98900   0.67420   0.91240   0.01267  Uiso   1.00
O191   O     0.14530   0.73400   0.22810   0.01267  Uiso   1.00
O192   O     0.43140   0.14440   0.42720   0.01267  Uiso   1.00
O193   O     0.31520   0.75850   0.80970   0.01267  Uiso   1.00
O194   O     0.43030   0.69340   0.98930   0.01267  Uiso   1.00
O195   O     0.23910   0.44730   0.92600   0.01267  Uiso   1.00
O196   O     0.05550   0.74170   0.50560   0.01267  Uiso   1.00
O197   O     0.70410   0.19340   0.76310   0.01267  Uiso   1.00
O198   O     0.78040   0.18750   0.69190   0.01267  Uiso   1.00
O199   O     0.57180   0.83620   0.04820   0.01267  Uiso   1.00
O200   O     0.40710   0.49560   0.18750   0.01267  Uiso   1.00
O201   O     0.33150   0.52270   0.59120   0.01267  Uiso   1.00
O202   O     0.42950   0.21640   0.42450   0.01267  Uiso   1.00
O203   O     0.48770   0.56920   0.23910   0.01267  Uiso   1.00
O204   O     0.75140   0.23910   0.66990   0.01267  Uiso   1.00
O205   O     0.66460   0.41140   0.93660   0.01267  Uiso   1.00
O206   O     0.28690   0.07050   0.99500   0.01267  Uiso   1.00
O207   O     0.73610   0.54990   0.99440   0.01267  Uiso   1.00
O208   O     0.25970   0.25300   0.68790   0.01267  Uiso   1.00
O209   O     0.47730   0.90880   0.16850   0.01267  Uiso   1.00
O210   O     0.57660   0.81480   0.98900   0.01267  Uiso   1.00
O211   O     0.59120   0.56850   0.75970   0.01267  Uiso   1.00
O212   O     0.49500   0.28690   0.57050   0.01267  Uiso   1.00
O213   O     0.85470   0.26600   0.77190   0.01267  Uiso   1.00
O214   O     0.05270   0.79180   0.97870   0.01267  Uiso   1.00
O215   O     0.81210   0.74030   0.24700   0.01267  Uiso   1.00
O216   O     0.29190   0.00500   0.07550   0.01267  Uiso   1.00
O217   O     0.76600   0.41130   0.99410   0.01267  Uiso   1.00
O218   O     0.73560   0.21200   0.16380   0.01267  Uiso   1.00
O219   O     0.72800   0.06340   0.47480   0.01267  Uiso   1.00
O220   O     0.94880   0.25850   0.94330   0.01267  Uiso   1.00
O221   O     0.42260   0.75640   0.43120   0.01267  Uiso   1.00
O222   O     0.26920   0.26920   0.76920   0.01267  Uiso   1.00
O223   O     0.52130   0.94730   0.70820   0.01267  Uiso   1.00
O224   O     0.02130   0.31310   0.57400   0.01267  Uiso   1.00
O225   O     0.73690   0.29590   0.30660   0.01267  Uiso   1.00
O226   O     0.25000   0.24860   0.26760   0.01267  Uiso   1.00
O227   O     0.25970   0.59120   0.06850   0.01267  Uiso   1.00
O228   O     0.01230   0.25140   0.08150   0.01267  Uiso   1.00
O229   O     0.30660   0.51070   0.06970   0.01267  Uiso   1.00
O230   O     0.97730   0.80880   0.56850   0.01267  Uiso   1.00
O231   O     0.99140   0.56880   0.32520   0.01267  Uiso   1.00
O232   O     0.49860   0.25000   0.01760   0.01267  Uiso   1.00
O233   O     0.76440   0.92820   0.47640   0.01267  Uiso   1.00
O234   O     0.44860   0.01430   0.77930   0.01267  Uiso   1.00
O235   O     0.23610   0.24170   0.18620   0.01267  Uiso   1.00
O236   O     0.01430   0.27930   0.94860   0.01267  Uiso   1.00
O237   O     0.44100   0.01070   0.70410   0.01267  Uiso   1.00
O238   O     0.07280   0.56860   0.35560   0.01267  Uiso   1.00
O239   O     0.29180   0.73910   0.31310   0.01267  Uiso   1.00
O240   O     0.43080   0.26090   0.01230   0.01267  Uiso   1.00
O241   O     0.28800   0.52360   0.45180   0.01267  Uiso   1.00
O242   O     0.17420   0.68520   0.26180   0.01267  Uiso   1.00
O243   O     0.71640   0.78690   0.29190   0.01267  Uiso   1.00
O244   O     0.19030   0.44880   0.00550   0.01267  Uiso   1.00
O245   O     0.07180   0.50670   0.25970   0.01267  Uiso   1.00
O246   O     0.31480   0.23820   0.32580   0.01267  Uiso   1.00
O247   O     0.98930   0.79590   0.05900   0.01267  Uiso   1.00
O248   O     0.25000   0.51760   0.99860   0.01267  Uiso   1.00
O249   O     0.08760   0.26180   0.57660   0.01267  Uiso   1.00
O250   O     0.80810   0.21960   0.31250   0.01267  Uiso   1.00
O251   O     0.67480   0.74360   0.16620   0.01267  Uiso   1.00
O252   O     0.18750   0.19190   0.28040   0.01267  Uiso   1.00
O253   O     0.45180   0.42820   0.66380   0.01267  Uiso   1.00
O254   O     0.21300   0.06860   0.99580   0.01267  Uiso   1.00
O255   O     0.77190   0.00590   0.41720   0.01267  Uiso   1.00
O256   O     0.08280   0.22810   0.49410   0.01267  Uiso   1.00
O257   O     0.23820   0.82580   0.81480   0.01267  Uiso   1.00
O258   O     0.75640   0.93120   0.92260   0.01267  Uiso   1.00
O259   O     0.44730   0.42600   0.73910   0.01267  Uiso   1.00
O260   O     0.04990   0.81380   0.05550   0.01267  Uiso   1.00
O261   O     0.93490   0.42820   0.18790   0.01267  Uiso   1.00
O262   O     0.81250   0.80810   0.71960   0.01267  Uiso   1.00
O263   O     0.71310   0.92950   0.00500   0.01267  Uiso   1.00
O264   O     0.33010   0.06920   0.58150   0.01267  Uiso   1.00
O265   O     0.56920   0.73910   0.98770   0.01267  Uiso   1.00
O266   O     0.68480   0.24150   0.19030   0.01267  Uiso   1.00
O267   O     0.06880   0.57740   0.74360   0.01267  Uiso   1.00
O268   O     0.01070   0.20410   0.94100   0.01267  Uiso   1.00
O269   O     0.51430   0.56570   0.73500   0.01267  Uiso   1.00
O270   O     0.83150   0.24030   0.80880   0.01267  Uiso   1.00
O271   O     0.91240   0.73820   0.42340   0.01267  Uiso   1.00
O272   O     0.00140   0.01900   0.75140   0.01267  Uiso   1.00
O273   O     0.27190   0.85470   0.76600   0.01267  Uiso   1.00
O274   O     0.21310   0.20810   0.78360   0.01267  Uiso   1.00
O275   O     0.76500   0.48570   0.93430   0.01267  Uiso   1.00
O276   O     0.75000   0.75140   0.73240   0.01267  Uiso   1.00
O277   O     0.06970   0.05900   0.26310   0.01267  Uiso   1.00
O278   O     0.68620   0.23610   0.74170   0.01267  Uiso   1.00
O279   O     0.43660   0.66460   0.91140   0.01267  Uiso   1.00
O280   O     0.24700   0.00670   0.93490   0.01267  Uiso   1.00
O281   O     0.00420   0.57280   0.71720   0.01267  Uiso   1.00
O282   O     0.73910   0.81310   0.79180   0.01267  Uiso   1.00
O283   O     0.44330   0.94880   0.75850   0.01267  Uiso   1.00
O284   O     0.72070   0.55140   0.48570   0.01267  Uiso   1.00
O285   O     0.81520   0.00550   0.55670   0.01267  Uiso   1.00
O286   O     0.04820   0.71200   0.97640   0.01267  Uiso   1.00
O287   O     0.58760   0.01100   0.82580   0.01267  Uiso   1.00
O288   O     0.99330   0.56510   0.25300   0.01267  Uiso   1.00
O289   O     0.45010   0.50560   0.76390   0.01267  Uiso   1.00
O290   O     0.08860   0.25320   0.02520   0.01267  Uiso   1.00
O291   O     0.06570   0.05140   0.33070   0.01267  Uiso   1.00
O292   O     0.49560   0.68750   0.90710   0.01267  Uiso   1.00
O293   O     0.92450   0.42950   0.71640   0.01267  Uiso   1.00
O294   O     0.74860   0.41850   0.48770   0.01267  Uiso   1.00
O295   O     0.24030   0.30880   0.33150   0.01267  Uiso   1.00
O296   O     0.56570   0.23500   0.01430   0.01267  Uiso   1.00
O297   O     0.56510   0.75300   0.49330   0.01267  Uiso   1.00
O298   O     0.98100   0.74860   0.49860   0.01267  Uiso   1.00
O299   O     0.51230   0.43080   0.76090   0.01267  Uiso   1.00
O300   O     0.41130   0.49410   0.26600   0.01267  Uiso   1.00
O301   O     0.50500   0.71310   0.42950   0.01267  Uiso   1.00
O302   O     0.82520   0.99140   0.06880   0.01267  Uiso   1.00
O303   O     0.06860   0.49580   0.71300   0.01267  Uiso   1.00
O304   O     0.23080   0.00000  -0.00000   0.01267  Uiso   1.00
O305   O     0.02270   0.19120   0.43150   0.01267  Uiso   1.00
O306   O     0.50860   0.83380   0.57740   0.01267  Uiso   1.00
O307   O     0.57280   0.21720   0.50420   0.01267  Uiso   1.00
O308   O     0.49580   0.21300   0.56860   0.01267  Uiso   1.00
O309   O     0.92600   0.97870   0.18690   0.01267  Uiso   1.00
O310   O     0.05670   0.81520   0.50550   0.01267  Uiso   1.00
O311   O     0.98770   0.74860   0.91850   0.01267  Uiso   1.00
O312   O     0.18480   0.99450   0.44330   0.01267  Uiso   1.00
O313   O     0.28360   0.21310   0.70810   0.01267  Uiso   1.00
O314   O     0.75320   0.16460   0.72800   0.01267  Uiso   1.00
O315   O     0.85560   0.07280   0.06860   0.01267  Uiso   1.00
O316   O     0.71720   0.64440   0.21300   0.01267  Uiso   1.00
O317   O     0.44880   0.50550   0.69030   0.01267  Uiso   1.00
O318   O     0.50000   0.76920   0.50000   0.01267  Uiso   1.00
O319   O     0.73910   0.48770   0.06920   0.01267  Uiso   1.00
O320   O     0.07180   0.02360   0.73560   0.01267  Uiso   1.00
O321   O     0.16460   0.22800   0.25320   0.01267  Uiso   1.00
O322   O     0.74030   0.40880   0.93150   0.01267  Uiso   1.00
O323   O     0.79180   0.47870   0.55270   0.01267  Uiso   1.00
O324   O     0.52360   0.95180   0.78800   0.01267  Uiso   1.00
O325   O     0.69340   0.48930   0.93030   0.01267  Uiso   1.00
O326   O     0.49140   0.16620   0.42260   0.01267  Uiso   1.00
O327   O     0.57550   0.29190   0.50500   0.01267  Uiso   1.00
O328   O     0.93120   0.42260   0.25640   0.01267  Uiso   1.00
O329   O     0.23400   0.58870   0.00590   0.01267  Uiso   1.00
O330   O     0.76310   0.06970   0.55900   0.01267  Uiso   1.00
O331   O     0.41240   0.98900   0.17420   0.01267  Uiso   1.00
O332   O     0.99440   0.94450   0.75830   0.01267  Uiso   1.00
O333   O     0.83620   0.54820   0.07180   0.01267  Uiso   1.00
O334   O     0.01760   0.26760   0.01900   0.01267  Uiso   1.00
O335   O     0.76180   0.17420   0.18520   0.01267  Uiso   1.00
O336   O     0.00560   0.05550   0.24170   0.01267  Uiso   1.00
O337   O     0.41140   0.43660   0.16460   0.01267  Uiso   1.00
O338   O     0.31380   0.76390   0.25830   0.01267  Uiso   1.00
O339   O     0.76090   0.55270   0.07400   0.01267  Uiso   1.00
O340   O     0.33380   0.32520   0.75640   0.01267  Uiso   1.00
O341   O     0.43120   0.17480   0.50860   0.01267  Uiso   1.00
O342   O     0.95180   0.28800   0.02360   0.01267  Uiso   1.00
O343   O     0.20810   0.28360   0.71310   0.01267  Uiso   1.00
O344   O     0.19120   0.93150   0.52270   0.01267  Uiso   1.00
O345   O     0.22810   0.99410   0.58280   0.01267  Uiso   1.00
O346   O     0.26600   0.27190   0.35470   0.01267  Uiso   1.00
O347   O     0.30810   0.99560   0.58850   0.01267  Uiso   1.00
O348   O     0.19340   0.26310   0.20410   0.01267  Uiso   1.00
O349   O     0.83010   0.24860   0.26090   0.01267  Uiso   1.00
O350   O     0.78360   0.07550   0.07050   0.01267  Uiso   1.00
O351   O     0.94330   0.18480   0.49450   0.01267  Uiso   1.00
O352   O     0.48930   0.43030   0.19340   0.01267  Uiso   1.00
O353   O     0.68790   0.93490   0.92820   0.01267  Uiso   1.00
O354   O     0.26090   0.18690   0.20820   0.01267  Uiso   1.00
O355   O     0.42340   0.18520   0.01100   0.01267  Uiso   1.00
O356   O     0.47640   0.04820   0.21200   0.01267  Uiso   1.00
O357   O     0.19190   0.78040   0.68750   0.01267  Uiso   1.00
O358   O     0.26440   0.78800   0.83620   0.01267  Uiso   1.00
O359   O     0.26090   0.51230   0.93080   0.01267  Uiso   1.00
O360   O     0.26310   0.70410   0.69340   0.01267  Uiso   1.00
O361   O     0.18520   0.51100   0.92340   0.01267  Uiso   1.00
O362   O     0.01900   0.25140   0.50140   0.01267  Uiso   1.00
O363   O     0.24680   0.83540   0.27200   0.01267  Uiso   1.00
O364   O     0.20820   0.52130   0.44730   0.01267  Uiso   1.00
O365   O     0.25140   0.00140   0.51900   0.01267  Uiso   1.00
O366   O     0.80880   0.06850   0.47730   0.01267  Uiso   1.00
O367   O     0.24170   0.68620   0.73610   0.01267  Uiso   1.00
O368   O     0.23560   0.07180   0.52360   0.01267  Uiso   1.00
O369   O     0.07740   0.50860   0.33380   0.01267  Uiso   1.00
O370   O     0.74150   0.55670   0.55120   0.01267  Uiso   1.00
O371   O     0.66990   0.93080   0.41850   0.01267  Uiso   1.00
O372   O     0.00590   0.91720   0.27190   0.01267  Uiso   1.00
O373   O     0.18790   0.25970   0.75300   0.01267  Uiso   1.00
O374   O     0.80970   0.55120   0.99450   0.01267  Uiso   1.00
O375   O     0.74680   0.47480   0.41140   0.01267  Uiso   1.00
O376   O     0.67420   0.41240   0.48900   0.01267  Uiso   1.00
O377   O     0.44450   0.95010   0.68620   0.01267  Uiso   1.00
O378   O     0.24150   0.69030   0.18480   0.01267  Uiso   1.00
O379   O     0.99410   0.08280   0.72810   0.01267  Uiso   1.00
O380   O     0.73080   0.73080   0.23080   0.01267  Uiso   1.00
O381   O     0.59290   0.50440   0.81250   0.01267  Uiso   1.00
O382   O     0.47870   0.05270   0.29180   0.01267  Uiso   1.00
O383   O     0.92950   0.50500   0.21310   0.01267  Uiso   1.00
O384   O     0.00440   0.91150   0.19190   0.01267  Uiso   1.00
O385   O     0.26500   0.33070   0.27930   0.01267  Uiso   1.00
O386   O     0.21200   0.66380   0.23560   0.01267  Uiso   1.00
O387   O     0.24030   0.92820   0.99330   0.01267  Uiso   1.00
O388   O     0.01100   0.32580   0.08760   0.01267  Uiso   1.00
O389   O     0.41850   0.98770   0.24860   0.01267  Uiso   1.00
O390   O     0.06340   0.97480   0.22800   0.01267  Uiso   1.00
O391   O     0.92720   0.43140   0.64440   0.01267  Uiso   1.00
O392   O     0.75970   0.07180   0.00670   0.01267  Uiso   1.00
O393   O     0.91150   0.69190   0.50440   0.01267  Uiso   1.00
O394   O     0.81310   0.29180   0.23910   0.01267  Uiso   1.00
O395   O     0.27200   0.93660   0.52520   0.01267  Uiso   1.00
O396   O     0.77930   0.26500   0.83070   0.01267  Uiso   1.00
O397   O     0.49410   0.76600   0.91130   0.01267  Uiso   1.00
O398   O     0.16930   0.93430   0.44860   0.01267  Uiso   1.00
O399   O     0.75970   0.69120   0.66850   0.01267  Uiso   1.00
O400   O     0.91140   0.74680   0.97480   0.01267  Uiso   1.00
O401   O     0.76090   0.83010   0.74860   0.01267  Uiso   1.00
O402   O     0.74030   0.74700   0.31210   0.01267  Uiso   1.00
O403   O     0.43150   0.74030   0.90880   0.01267  Uiso   1.00
O404   O     0.94450   0.25830   0.49440   0.01267  Uiso   1.00
O405   O     0.73820   0.92340   0.41240   0.01267  Uiso   1.00
O406   O     0.49330   0.24030   0.42820   0.01267  Uiso   1.00
O407   O     0.25300   0.18790   0.75970   0.01267  Uiso   1.00
O408   O     0.08150   0.33010   0.56920   0.01267  Uiso   1.00
O409   O     0.97480   0.72800   0.56340   0.01267  Uiso   1.00
O410   O     0.74860   0.99860   0.48100   0.01267  Uiso   1.00
O411   O     0.76760   0.25000   0.74860   0.01267  Uiso   1.00
O412   O     0.18690   0.70820   0.76090   0.01267  Uiso   1.00
O413   O     0.28700   0.28280   0.85560   0.01267  Uiso   1.00
O414   O     0.75300   0.99330   0.06510   0.01267  Uiso   1.00
O415   O     0.78800   0.33620   0.76440   0.01267  Uiso   1.00
O416   O     0.92260   0.49140   0.66620   0.01267  Uiso   1.00
