data_image0
_cell_length_a       55.289
_cell_length_b       28.916
_cell_length_c       17.468
_cell_angle_alpha    90
_cell_angle_beta     95.92
_cell_angle_gamma    90

_symmetry_space_group_name_H-M    "P 1"
_symmetry_int_tables_number       1

loop_
  _symmetry_equiv_pos_as_xyz
  'x, y, z'

loop_
  _atom_site_label
  _atom_site_occupancy
  _atom_site_fract_x
  _atom_site_fract_y
  _atom_site_fract_z
  _atom_site_thermal_displace_type
  _atom_site_B_iso_or_equiv
  _atom_site_type_symbol
  Ru1      1.0000 0.36211  0.18957  0.54234  Biso   1.000  Ru
  O1       1.0000 0.34870  0.25460  0.57680  Biso   1.000  O
  O2       1.0000 0.39360  0.19950  0.60180  Biso   1.000  O
  O3       1.0000 0.32800  0.17580  0.50260  Biso   1.000  O
  O4       1.0000 0.37500  0.12420  0.51730  Biso   1.000  O
  O5       1.0000 0.37020  0.21370  0.45110  Biso   1.000  O
  N1       1.0000 0.35100  0.16110  0.64780  Biso   1.000  N
  C1       1.0000 0.35880  0.29110  0.56920  Biso   1.000  C
  C2       1.0000 0.41220  0.21520  0.58440  Biso   1.000  C
  C3       1.0000 0.31370  0.18180  0.44650  Biso   1.000  C
  C4       1.0000 0.37350  0.10740  0.45270  Biso   1.000  C
  Ru2      1.0000 0.39095  0.26634  0.44528  Biso   1.000  Ru
  Ru3      1.0000 0.35929  0.18358  0.35080  Biso   1.000  Ru
  C5       1.0000 0.36570  0.12720  0.68050  Biso   1.000  C
  C6       1.0000 0.32860  0.17430  0.66800  Biso   1.000  C
  O6       1.0000 0.37400  0.30010  0.52850  Biso   1.000  O
  C7       1.0000 0.34870  0.33030  0.61370  Biso   1.000  C
  O7       1.0000 0.41660  0.23930  0.52580  Biso   1.000  O
  C8       1.0000 0.43630  0.21550  0.63910  Biso   1.000  C
  O8       1.0000 0.32180  0.18240  0.38320  Biso   1.000  O
  C9       1.0000 0.28660  0.17160  0.43450  Biso   1.000  C
  O9       1.0000 0.36680  0.11960  0.38910  Biso   1.000  O
  C10      1.0000 0.38290  0.05750  0.45750  Biso   1.000  C
  O10      1.0000 0.41140  0.24260  0.36590  Biso   1.000  O
  O11      1.0000 0.36730  0.29810  0.36440  Biso   1.000  O
  N2       1.0000 0.41280  0.32580  0.44230  Biso   1.000  N
  O12      1.0000 0.39350  0.17880  0.32070  Biso   1.000  O
  O13      1.0000 0.35120  0.24280  0.29330  Biso   1.000  O
  N3       1.0000 0.34770  0.14980  0.24530  Biso   1.000  N
  H1       1.0000 0.38080  0.12090  0.66190  Biso   1.000  H
  C11      1.0000 0.35790  0.10140  0.74230  Biso   1.000  C
  C12      1.0000 0.32170  0.14760  0.72850  Biso   1.000  C
  H2       1.0000 0.31920  0.19860  0.64290  Biso   1.000  H
  H3       1.0000 0.34890  0.32110  0.66770  Biso   1.000  H
  H4       1.0000 0.33190  0.33620  0.59210  Biso   1.000  H
  H5       1.0000 0.35830  0.35850  0.61020  Biso   1.000  H
  H6       1.0000 0.44990  0.23000  0.61650  Biso   1.000  H
  H7       1.0000 0.44000  0.18280  0.64980  Biso   1.000  H
  H8       1.0000 0.43360  0.23130  0.68710  Biso   1.000  H
  H9       1.0000 0.27700  0.19780  0.41230  Biso   1.000  H
  H10      1.0000 0.28150  0.16430  0.48520  Biso   1.000  H
  H11      1.0000 0.28380  0.14460  0.40070  Biso   1.000  H
  H12      1.0000 0.37360  0.03840  0.49030  Biso   1.000  H
  H13      1.0000 0.40000  0.05820  0.47920  Biso   1.000  H
  H14      1.0000 0.38180  0.04430  0.40560  Biso   1.000  H
  C13      1.0000 0.41120  0.20560  0.33260  Biso   1.000  C
  C14      1.0000 0.35470  0.28430  0.30610  Biso   1.000  C
  C15      1.0000 0.41670  0.34240  0.37020  Biso   1.000  C
  C16      1.0000 0.42490  0.34390  0.50890  Biso   1.000  C
  H15      1.0000 0.36740  0.07730  0.76710  Biso   1.000  H
  C17      1.0000 0.33600  0.11180  0.76680  Biso   1.000  C
  H16      1.0000 0.30630  0.15340  0.74610  Biso   1.000  H
  C18      1.0000 0.43160  0.20130  0.27890  Biso   1.000  C
  C19      1.0000 0.34530  0.31730  0.24000  Biso   1.000  C
  H17      1.0000 0.40790  0.33000  0.32520  Biso   1.000  H
  C20      1.0000 0.43350  0.37800  0.36440  Biso   1.000  C
  C21      1.0000 0.44180  0.37940  0.50210  Biso   1.000  C
  H18      1.0000 0.42160  0.33240  0.55780  Biso   1.000  H
  C22      1.0000 0.32580  0.08320  0.82620  Biso   1.000  C
  H19      1.0000 0.42570  0.20880  0.22560  Biso   1.000  H
  H20      1.0000 0.43760  0.16940  0.28170  Biso   1.000  H
  H21      1.0000 0.44480  0.22240  0.29690  Biso   1.000  H
  H22      1.0000 0.33880  0.29720  0.19750  Biso   1.000  H
  H23      1.0000 0.35790  0.33740  0.22270  Biso   1.000  H
  H24      1.0000 0.33210  0.33630  0.25650  Biso   1.000  H
  H25      1.0000 0.43630  0.38990  0.31550  Biso   1.000  H
  C23      1.0000 0.44590  0.39610  0.43090  Biso   1.000  C
  H26      1.0000 0.45080  0.39140  0.54710  Biso   1.000  H
  O14      1.0000 0.30530  0.08910  0.84430  Biso   1.000  O
  O15      1.0000 0.33870  0.05120  0.84930  Biso   1.000  O
  C24      1.0000 0.46320  0.43420  0.41650  Biso   1.000  C
  Ru4      1.0000 0.28242  0.06119  0.91474  Biso   1.000  Ru
  O16      1.0000 0.47390  0.44890  0.47930  Biso   1.000  O
  O17      1.0000 0.46510  0.44530  0.34700  Biso   1.000  O
  O18      1.0000 0.30310  0.08600  0.00870  Biso   1.000  O
  O19      1.0000 0.25750  0.03950  0.98510  Biso   1.000  O
  O20      1.0000 0.25930  0.03750  0.82380  Biso   1.000  O
  O21      1.0000 0.33840  0.04810  0.02100  Biso   1.000  O
  C25      1.0000 0.32280  0.07510  0.04140  Biso   1.000  C
  C26      1.0000 0.33180  0.10230  0.11420  Biso   1.000  C
  C27      1.0000 0.31800  0.13860  0.13950  Biso   1.000  C
  C28      1.0000 0.35390  0.09040  0.15560  Biso   1.000  C
  C29      1.0000 0.22650  0.04210  0.09500  Biso   1.000  C
  C30      1.0000 0.22850  0.04160  0.68320  Biso   1.000  C
  C31      1.0000 0.32640  0.16180  0.20550  Biso   1.000  C
  H27      1.0000 0.30340  0.14700  0.10940  Biso   1.000  H
  H28      1.0000 0.36360  0.06590  0.13910  Biso   1.000  H
  C32      1.0000 0.36170  0.11420  0.22140  Biso   1.000  C
  C33      1.0000 0.21160  0.04150  0.15550  Biso   1.000  C
  H29      1.0000 0.23180  0.07050  0.07540  Biso   1.000  H
  C34      1.0000 0.21350  0.04150  0.61370  Biso   1.000  C
  H30      1.0000 0.23360  0.07020  0.70640  Biso   1.000  H
  H31      1.0000 0.31700  0.18670  0.22230  Biso   1.000  H
  H32      1.0000 0.37630  0.10630  0.25200  Biso   1.000  H
  H33      1.0000 0.20670  0.06990  0.17690  Biso   1.000  H
  H34      1.0000 0.20820  0.06980  0.59010  Biso   1.000  H
  O22      1.0000 0.21050  0.05150  0.44440  Biso   1.000  O
  O23      1.0000 0.16600  0.94960  0.51840  Biso   1.000  O
  C35      1.0000 0.21570  0.07280  0.38020  Biso   1.000  C
  C36      1.0000 0.14440  0.93930  0.50460  Biso   1.000  C
  O24      1.0000 0.20760  0.05010  0.31870  Biso   1.000  O
  C37      1.0000 0.23300  0.10910  0.39510  Biso   1.000  C
  O25      1.0000 0.13130  0.94840  0.44790  Biso   1.000  O
  C38      1.0000 0.13420  0.90610  0.56240  Biso   1.000  C
  O26      1.0000 0.16430  0.94930  0.23100  Biso   1.000  O
  O27      1.0000 0.13100  0.94950  0.28570  Biso   1.000  O
  H35      1.0000 0.24820  0.09860  0.37660  Biso   1.000  H
  H36      1.0000 0.23570  0.11570  0.45040  Biso   1.000  H
  H37      1.0000 0.22730  0.13720  0.36740  Biso   1.000  H
  H38      1.0000 0.11670  0.91150  0.56170  Biso   1.000  H
  H39      1.0000 0.14220  0.91210  0.61410  Biso   1.000  H
  H40      1.0000 0.13700  0.87390  0.54820  Biso   1.000  H
  C39      1.0000 0.14440  0.93370  0.24270  Biso   1.000  C
  C40      1.0000 0.13500  0.89160  0.19430  Biso   1.000  C
  H41      1.0000 0.14920  0.87230  0.18690  Biso   1.000  H
  H42      1.0000 0.12690  0.90080  0.14400  Biso   1.000  H
  H43      1.0000 0.12360  0.87410  0.22250  Biso   1.000  H
  Ru5      1.0000 0.86211  0.68957  0.54234  Biso   1.000  Ru
  O28      1.0000 0.84870  0.75460  0.57680  Biso   1.000  O
  O29      1.0000 0.89360  0.69950  0.60180  Biso   1.000  O
  O30      1.0000 0.82800  0.67580  0.50260  Biso   1.000  O
  O31      1.0000 0.87500  0.62420  0.51730  Biso   1.000  O
  O32      1.0000 0.87020  0.71370  0.45110  Biso   1.000  O
  N4       1.0000 0.85100  0.66110  0.64780  Biso   1.000  N
  C41      1.0000 0.85880  0.79110  0.56920  Biso   1.000  C
  C42      1.0000 0.91220  0.71520  0.58440  Biso   1.000  C
  C43      1.0000 0.81370  0.68180  0.44650  Biso   1.000  C
  C44      1.0000 0.87350  0.60740  0.45270  Biso   1.000  C
  Ru6      1.0000 0.89095  0.76634  0.44528  Biso   1.000  Ru
  Ru7      1.0000 0.85929  0.68358  0.35080  Biso   1.000  Ru
  C45      1.0000 0.86570  0.62720  0.68050  Biso   1.000  C
  C46      1.0000 0.82860  0.67430  0.66800  Biso   1.000  C
  O33      1.0000 0.87400  0.80010  0.52850  Biso   1.000  O
  C47      1.0000 0.84870  0.83030  0.61370  Biso   1.000  C
  O34      1.0000 0.91660  0.73930  0.52580  Biso   1.000  O
  C48      1.0000 0.93630  0.71550  0.63910  Biso   1.000  C
  O35      1.0000 0.82180  0.68240  0.38320  Biso   1.000  O
  C49      1.0000 0.78660  0.67160  0.43450  Biso   1.000  C
  O36      1.0000 0.86680  0.61960  0.38910  Biso   1.000  O
  C50      1.0000 0.88290  0.55750  0.45750  Biso   1.000  C
  O37      1.0000 0.91140  0.74260  0.36590  Biso   1.000  O
  O38      1.0000 0.86730  0.79810  0.36440  Biso   1.000  O
  N5       1.0000 0.91280  0.82580  0.44230  Biso   1.000  N
  O39      1.0000 0.89350  0.67880  0.32070  Biso   1.000  O
  O40      1.0000 0.85120  0.74280  0.29330  Biso   1.000  O
  N6       1.0000 0.84770  0.64980  0.24530  Biso   1.000  N
  H44      1.0000 0.88080  0.62090  0.66190  Biso   1.000  H
  C51      1.0000 0.85790  0.60140  0.74230  Biso   1.000  C
  C52      1.0000 0.82170  0.64760  0.72850  Biso   1.000  C
  H45      1.0000 0.81920  0.69860  0.64290  Biso   1.000  H
  H46      1.0000 0.84890  0.82110  0.66770  Biso   1.000  H
  H47      1.0000 0.83190  0.83620  0.59210  Biso   1.000  H
  H48      1.0000 0.85830  0.85850  0.61020  Biso   1.000  H
  H49      1.0000 0.94990  0.73000  0.61650  Biso   1.000  H
  H50      1.0000 0.94000  0.68280  0.64980  Biso   1.000  H
  H51      1.0000 0.93360  0.73130  0.68710  Biso   1.000  H
  H52      1.0000 0.77700  0.69780  0.41230  Biso   1.000  H
  H53      1.0000 0.78150  0.66430  0.48520  Biso   1.000  H
  H54      1.0000 0.78380  0.64460  0.40070  Biso   1.000  H
  H55      1.0000 0.87360  0.53840  0.49030  Biso   1.000  H
  H56      1.0000 0.90000  0.55820  0.47920  Biso   1.000  H
  H57      1.0000 0.88180  0.54430  0.40560  Biso   1.000  H
  C53      1.0000 0.91120  0.70560  0.33260  Biso   1.000  C
  C54      1.0000 0.85470  0.78430  0.30610  Biso   1.000  C
  C55      1.0000 0.91670  0.84240  0.37020  Biso   1.000  C
  C56      1.0000 0.92490  0.84390  0.50890  Biso   1.000  C
  H58      1.0000 0.86740  0.57730  0.76710  Biso   1.000  H
  C57      1.0000 0.83600  0.61180  0.76680  Biso   1.000  C
  H59      1.0000 0.80630  0.65340  0.74610  Biso   1.000  H
  C58      1.0000 0.93160  0.70130  0.27890  Biso   1.000  C
  C59      1.0000 0.84530  0.81730  0.24000  Biso   1.000  C
  H60      1.0000 0.90790  0.83000  0.32520  Biso   1.000  H
  C60      1.0000 0.93350  0.87800  0.36440  Biso   1.000  C
  C61      1.0000 0.94180  0.87940  0.50210  Biso   1.000  C
  H61      1.0000 0.92160  0.83240  0.55780  Biso   1.000  H
  C62      1.0000 0.82580  0.58320  0.82620  Biso   1.000  C
  H62      1.0000 0.92570  0.70880  0.22560  Biso   1.000  H
  H63      1.0000 0.93760  0.66940  0.28170  Biso   1.000  H
  H64      1.0000 0.94480  0.72240  0.29690  Biso   1.000  H
  H65      1.0000 0.83880  0.79720  0.19750  Biso   1.000  H
  H66      1.0000 0.85790  0.83740  0.22270  Biso   1.000  H
  H67      1.0000 0.83210  0.83630  0.25650  Biso   1.000  H
  H68      1.0000 0.93630  0.88990  0.31550  Biso   1.000  H
  C63      1.0000 0.94590  0.89610  0.43090  Biso   1.000  C
  H69      1.0000 0.95080  0.89140  0.54710  Biso   1.000  H
  O41      1.0000 0.80530  0.58910  0.84430  Biso   1.000  O
  O42      1.0000 0.83870  0.55120  0.84930  Biso   1.000  O
  C64      1.0000 0.96320  0.93420  0.41650  Biso   1.000  C
  Ru8      1.0000 0.78242  0.56119  0.91474  Biso   1.000  Ru
  O43      1.0000 0.97390  0.94890  0.47930  Biso   1.000  O
  O44      1.0000 0.96510  0.94530  0.34700  Biso   1.000  O
  O45      1.0000 0.80310  0.58600  0.00870  Biso   1.000  O
  O46      1.0000 0.75750  0.53950  0.98510  Biso   1.000  O
  O47      1.0000 0.75930  0.53750  0.82380  Biso   1.000  O
  O48      1.0000 0.83840  0.54810  0.02100  Biso   1.000  O
  C65      1.0000 0.82280  0.57510  0.04140  Biso   1.000  C
  C66      1.0000 0.83180  0.60230  0.11420  Biso   1.000  C
  C67      1.0000 0.81800  0.63860  0.13950  Biso   1.000  C
  C68      1.0000 0.85390  0.59040  0.15560  Biso   1.000  C
  C69      1.0000 0.72650  0.54210  0.09500  Biso   1.000  C
  C70      1.0000 0.72850  0.54160  0.68320  Biso   1.000  C
  C71      1.0000 0.82640  0.66180  0.20550  Biso   1.000  C
  H70      1.0000 0.80340  0.64700  0.10940  Biso   1.000  H
  H71      1.0000 0.86360  0.56590  0.13910  Biso   1.000  H
  C72      1.0000 0.86170  0.61420  0.22140  Biso   1.000  C
  C73      1.0000 0.71160  0.54150  0.15550  Biso   1.000  C
  H72      1.0000 0.73180  0.57050  0.07540  Biso   1.000  H
  C74      1.0000 0.71350  0.54150  0.61370  Biso   1.000  C
  H73      1.0000 0.73360  0.57020  0.70640  Biso   1.000  H
  H74      1.0000 0.81700  0.68670  0.22230  Biso   1.000  H
  H75      1.0000 0.87630  0.60630  0.25200  Biso   1.000  H
  H76      1.0000 0.70670  0.56990  0.17690  Biso   1.000  H
  H77      1.0000 0.70820  0.56980  0.59010  Biso   1.000  H
  O49      1.0000 0.71050  0.55150  0.44440  Biso   1.000  O
  O50      1.0000 0.66600  0.44960  0.51840  Biso   1.000  O
  C75      1.0000 0.71570  0.57280  0.38020  Biso   1.000  C
  C76      1.0000 0.64440  0.43930  0.50460  Biso   1.000  C
  O51      1.0000 0.70760  0.55010  0.31870  Biso   1.000  O
  C77      1.0000 0.73300  0.60910  0.39510  Biso   1.000  C
  O52      1.0000 0.63130  0.44840  0.44790  Biso   1.000  O
  C78      1.0000 0.63420  0.40610  0.56240  Biso   1.000  C
  O53      1.0000 0.66430  0.44930  0.23100  Biso   1.000  O
  O54      1.0000 0.63100  0.44950  0.28570  Biso   1.000  O
  H78      1.0000 0.74820  0.59860  0.37660  Biso   1.000  H
  H79      1.0000 0.73570  0.61570  0.45040  Biso   1.000  H
  H80      1.0000 0.72730  0.63720  0.36740  Biso   1.000  H
  H81      1.0000 0.61670  0.41150  0.56170  Biso   1.000  H
  H82      1.0000 0.64220  0.41210  0.61410  Biso   1.000  H
  H83      1.0000 0.63700  0.37390  0.54820  Biso   1.000  H
  C79      1.0000 0.64440  0.43370  0.24270  Biso   1.000  C
  C80      1.0000 0.63500  0.39160  0.19430  Biso   1.000  C
  H84      1.0000 0.64920  0.37230  0.18690  Biso   1.000  H
  H85      1.0000 0.62690  0.40080  0.14400  Biso   1.000  H
  H86      1.0000 0.62360  0.37410  0.22250  Biso   1.000  H
  Ru9      1.0000 0.63789  0.18957  0.45766  Biso   1.000  Ru
  O55      1.0000 0.65130  0.25460  0.42320  Biso   1.000  O
  O56      1.0000 0.60640  0.19950  0.39820  Biso   1.000  O
  O57      1.0000 0.67200  0.17580  0.49740  Biso   1.000  O
  O58      1.0000 0.62500  0.12420  0.48270  Biso   1.000  O
  O59      1.0000 0.62980  0.21370  0.54890  Biso   1.000  O
  N7       1.0000 0.64900  0.16110  0.35220  Biso   1.000  N
  C81      1.0000 0.64120  0.29110  0.43080  Biso   1.000  C
  C82      1.0000 0.58780  0.21520  0.41560  Biso   1.000  C
  C83      1.0000 0.68630  0.18180  0.55350  Biso   1.000  C
  C84      1.0000 0.62650  0.10740  0.54730  Biso   1.000  C
  Ru10     1.0000 0.60905  0.26634  0.55472  Biso   1.000  Ru
  Ru11     1.0000 0.64071  0.18358  0.64920  Biso   1.000  Ru
  C85      1.0000 0.63430  0.12720  0.31950  Biso   1.000  C
  C86      1.0000 0.67140  0.17430  0.33200  Biso   1.000  C
  O60      1.0000 0.62600  0.30010  0.47150  Biso   1.000  O
  C87      1.0000 0.65130  0.33030  0.38630  Biso   1.000  C
  O61      1.0000 0.58340  0.23930  0.47420  Biso   1.000  O
  C88      1.0000 0.56370  0.21550  0.36090  Biso   1.000  C
  O62      1.0000 0.67820  0.18240  0.61680  Biso   1.000  O
  C89      1.0000 0.71340  0.17160  0.56550  Biso   1.000  C
  O63      1.0000 0.63320  0.11960  0.61090  Biso   1.000  O
  C90      1.0000 0.61710  0.05750  0.54250  Biso   1.000  C
  O64      1.0000 0.58860  0.24260  0.63410  Biso   1.000  O
  O65      1.0000 0.63270  0.29810  0.63560  Biso   1.000  O
  N8       1.0000 0.58720  0.32580  0.55770  Biso   1.000  N
  O66      1.0000 0.60650  0.17880  0.67930  Biso   1.000  O
  O67      1.0000 0.64880  0.24280  0.70670  Biso   1.000  O
  N9       1.0000 0.65230  0.14980  0.75470  Biso   1.000  N
  H87      1.0000 0.61920  0.12090  0.33810  Biso   1.000  H
  C91      1.0000 0.64210  0.10140  0.25770  Biso   1.000  C
  C92      1.0000 0.67830  0.14760  0.27150  Biso   1.000  C
  H88      1.0000 0.68080  0.19860  0.35710  Biso   1.000  H
  H89      1.0000 0.65110  0.32110  0.33230  Biso   1.000  H
  H90      1.0000 0.66810  0.33620  0.40790  Biso   1.000  H
  H91      1.0000 0.64170  0.35850  0.38980  Biso   1.000  H
  H92      1.0000 0.55010  0.23000  0.38350  Biso   1.000  H
  H93      1.0000 0.56000  0.18280  0.35020  Biso   1.000  H
  H94      1.0000 0.56640  0.23130  0.31290  Biso   1.000  H
  H95      1.0000 0.72300  0.19780  0.58770  Biso   1.000  H
  H96      1.0000 0.71850  0.16430  0.51480  Biso   1.000  H
  H97      1.0000 0.71620  0.14460  0.59930  Biso   1.000  H
  H98      1.0000 0.62640  0.03840  0.50970  Biso   1.000  H
  H99      1.0000 0.60000  0.05820  0.52080  Biso   1.000  H
  H100     1.0000 0.61820  0.04430  0.59440  Biso   1.000  H
  C93      1.0000 0.58880  0.20560  0.66740  Biso   1.000  C
  C94      1.0000 0.64530  0.28430  0.69390  Biso   1.000  C
  C95      1.0000 0.58330  0.34240  0.62980  Biso   1.000  C
  C96      1.0000 0.57510  0.34390  0.49110  Biso   1.000  C
  H101     1.0000 0.63260  0.07730  0.23290  Biso   1.000  H
  C97      1.0000 0.66400  0.11180  0.23320  Biso   1.000  C
  H102     1.0000 0.69370  0.15340  0.25390  Biso   1.000  H
  C98      1.0000 0.56840  0.20130  0.72110  Biso   1.000  C
  C99      1.0000 0.65470  0.31730  0.76000  Biso   1.000  C
  H103     1.0000 0.59210  0.33000  0.67480  Biso   1.000  H
  C100     1.0000 0.56650  0.37800  0.63560  Biso   1.000  C
  C101     1.0000 0.55820  0.37940  0.49790  Biso   1.000  C
  H104     1.0000 0.57840  0.33240  0.44220  Biso   1.000  H
  C102     1.0000 0.67420  0.08320  0.17380  Biso   1.000  C
  H105     1.0000 0.57430  0.20880  0.77440  Biso   1.000  H
  H106     1.0000 0.56240  0.16940  0.71830  Biso   1.000  H
  H107     1.0000 0.55520  0.22240  0.70310  Biso   1.000  H
  H108     1.0000 0.66120  0.29720  0.80250  Biso   1.000  H
  H109     1.0000 0.64210  0.33740  0.77730  Biso   1.000  H
  H110     1.0000 0.66790  0.33630  0.74350  Biso   1.000  H
  H111     1.0000 0.56370  0.38990  0.68450  Biso   1.000  H
  C103     1.0000 0.55410  0.39610  0.56910  Biso   1.000  C
  H112     1.0000 0.54920  0.39140  0.45290  Biso   1.000  H
  O68      1.0000 0.69470  0.08910  0.15570  Biso   1.000  O
  O69      1.0000 0.66130  0.05120  0.15070  Biso   1.000  O
  C104     1.0000 0.53680  0.43420  0.58350  Biso   1.000  C
  Ru12     1.0000 0.71758  0.06119  0.08526  Biso   1.000  Ru
  O70      1.0000 0.52610  0.44890  0.52070  Biso   1.000  O
  O71      1.0000 0.53490  0.44530  0.65300  Biso   1.000  O
  O72      1.0000 0.69690  0.08600  0.99130  Biso   1.000  O
  O73      1.0000 0.74250  0.03950  0.01490  Biso   1.000  O
  O74      1.0000 0.74070  0.03750  0.17620  Biso   1.000  O
  O75      1.0000 0.66160  0.04810  0.97900  Biso   1.000  O
  C105     1.0000 0.67720  0.07510  0.95860  Biso   1.000  C
  C106     1.0000 0.66820  0.10230  0.88580  Biso   1.000  C
  C107     1.0000 0.68200  0.13860  0.86050  Biso   1.000  C
  C108     1.0000 0.64610  0.09040  0.84440  Biso   1.000  C
  C109     1.0000 0.77350  0.04210  0.90500  Biso   1.000  C
  C110     1.0000 0.77150  0.04160  0.31680  Biso   1.000  C
  C111     1.0000 0.67360  0.16180  0.79450  Biso   1.000  C
  H113     1.0000 0.69660  0.14700  0.89060  Biso   1.000  H
  H114     1.0000 0.63640  0.06590  0.86090  Biso   1.000  H
  C112     1.0000 0.63830  0.11420  0.77860  Biso   1.000  C
  C113     1.0000 0.78840  0.04150  0.84450  Biso   1.000  C
  H115     1.0000 0.76820  0.07050  0.92460  Biso   1.000  H
  C114     1.0000 0.78650  0.04150  0.38630  Biso   1.000  C
  H116     1.0000 0.76640  0.07020  0.29360  Biso   1.000  H
  H117     1.0000 0.68300  0.18670  0.77770  Biso   1.000  H
  H118     1.0000 0.62370  0.10630  0.74800  Biso   1.000  H
  H119     1.0000 0.79330  0.06990  0.82310  Biso   1.000  H
  H120     1.0000 0.79180  0.06980  0.40990  Biso   1.000  H
  O76      1.0000 0.78950  0.05150  0.55560  Biso   1.000  O
  O77      1.0000 0.83400  0.94960  0.48160  Biso   1.000  O
  C115     1.0000 0.78430  0.07280  0.61980  Biso   1.000  C
  C116     1.0000 0.85560  0.93930  0.49540  Biso   1.000  C
  O78      1.0000 0.79240  0.05010  0.68130  Biso   1.000  O
  C117     1.0000 0.76700  0.10910  0.60490  Biso   1.000  C
  O79      1.0000 0.86870  0.94840  0.55210  Biso   1.000  O
  C118     1.0000 0.86580  0.90610  0.43760  Biso   1.000  C
  O80      1.0000 0.83570  0.94930  0.76900  Biso   1.000  O
  O81      1.0000 0.86900  0.94950  0.71430  Biso   1.000  O
  H121     1.0000 0.75180  0.09860  0.62340  Biso   1.000  H
  H122     1.0000 0.76430  0.11570  0.54960  Biso   1.000  H
  H123     1.0000 0.77270  0.13720  0.63260  Biso   1.000  H
  H124     1.0000 0.88330  0.91150  0.43830  Biso   1.000  H
  H125     1.0000 0.85780  0.91210  0.38590  Biso   1.000  H
  H126     1.0000 0.86300  0.87390  0.45180  Biso   1.000  H
  C119     1.0000 0.85560  0.93370  0.75730  Biso   1.000  C
  C120     1.0000 0.86500  0.89160  0.80570  Biso   1.000  C
  H127     1.0000 0.85080  0.87230  0.81310  Biso   1.000  H
  H128     1.0000 0.87310  0.90080  0.85600  Biso   1.000  H
  H129     1.0000 0.87640  0.87410  0.77750  Biso   1.000  H
  Ru13     1.0000 0.13789  0.68957  0.45766  Biso   1.000  Ru
  O82      1.0000 0.15130  0.75460  0.42320  Biso   1.000  O
  O83      1.0000 0.10640  0.69950  0.39820  Biso   1.000  O
  O84      1.0000 0.17200  0.67580  0.49740  Biso   1.000  O
  O85      1.0000 0.12500  0.62420  0.48270  Biso   1.000  O
  O86      1.0000 0.12980  0.71370  0.54890  Biso   1.000  O
  N10      1.0000 0.14900  0.66110  0.35220  Biso   1.000  N
  C121     1.0000 0.14120  0.79110  0.43080  Biso   1.000  C
  C122     1.0000 0.08780  0.71520  0.41560  Biso   1.000  C
  C123     1.0000 0.18630  0.68180  0.55350  Biso   1.000  C
  C124     1.0000 0.12650  0.60740  0.54730  Biso   1.000  C
  Ru14     1.0000 0.10905  0.76634  0.55472  Biso   1.000  Ru
  Ru15     1.0000 0.14071  0.68358  0.64920  Biso   1.000  Ru
  C125     1.0000 0.13430  0.62720  0.31950  Biso   1.000  C
  C126     1.0000 0.17140  0.67430  0.33200  Biso   1.000  C
  O87      1.0000 0.12600  0.80010  0.47150  Biso   1.000  O
  C127     1.0000 0.15130  0.83030  0.38630  Biso   1.000  C
  O88      1.0000 0.08340  0.73930  0.47420  Biso   1.000  O
  C128     1.0000 0.06370  0.71550  0.36090  Biso   1.000  C
  O89      1.0000 0.17820  0.68240  0.61680  Biso   1.000  O
  C129     1.0000 0.21340  0.67160  0.56550  Biso   1.000  C
  O90      1.0000 0.13320  0.61960  0.61090  Biso   1.000  O
  C130     1.0000 0.11710  0.55750  0.54250  Biso   1.000  C
  O91      1.0000 0.08860  0.74260  0.63410  Biso   1.000  O
  O92      1.0000 0.13270  0.79810  0.63560  Biso   1.000  O
  N11      1.0000 0.08720  0.82580  0.55770  Biso   1.000  N
  O93      1.0000 0.10650  0.67880  0.67930  Biso   1.000  O
  O94      1.0000 0.14880  0.74280  0.70670  Biso   1.000  O
  N12      1.0000 0.15230  0.64980  0.75470  Biso   1.000  N
  H130     1.0000 0.11920  0.62090  0.33810  Biso   1.000  H
  C131     1.0000 0.14210  0.60140  0.25770  Biso   1.000  C
  C132     1.0000 0.17830  0.64760  0.27150  Biso   1.000  C
  H131     1.0000 0.18080  0.69860  0.35710  Biso   1.000  H
  H132     1.0000 0.15110  0.82110  0.33230  Biso   1.000  H
  H133     1.0000 0.16810  0.83620  0.40790  Biso   1.000  H
  H134     1.0000 0.14170  0.85850  0.38980  Biso   1.000  H
  H135     1.0000 0.05010  0.73000  0.38350  Biso   1.000  H
  H136     1.0000 0.06000  0.68280  0.35020  Biso   1.000  H
  H137     1.0000 0.06640  0.73130  0.31290  Biso   1.000  H
  H138     1.0000 0.22300  0.69780  0.58770  Biso   1.000  H
  H139     1.0000 0.21850  0.66430  0.51480  Biso   1.000  H
  H140     1.0000 0.21620  0.64460  0.59930  Biso   1.000  H
  H141     1.0000 0.12640  0.53840  0.50970  Biso   1.000  H
  H142     1.0000 0.10000  0.55820  0.52080  Biso   1.000  H
  H143     1.0000 0.11820  0.54430  0.59440  Biso   1.000  H
  C133     1.0000 0.08880  0.70560  0.66740  Biso   1.000  C
  C134     1.0000 0.14530  0.78430  0.69390  Biso   1.000  C
  C135     1.0000 0.08330  0.84240  0.62980  Biso   1.000  C
  C136     1.0000 0.07510  0.84390  0.49110  Biso   1.000  C
  H144     1.0000 0.13260  0.57730  0.23290  Biso   1.000  H
  C137     1.0000 0.16400  0.61180  0.23320  Biso   1.000  C
  H145     1.0000 0.19370  0.65340  0.25390  Biso   1.000  H
  C138     1.0000 0.06840  0.70130  0.72110  Biso   1.000  C
  C139     1.0000 0.15470  0.81730  0.76000  Biso   1.000  C
  H146     1.0000 0.09210  0.83000  0.67480  Biso   1.000  H
  C140     1.0000 0.06650  0.87800  0.63560  Biso   1.000  C
  C141     1.0000 0.05820  0.87940  0.49790  Biso   1.000  C
  H147     1.0000 0.07840  0.83240  0.44220  Biso   1.000  H
  C142     1.0000 0.17420  0.58320  0.17380  Biso   1.000  C
  H148     1.0000 0.07430  0.70880  0.77440  Biso   1.000  H
  H149     1.0000 0.06240  0.66940  0.71830  Biso   1.000  H
  H150     1.0000 0.05520  0.72240  0.70310  Biso   1.000  H
  H151     1.0000 0.16120  0.79720  0.80250  Biso   1.000  H
  H152     1.0000 0.14210  0.83740  0.77730  Biso   1.000  H
  H153     1.0000 0.16790  0.83630  0.74350  Biso   1.000  H
  H154     1.0000 0.06370  0.88990  0.68450  Biso   1.000  H
  C143     1.0000 0.05410  0.89610  0.56910  Biso   1.000  C
  H155     1.0000 0.04920  0.89140  0.45290  Biso   1.000  H
  O95      1.0000 0.19470  0.58910  0.15570  Biso   1.000  O
  O96      1.0000 0.16130  0.55120  0.15070  Biso   1.000  O
  C144     1.0000 0.03680  0.93420  0.58350  Biso   1.000  C
  Ru16     1.0000 0.21758  0.56119  0.08526  Biso   1.000  Ru
  O97      1.0000 0.02610  0.94890  0.52070  Biso   1.000  O
  O98      1.0000 0.03490  0.94530  0.65300  Biso   1.000  O
  O99      1.0000 0.19690  0.58600  0.99130  Biso   1.000  O
  O100     1.0000 0.24250  0.53950  0.01490  Biso   1.000  O
  O101     1.0000 0.24070  0.53750  0.17620  Biso   1.000  O
  O102     1.0000 0.16160  0.54810  0.97900  Biso   1.000  O
  C145     1.0000 0.17720  0.57510  0.95860  Biso   1.000  C
  C146     1.0000 0.16820  0.60230  0.88580  Biso   1.000  C
  C147     1.0000 0.18200  0.63860  0.86050  Biso   1.000  C
  C148     1.0000 0.14610  0.59040  0.84440  Biso   1.000  C
  C149     1.0000 0.27350  0.54210  0.90500  Biso   1.000  C
  C150     1.0000 0.27150  0.54160  0.31680  Biso   1.000  C
  C151     1.0000 0.17360  0.66180  0.79450  Biso   1.000  C
  H156     1.0000 0.19660  0.64700  0.89060  Biso   1.000  H
  H157     1.0000 0.13640  0.56590  0.86090  Biso   1.000  H
  C152     1.0000 0.13830  0.61420  0.77860  Biso   1.000  C
  C153     1.0000 0.28840  0.54150  0.84450  Biso   1.000  C
  H158     1.0000 0.26820  0.57050  0.92460  Biso   1.000  H
  C154     1.0000 0.28650  0.54150  0.38630  Biso   1.000  C
  H159     1.0000 0.26640  0.57020  0.29360  Biso   1.000  H
  H160     1.0000 0.18300  0.68670  0.77770  Biso   1.000  H
  H161     1.0000 0.12370  0.60630  0.74800  Biso   1.000  H
  H162     1.0000 0.29330  0.56990  0.82310  Biso   1.000  H
  H163     1.0000 0.29180  0.56980  0.40990  Biso   1.000  H
  O103     1.0000 0.28950  0.55150  0.55560  Biso   1.000  O
  O104     1.0000 0.33400  0.44960  0.48160  Biso   1.000  O
  C155     1.0000 0.28430  0.57280  0.61980  Biso   1.000  C
  C156     1.0000 0.35560  0.43930  0.49540  Biso   1.000  C
  O105     1.0000 0.29240  0.55010  0.68130  Biso   1.000  O
  C157     1.0000 0.26700  0.60910  0.60490  Biso   1.000  C
  O106     1.0000 0.36870  0.44840  0.55210  Biso   1.000  O
  C158     1.0000 0.36580  0.40610  0.43760  Biso   1.000  C
  O107     1.0000 0.33570  0.44930  0.76900  Biso   1.000  O
  O108     1.0000 0.36900  0.44950  0.71430  Biso   1.000  O
  H164     1.0000 0.25180  0.59860  0.62340  Biso   1.000  H
  H165     1.0000 0.26430  0.61570  0.54960  Biso   1.000  H
  H166     1.0000 0.27270  0.63720  0.63260  Biso   1.000  H
  H167     1.0000 0.38330  0.41150  0.43830  Biso   1.000  H
  H168     1.0000 0.35780  0.41210  0.38590  Biso   1.000  H
  H169     1.0000 0.36300  0.37390  0.45180  Biso   1.000  H
  C159     1.0000 0.35560  0.43370  0.75730  Biso   1.000  C
  C160     1.0000 0.36500  0.39160  0.80570  Biso   1.000  C
  H170     1.0000 0.35080  0.37230  0.81310  Biso   1.000  H
  H171     1.0000 0.37310  0.40080  0.85600  Biso   1.000  H
  H172     1.0000 0.37640  0.37410  0.77750  Biso   1.000  H
  Ru17     1.0000 0.63789  0.81043  0.45766  Biso   1.000  Ru
  O109     1.0000 0.65130  0.74540  0.42320  Biso   1.000  O
  O110     1.0000 0.60640  0.80050  0.39820  Biso   1.000  O
  O111     1.0000 0.67200  0.82420  0.49740  Biso   1.000  O
  O112     1.0000 0.62500  0.87580  0.48270  Biso   1.000  O
  O113     1.0000 0.62980  0.78630  0.54890  Biso   1.000  O
  N13      1.0000 0.64900  0.83890  0.35220  Biso   1.000  N
  C161     1.0000 0.64120  0.70890  0.43080  Biso   1.000  C
  C162     1.0000 0.58780  0.78480  0.41560  Biso   1.000  C
  C163     1.0000 0.68630  0.81820  0.55350  Biso   1.000  C
  C164     1.0000 0.62650  0.89260  0.54730  Biso   1.000  C
  Ru18     1.0000 0.60905  0.73366  0.55472  Biso   1.000  Ru
  Ru19     1.0000 0.64071  0.81642  0.64920  Biso   1.000  Ru
  C165     1.0000 0.63430  0.87280  0.31950  Biso   1.000  C
  C166     1.0000 0.67140  0.82570  0.33200  Biso   1.000  C
  O114     1.0000 0.62600  0.69990  0.47150  Biso   1.000  O
  C167     1.0000 0.65130  0.66970  0.38630  Biso   1.000  C
  O115     1.0000 0.58340  0.76070  0.47420  Biso   1.000  O
  C168     1.0000 0.56370  0.78450  0.36090  Biso   1.000  C
  O116     1.0000 0.67820  0.81760  0.61680  Biso   1.000  O
  C169     1.0000 0.71340  0.82840  0.56550  Biso   1.000  C
  O117     1.0000 0.63320  0.88040  0.61090  Biso   1.000  O
  C170     1.0000 0.61710  0.94250  0.54250  Biso   1.000  C
  O118     1.0000 0.58860  0.75740  0.63410  Biso   1.000  O
  O119     1.0000 0.63270  0.70190  0.63560  Biso   1.000  O
  N14      1.0000 0.58720  0.67420  0.55770  Biso   1.000  N
  O120     1.0000 0.60650  0.82120  0.67930  Biso   1.000  O
  O121     1.0000 0.64880  0.75720  0.70670  Biso   1.000  O
  N15      1.0000 0.65230  0.85020  0.75470  Biso   1.000  N
  H173     1.0000 0.61920  0.87910  0.33810  Biso   1.000  H
  C171     1.0000 0.64210  0.89860  0.25770  Biso   1.000  C
  C172     1.0000 0.67830  0.85240  0.27150  Biso   1.000  C
  H174     1.0000 0.68080  0.80140  0.35710  Biso   1.000  H
  H175     1.0000 0.65110  0.67890  0.33230  Biso   1.000  H
  H176     1.0000 0.66810  0.66380  0.40790  Biso   1.000  H
  H177     1.0000 0.64170  0.64150  0.38980  Biso   1.000  H
  H178     1.0000 0.55010  0.77000  0.38350  Biso   1.000  H
  H179     1.0000 0.56000  0.81720  0.35020  Biso   1.000  H
  H180     1.0000 0.56640  0.76870  0.31290  Biso   1.000  H
  H181     1.0000 0.72300  0.80220  0.58770  Biso   1.000  H
  H182     1.0000 0.71850  0.83570  0.51480  Biso   1.000  H
  H183     1.0000 0.71620  0.85540  0.59930  Biso   1.000  H
  H184     1.0000 0.62640  0.96160  0.50970  Biso   1.000  H
  H185     1.0000 0.60000  0.94180  0.52080  Biso   1.000  H
  H186     1.0000 0.61820  0.95570  0.59440  Biso   1.000  H
  C173     1.0000 0.58880  0.79440  0.66740  Biso   1.000  C
  C174     1.0000 0.64530  0.71570  0.69390  Biso   1.000  C
  C175     1.0000 0.58330  0.65760  0.62980  Biso   1.000  C
  C176     1.0000 0.57510  0.65610  0.49110  Biso   1.000  C
  H187     1.0000 0.63260  0.92270  0.23290  Biso   1.000  H
  C177     1.0000 0.66400  0.88820  0.23320  Biso   1.000  C
  H188     1.0000 0.69370  0.84660  0.25390  Biso   1.000  H
  C178     1.0000 0.56840  0.79870  0.72110  Biso   1.000  C
  C179     1.0000 0.65470  0.68270  0.76000  Biso   1.000  C
  H189     1.0000 0.59210  0.67000  0.67480  Biso   1.000  H
  C180     1.0000 0.56650  0.62200  0.63560  Biso   1.000  C
  C181     1.0000 0.55820  0.62060  0.49790  Biso   1.000  C
  H190     1.0000 0.57840  0.66760  0.44220  Biso   1.000  H
  C182     1.0000 0.67420  0.91680  0.17380  Biso   1.000  C
  H191     1.0000 0.57430  0.79120  0.77440  Biso   1.000  H
  H192     1.0000 0.56240  0.83060  0.71830  Biso   1.000  H
  H193     1.0000 0.55520  0.77760  0.70310  Biso   1.000  H
  H194     1.0000 0.66120  0.70280  0.80250  Biso   1.000  H
  H195     1.0000 0.64210  0.66260  0.77730  Biso   1.000  H
  H196     1.0000 0.66790  0.66370  0.74350  Biso   1.000  H
  H197     1.0000 0.56370  0.61010  0.68450  Biso   1.000  H
  C183     1.0000 0.55410  0.60390  0.56910  Biso   1.000  C
  H198     1.0000 0.54920  0.60860  0.45290  Biso   1.000  H
  O122     1.0000 0.69470  0.91090  0.15570  Biso   1.000  O
  O123     1.0000 0.66130  0.94880  0.15070  Biso   1.000  O
  C184     1.0000 0.53680  0.56580  0.58350  Biso   1.000  C
  Ru20     1.0000 0.71758  0.93881  0.08526  Biso   1.000  Ru
  O124     1.0000 0.52610  0.55110  0.52070  Biso   1.000  O
  O125     1.0000 0.53490  0.55470  0.65300  Biso   1.000  O
  O126     1.0000 0.69690  0.91400  0.99130  Biso   1.000  O
  O127     1.0000 0.74250  0.96050  0.01490  Biso   1.000  O
  O128     1.0000 0.74070  0.96250  0.17620  Biso   1.000  O
  O129     1.0000 0.66160  0.95190  0.97900  Biso   1.000  O
  C185     1.0000 0.67720  0.92490  0.95860  Biso   1.000  C
  C186     1.0000 0.66820  0.89770  0.88580  Biso   1.000  C
  C187     1.0000 0.68200  0.86140  0.86050  Biso   1.000  C
  C188     1.0000 0.64610  0.90960  0.84440  Biso   1.000  C
  C189     1.0000 0.77350  0.95790  0.90500  Biso   1.000  C
  C190     1.0000 0.77150  0.95840  0.31680  Biso   1.000  C
  C191     1.0000 0.67360  0.83820  0.79450  Biso   1.000  C
  H199     1.0000 0.69660  0.85300  0.89060  Biso   1.000  H
  H200     1.0000 0.63640  0.93410  0.86090  Biso   1.000  H
  C192     1.0000 0.63830  0.88580  0.77860  Biso   1.000  C
  C193     1.0000 0.78840  0.95850  0.84450  Biso   1.000  C
  H201     1.0000 0.76820  0.92950  0.92460  Biso   1.000  H
  C194     1.0000 0.78650  0.95850  0.38630  Biso   1.000  C
  H202     1.0000 0.76640  0.92980  0.29360  Biso   1.000  H
  H203     1.0000 0.68300  0.81330  0.77770  Biso   1.000  H
  H204     1.0000 0.62370  0.89370  0.74800  Biso   1.000  H
  H205     1.0000 0.79330  0.93010  0.82310  Biso   1.000  H
  H206     1.0000 0.79180  0.93020  0.40990  Biso   1.000  H
  O130     1.0000 0.78950  0.94850  0.55560  Biso   1.000  O
  O131     1.0000 0.83400  0.05040  0.48160  Biso   1.000  O
  C195     1.0000 0.78430  0.92720  0.61980  Biso   1.000  C
  C196     1.0000 0.85560  0.06070  0.49540  Biso   1.000  C
  O132     1.0000 0.79240  0.94990  0.68130  Biso   1.000  O
  C197     1.0000 0.76700  0.89090  0.60490  Biso   1.000  C
  O133     1.0000 0.86870  0.05160  0.55210  Biso   1.000  O
  C198     1.0000 0.86580  0.09390  0.43760  Biso   1.000  C
  O134     1.0000 0.83570  0.05070  0.76900  Biso   1.000  O
  O135     1.0000 0.86900  0.05050  0.71430  Biso   1.000  O
  H207     1.0000 0.75180  0.90140  0.62340  Biso   1.000  H
  H208     1.0000 0.76430  0.88430  0.54960  Biso   1.000  H
  H209     1.0000 0.77270  0.86280  0.63260  Biso   1.000  H
  H210     1.0000 0.88330  0.08850  0.43830  Biso   1.000  H
  H211     1.0000 0.85780  0.08790  0.38590  Biso   1.000  H
  H212     1.0000 0.86300  0.12610  0.45180  Biso   1.000  H
  C199     1.0000 0.85560  0.06630  0.75730  Biso   1.000  C
  C200     1.0000 0.86500  0.10840  0.80570  Biso   1.000  C
  H213     1.0000 0.85080  0.12770  0.81310  Biso   1.000  H
  H214     1.0000 0.87310  0.09920  0.85600  Biso   1.000  H
  H215     1.0000 0.87640  0.12590  0.77750  Biso   1.000  H
  Ru21     1.0000 0.13789  0.31043  0.45766  Biso   1.000  Ru
  O136     1.0000 0.15130  0.24540  0.42320  Biso   1.000  O
  O137     1.0000 0.10640  0.30050  0.39820  Biso   1.000  O
  O138     1.0000 0.17200  0.32420  0.49740  Biso   1.000  O
  O139     1.0000 0.12500  0.37580  0.48270  Biso   1.000  O
  O140     1.0000 0.12980  0.28630  0.54890  Biso   1.000  O
  N16      1.0000 0.14900  0.33890  0.35220  Biso   1.000  N
  C201     1.0000 0.14120  0.20890  0.43080  Biso   1.000  C
  C202     1.0000 0.08780  0.28480  0.41560  Biso   1.000  C
  C203     1.0000 0.18630  0.31820  0.55350  Biso   1.000  C
  C204     1.0000 0.12650  0.39260  0.54730  Biso   1.000  C
  Ru22     1.0000 0.10905  0.23366  0.55472  Biso   1.000  Ru
  Ru23     1.0000 0.14071  0.31642  0.64920  Biso   1.000  Ru
  C205     1.0000 0.13430  0.37280  0.31950  Biso   1.000  C
  C206     1.0000 0.17140  0.32570  0.33200  Biso   1.000  C
  O141     1.0000 0.12600  0.19990  0.47150  Biso   1.000  O
  C207     1.0000 0.15130  0.16970  0.38630  Biso   1.000  C
  O142     1.0000 0.08340  0.26070  0.47420  Biso   1.000  O
  C208     1.0000 0.06370  0.28450  0.36090  Biso   1.000  C
  O143     1.0000 0.17820  0.31760  0.61680  Biso   1.000  O
  C209     1.0000 0.21340  0.32840  0.56550  Biso   1.000  C
  O144     1.0000 0.13320  0.38040  0.61090  Biso   1.000  O
  C210     1.0000 0.11710  0.44250  0.54250  Biso   1.000  C
  O145     1.0000 0.08860  0.25740  0.63410  Biso   1.000  O
  O146     1.0000 0.13270  0.20190  0.63560  Biso   1.000  O
  N17      1.0000 0.08720  0.17420  0.55770  Biso   1.000  N
  O147     1.0000 0.10650  0.32120  0.67930  Biso   1.000  O
  O148     1.0000 0.14880  0.25720  0.70670  Biso   1.000  O
  N18      1.0000 0.15230  0.35020  0.75470  Biso   1.000  N
  H216     1.0000 0.11920  0.37910  0.33810  Biso   1.000  H
  C211     1.0000 0.14210  0.39860  0.25770  Biso   1.000  C
  C212     1.0000 0.17830  0.35240  0.27150  Biso   1.000  C
  H217     1.0000 0.18080  0.30140  0.35710  Biso   1.000  H
  H218     1.0000 0.15110  0.17890  0.33230  Biso   1.000  H
  H219     1.0000 0.16810  0.16380  0.40790  Biso   1.000  H
  H220     1.0000 0.14170  0.14150  0.38980  Biso   1.000  H
  H221     1.0000 0.05010  0.27000  0.38350  Biso   1.000  H
  H222     1.0000 0.06000  0.31720  0.35020  Biso   1.000  H
  H223     1.0000 0.06640  0.26870  0.31290  Biso   1.000  H
  H224     1.0000 0.22300  0.30220  0.58770  Biso   1.000  H
  H225     1.0000 0.21850  0.33570  0.51480  Biso   1.000  H
  H226     1.0000 0.21620  0.35540  0.59930  Biso   1.000  H
  H227     1.0000 0.12640  0.46160  0.50970  Biso   1.000  H
  H228     1.0000 0.10000  0.44180  0.52080  Biso   1.000  H
  H229     1.0000 0.11820  0.45570  0.59440  Biso   1.000  H
  C213     1.0000 0.08880  0.29440  0.66740  Biso   1.000  C
  C214     1.0000 0.14530  0.21570  0.69390  Biso   1.000  C
  C215     1.0000 0.08330  0.15760  0.62980  Biso   1.000  C
  C216     1.0000 0.07510  0.15610  0.49110  Biso   1.000  C
  H230     1.0000 0.13260  0.42270  0.23290  Biso   1.000  H
  C217     1.0000 0.16400  0.38820  0.23320  Biso   1.000  C
  H231     1.0000 0.19370  0.34660  0.25390  Biso   1.000  H
  C218     1.0000 0.06840  0.29870  0.72110  Biso   1.000  C
  C219     1.0000 0.15470  0.18270  0.76000  Biso   1.000  C
  H232     1.0000 0.09210  0.17000  0.67480  Biso   1.000  H
  C220     1.0000 0.06650  0.12200  0.63560  Biso   1.000  C
  C221     1.0000 0.05820  0.12060  0.49790  Biso   1.000  C
  H233     1.0000 0.07840  0.16760  0.44220  Biso   1.000  H
  C222     1.0000 0.17420  0.41680  0.17380  Biso   1.000  C
  H234     1.0000 0.07430  0.29120  0.77440  Biso   1.000  H
  H235     1.0000 0.06240  0.33060  0.71830  Biso   1.000  H
  H236     1.0000 0.05520  0.27760  0.70310  Biso   1.000  H
  H237     1.0000 0.16120  0.20280  0.80250  Biso   1.000  H
  H238     1.0000 0.14210  0.16260  0.77730  Biso   1.000  H
  H239     1.0000 0.16790  0.16370  0.74350  Biso   1.000  H
  H240     1.0000 0.06370  0.11010  0.68450  Biso   1.000  H
  C223     1.0000 0.05410  0.10390  0.56910  Biso   1.000  C
  H241     1.0000 0.04920  0.10860  0.45290  Biso   1.000  H
  O149     1.0000 0.19470  0.41090  0.15570  Biso   1.000  O
  O150     1.0000 0.16130  0.44880  0.15070  Biso   1.000  O
  C224     1.0000 0.03680  0.06580  0.58350  Biso   1.000  C
  Ru24     1.0000 0.21758  0.43881  0.08526  Biso   1.000  Ru
  O151     1.0000 0.02610  0.05110  0.52070  Biso   1.000  O
  O152     1.0000 0.03490  0.05470  0.65300  Biso   1.000  O
  O153     1.0000 0.19690  0.41400  0.99130  Biso   1.000  O
  O154     1.0000 0.24250  0.46050  0.01490  Biso   1.000  O
  O155     1.0000 0.24070  0.46250  0.17620  Biso   1.000  O
  O156     1.0000 0.16160  0.45190  0.97900  Biso   1.000  O
  C225     1.0000 0.17720  0.42490  0.95860  Biso   1.000  C
  C226     1.0000 0.16820  0.39770  0.88580  Biso   1.000  C
  C227     1.0000 0.18200  0.36140  0.86050  Biso   1.000  C
  C228     1.0000 0.14610  0.40960  0.84440  Biso   1.000  C
  C229     1.0000 0.27350  0.45790  0.90500  Biso   1.000  C
  C230     1.0000 0.27150  0.45840  0.31680  Biso   1.000  C
  C231     1.0000 0.17360  0.33820  0.79450  Biso   1.000  C
  H242     1.0000 0.19660  0.35300  0.89060  Biso   1.000  H
  H243     1.0000 0.13640  0.43410  0.86090  Biso   1.000  H
  C232     1.0000 0.13830  0.38580  0.77860  Biso   1.000  C
  C233     1.0000 0.28840  0.45850  0.84450  Biso   1.000  C
  H244     1.0000 0.26820  0.42950  0.92460  Biso   1.000  H
  C234     1.0000 0.28650  0.45850  0.38630  Biso   1.000  C
  H245     1.0000 0.26640  0.42980  0.29360  Biso   1.000  H
  H246     1.0000 0.18300  0.31330  0.77770  Biso   1.000  H
  H247     1.0000 0.12370  0.39370  0.74800  Biso   1.000  H
  H248     1.0000 0.29330  0.43010  0.82310  Biso   1.000  H
  H249     1.0000 0.29180  0.43020  0.40990  Biso   1.000  H
  O157     1.0000 0.28950  0.44850  0.55560  Biso   1.000  O
  O158     1.0000 0.33400  0.55040  0.48160  Biso   1.000  O
  C235     1.0000 0.28430  0.42720  0.61980  Biso   1.000  C
  C236     1.0000 0.35560  0.56070  0.49540  Biso   1.000  C
  O159     1.0000 0.29240  0.44990  0.68130  Biso   1.000  O
  C237     1.0000 0.26700  0.39090  0.60490  Biso   1.000  C
  O160     1.0000 0.36870  0.55160  0.55210  Biso   1.000  O
  C238     1.0000 0.36580  0.59390  0.43760  Biso   1.000  C
  O161     1.0000 0.33570  0.55070  0.76900  Biso   1.000  O
  O162     1.0000 0.36900  0.55050  0.71430  Biso   1.000  O
  H250     1.0000 0.25180  0.40140  0.62340  Biso   1.000  H
  H251     1.0000 0.26430  0.38430  0.54960  Biso   1.000  H
  H252     1.0000 0.27270  0.36280  0.63260  Biso   1.000  H
  H253     1.0000 0.38330  0.58850  0.43830  Biso   1.000  H
  H254     1.0000 0.35780  0.58790  0.38590  Biso   1.000  H
  H255     1.0000 0.36300  0.62610  0.45180  Biso   1.000  H
  C239     1.0000 0.35560  0.56630  0.75730  Biso   1.000  C
  C240     1.0000 0.36500  0.60840  0.80570  Biso   1.000  C
  H256     1.0000 0.35080  0.62770  0.81310  Biso   1.000  H
  H257     1.0000 0.37310  0.59920  0.85600  Biso   1.000  H
  H258     1.0000 0.37640  0.62590  0.77750  Biso   1.000  H
  Ru25     1.0000 0.36211  0.81043  0.54234  Biso   1.000  Ru
  O163     1.0000 0.34870  0.74540  0.57680  Biso   1.000  O
  O164     1.0000 0.39360  0.80050  0.60180  Biso   1.000  O
  O165     1.0000 0.32800  0.82420  0.50260  Biso   1.000  O
  O166     1.0000 0.37500  0.87580  0.51730  Biso   1.000  O
  O167     1.0000 0.37020  0.78630  0.45110  Biso   1.000  O
  N19      1.0000 0.35100  0.83890  0.64780  Biso   1.000  N
  C241     1.0000 0.35880  0.70890  0.56920  Biso   1.000  C
  C242     1.0000 0.41220  0.78480  0.58440  Biso   1.000  C
  C243     1.0000 0.31370  0.81820  0.44650  Biso   1.000  C
  C244     1.0000 0.37350  0.89260  0.45270  Biso   1.000  C
  Ru26     1.0000 0.39095  0.73366  0.44528  Biso   1.000  Ru
  Ru27     1.0000 0.35929  0.81642  0.35080  Biso   1.000  Ru
  C245     1.0000 0.36570  0.87280  0.68050  Biso   1.000  C
  C246     1.0000 0.32860  0.82570  0.66800  Biso   1.000  C
  O168     1.0000 0.37400  0.69990  0.52850  Biso   1.000  O
  C247     1.0000 0.34870  0.66970  0.61370  Biso   1.000  C
  O169     1.0000 0.41660  0.76070  0.52580  Biso   1.000  O
  C248     1.0000 0.43630  0.78450  0.63910  Biso   1.000  C
  O170     1.0000 0.32180  0.81760  0.38320  Biso   1.000  O
  C249     1.0000 0.28660  0.82840  0.43450  Biso   1.000  C
  O171     1.0000 0.36680  0.88040  0.38910  Biso   1.000  O
  C250     1.0000 0.38290  0.94250  0.45750  Biso   1.000  C
  O172     1.0000 0.41140  0.75740  0.36590  Biso   1.000  O
  O173     1.0000 0.36730  0.70190  0.36440  Biso   1.000  O
  N20      1.0000 0.41280  0.67420  0.44230  Biso   1.000  N
  O174     1.0000 0.39350  0.82120  0.32070  Biso   1.000  O
  O175     1.0000 0.35120  0.75720  0.29330  Biso   1.000  O
  N21      1.0000 0.34770  0.85020  0.24530  Biso   1.000  N
  H259     1.0000 0.38080  0.87910  0.66190  Biso   1.000  H
  C251     1.0000 0.35790  0.89860  0.74230  Biso   1.000  C
  C252     1.0000 0.32170  0.85240  0.72850  Biso   1.000  C
  H260     1.0000 0.31920  0.80140  0.64290  Biso   1.000  H
  H261     1.0000 0.34890  0.67890  0.66770  Biso   1.000  H
  H262     1.0000 0.33190  0.66380  0.59210  Biso   1.000  H
  H263     1.0000 0.35830  0.64150  0.61020  Biso   1.000  H
  H264     1.0000 0.44990  0.77000  0.61650  Biso   1.000  H
  H265     1.0000 0.44000  0.81720  0.64980  Biso   1.000  H
  H266     1.0000 0.43360  0.76870  0.68710  Biso   1.000  H
  H267     1.0000 0.27700  0.80220  0.41230  Biso   1.000  H
  H268     1.0000 0.28150  0.83570  0.48520  Biso   1.000  H
  H269     1.0000 0.28380  0.85540  0.40070  Biso   1.000  H
  H270     1.0000 0.37360  0.96160  0.49030  Biso   1.000  H
  H271     1.0000 0.40000  0.94180  0.47920  Biso   1.000  H
  H272     1.0000 0.38180  0.95570  0.40560  Biso   1.000  H
  C253     1.0000 0.41120  0.79440  0.33260  Biso   1.000  C
  C254     1.0000 0.35470  0.71570  0.30610  Biso   1.000  C
  C255     1.0000 0.41670  0.65760  0.37020  Biso   1.000  C
  C256     1.0000 0.42490  0.65610  0.50890  Biso   1.000  C
  H273     1.0000 0.36740  0.92270  0.76710  Biso   1.000  H
  C257     1.0000 0.33600  0.88820  0.76680  Biso   1.000  C
  H274     1.0000 0.30630  0.84660  0.74610  Biso   1.000  H
  C258     1.0000 0.43160  0.79870  0.27890  Biso   1.000  C
  C259     1.0000 0.34530  0.68270  0.24000  Biso   1.000  C
  H275     1.0000 0.40790  0.67000  0.32520  Biso   1.000  H
  C260     1.0000 0.43350  0.62200  0.36440  Biso   1.000  C
  C261     1.0000 0.44180  0.62060  0.50210  Biso   1.000  C
  H276     1.0000 0.42160  0.66760  0.55780  Biso   1.000  H
  C262     1.0000 0.32580  0.91680  0.82620  Biso   1.000  C
  H277     1.0000 0.42570  0.79120  0.22560  Biso   1.000  H
  H278     1.0000 0.43760  0.83060  0.28170  Biso   1.000  H
  H279     1.0000 0.44480  0.77760  0.29690  Biso   1.000  H
  H280     1.0000 0.33880  0.70280  0.19750  Biso   1.000  H
  H281     1.0000 0.35790  0.66260  0.22270  Biso   1.000  H
  H282     1.0000 0.33210  0.66370  0.25650  Biso   1.000  H
  H283     1.0000 0.43630  0.61010  0.31550  Biso   1.000  H
  C263     1.0000 0.44590  0.60390  0.43090  Biso   1.000  C
  H284     1.0000 0.45080  0.60860  0.54710  Biso   1.000  H
  O176     1.0000 0.30530  0.91090  0.84430  Biso   1.000  O
  O177     1.0000 0.33870  0.94880  0.84930  Biso   1.000  O
  C264     1.0000 0.46320  0.56580  0.41650  Biso   1.000  C
  Ru28     1.0000 0.28242  0.93881  0.91474  Biso   1.000  Ru
  O178     1.0000 0.47390  0.55110  0.47930  Biso   1.000  O
  O179     1.0000 0.46510  0.55470  0.34700  Biso   1.000  O
  O180     1.0000 0.30310  0.91400  0.00870  Biso   1.000  O
  O181     1.0000 0.25750  0.96050  0.98510  Biso   1.000  O
  O182     1.0000 0.25930  0.96250  0.82380  Biso   1.000  O
  O183     1.0000 0.33840  0.95190  0.02100  Biso   1.000  O
  C265     1.0000 0.32280  0.92490  0.04140  Biso   1.000  C
  C266     1.0000 0.33180  0.89770  0.11420  Biso   1.000  C
  C267     1.0000 0.31800  0.86140  0.13950  Biso   1.000  C
  C268     1.0000 0.35390  0.90960  0.15560  Biso   1.000  C
  C269     1.0000 0.22650  0.95790  0.09500  Biso   1.000  C
  C270     1.0000 0.22850  0.95840  0.68320  Biso   1.000  C
  C271     1.0000 0.32640  0.83820  0.20550  Biso   1.000  C
  H285     1.0000 0.30340  0.85300  0.10940  Biso   1.000  H
  H286     1.0000 0.36360  0.93410  0.13910  Biso   1.000  H
  C272     1.0000 0.36170  0.88580  0.22140  Biso   1.000  C
  C273     1.0000 0.21160  0.95850  0.15550  Biso   1.000  C
  H287     1.0000 0.23180  0.92950  0.07540  Biso   1.000  H
  C274     1.0000 0.21350  0.95850  0.61370  Biso   1.000  C
  H288     1.0000 0.23360  0.92980  0.70640  Biso   1.000  H
  H289     1.0000 0.31700  0.81330  0.22230  Biso   1.000  H
  H290     1.0000 0.37630  0.89370  0.25200  Biso   1.000  H
  H291     1.0000 0.20670  0.93010  0.17690  Biso   1.000  H
  H292     1.0000 0.20820  0.93020  0.59010  Biso   1.000  H
  O184     1.0000 0.21050  0.94850  0.44440  Biso   1.000  O
  O185     1.0000 0.16600  0.05040  0.51840  Biso   1.000  O
  C275     1.0000 0.21570  0.92720  0.38020  Biso   1.000  C
  C276     1.0000 0.14440  0.06070  0.50460  Biso   1.000  C
  O186     1.0000 0.20760  0.94990  0.31870  Biso   1.000  O
  C277     1.0000 0.23300  0.89090  0.39510  Biso   1.000  C
  O187     1.0000 0.13130  0.05160  0.44790  Biso   1.000  O
  C278     1.0000 0.13420  0.09390  0.56240  Biso   1.000  C
  O188     1.0000 0.16430  0.05070  0.23100  Biso   1.000  O
  O189     1.0000 0.13100  0.05050  0.28570  Biso   1.000  O
  H293     1.0000 0.24820  0.90140  0.37660  Biso   1.000  H
  H294     1.0000 0.23570  0.88430  0.45040  Biso   1.000  H
  H295     1.0000 0.22730  0.86280  0.36740  Biso   1.000  H
  H296     1.0000 0.11670  0.08850  0.56170  Biso   1.000  H
  H297     1.0000 0.14220  0.08790  0.61410  Biso   1.000  H
  H298     1.0000 0.13700  0.12610  0.54820  Biso   1.000  H
  C279     1.0000 0.14440  0.06630  0.24270  Biso   1.000  C
  C280     1.0000 0.13500  0.10840  0.19430  Biso   1.000  C
  H299     1.0000 0.14920  0.12770  0.18690  Biso   1.000  H
  H300     1.0000 0.12690  0.09920  0.14400  Biso   1.000  H
  H301     1.0000 0.12360  0.12590  0.22250  Biso   1.000  H
  Ru29     1.0000 0.86211  0.31043  0.54234  Biso   1.000  Ru
  O190     1.0000 0.84870  0.24540  0.57680  Biso   1.000  O
  O191     1.0000 0.89360  0.30050  0.60180  Biso   1.000  O
  O192     1.0000 0.82800  0.32420  0.50260  Biso   1.000  O
  O193     1.0000 0.87500  0.37580  0.51730  Biso   1.000  O
  O194     1.0000 0.87020  0.28630  0.45110  Biso   1.000  O
  N22      1.0000 0.85100  0.33890  0.64780  Biso   1.000  N
  C281     1.0000 0.85880  0.20890  0.56920  Biso   1.000  C
  C282     1.0000 0.91220  0.28480  0.58440  Biso   1.000  C
  C283     1.0000 0.81370  0.31820  0.44650  Biso   1.000  C
  C284     1.0000 0.87350  0.39260  0.45270  Biso   1.000  C
  Ru30     1.0000 0.89095  0.23366  0.44528  Biso   1.000  Ru
  Ru31     1.0000 0.85929  0.31642  0.35080  Biso   1.000  Ru
  C285     1.0000 0.86570  0.37280  0.68050  Biso   1.000  C
  C286     1.0000 0.82860  0.32570  0.66800  Biso   1.000  C
  O195     1.0000 0.87400  0.19990  0.52850  Biso   1.000  O
  C287     1.0000 0.84870  0.16970  0.61370  Biso   1.000  C
  O196     1.0000 0.91660  0.26070  0.52580  Biso   1.000  O
  C288     1.0000 0.93630  0.28450  0.63910  Biso   1.000  C
  O197     1.0000 0.82180  0.31760  0.38320  Biso   1.000  O
  C289     1.0000 0.78660  0.32840  0.43450  Biso   1.000  C
  O198     1.0000 0.86680  0.38040  0.38910  Biso   1.000  O
  C290     1.0000 0.88290  0.44250  0.45750  Biso   1.000  C
  O199     1.0000 0.91140  0.25740  0.36590  Biso   1.000  O
  O200     1.0000 0.86730  0.20190  0.36440  Biso   1.000  O
  N23      1.0000 0.91280  0.17420  0.44230  Biso   1.000  N
  O201     1.0000 0.89350  0.32120  0.32070  Biso   1.000  O
  O202     1.0000 0.85120  0.25720  0.29330  Biso   1.000  O
  N24      1.0000 0.84770  0.35020  0.24530  Biso   1.000  N
  H302     1.0000 0.88080  0.37910  0.66190  Biso   1.000  H
  C291     1.0000 0.85790  0.39860  0.74230  Biso   1.000  C
  C292     1.0000 0.82170  0.35240  0.72850  Biso   1.000  C
  H303     1.0000 0.81920  0.30140  0.64290  Biso   1.000  H
  H304     1.0000 0.84890  0.17890  0.66770  Biso   1.000  H
  H305     1.0000 0.83190  0.16380  0.59210  Biso   1.000  H
  H306     1.0000 0.85830  0.14150  0.61020  Biso   1.000  H
  H307     1.0000 0.94990  0.27000  0.61650  Biso   1.000  H
  H308     1.0000 0.94000  0.31720  0.64980  Biso   1.000  H
  H309     1.0000 0.93360  0.26870  0.68710  Biso   1.000  H
  H310     1.0000 0.77700  0.30220  0.41230  Biso   1.000  H
  H311     1.0000 0.78150  0.33570  0.48520  Biso   1.000  H
  H312     1.0000 0.78380  0.35540  0.40070  Biso   1.000  H
  H313     1.0000 0.87360  0.46160  0.49030  Biso   1.000  H
  H314     1.0000 0.90000  0.44180  0.47920  Biso   1.000  H
  H315     1.0000 0.88180  0.45570  0.40560  Biso   1.000  H
  C293     1.0000 0.91120  0.29440  0.33260  Biso   1.000  C
  C294     1.0000 0.85470  0.21570  0.30610  Biso   1.000  C
  C295     1.0000 0.91670  0.15760  0.37020  Biso   1.000  C
  C296     1.0000 0.92490  0.15610  0.50890  Biso   1.000  C
  H316     1.0000 0.86740  0.42270  0.76710  Biso   1.000  H
  C297     1.0000 0.83600  0.38820  0.76680  Biso   1.000  C
  H317     1.0000 0.80630  0.34660  0.74610  Biso   1.000  H
  C298     1.0000 0.93160  0.29870  0.27890  Biso   1.000  C
  C299     1.0000 0.84530  0.18270  0.24000  Biso   1.000  C
  H318     1.0000 0.90790  0.17000  0.32520  Biso   1.000  H
  C300     1.0000 0.93350  0.12200  0.36440  Biso   1.000  C
  C301     1.0000 0.94180  0.12060  0.50210  Biso   1.000  C
  H319     1.0000 0.92160  0.16760  0.55780  Biso   1.000  H
  C302     1.0000 0.82580  0.41680  0.82620  Biso   1.000  C
  H320     1.0000 0.92570  0.29120  0.22560  Biso   1.000  H
  H321     1.0000 0.93760  0.33060  0.28170  Biso   1.000  H
  H322     1.0000 0.94480  0.27760  0.29690  Biso   1.000  H
  H323     1.0000 0.83880  0.20280  0.19750  Biso   1.000  H
  H324     1.0000 0.85790  0.16260  0.22270  Biso   1.000  H
  H325     1.0000 0.83210  0.16370  0.25650  Biso   1.000  H
  H326     1.0000 0.93630  0.11010  0.31550  Biso   1.000  H
  C303     1.0000 0.94590  0.10390  0.43090  Biso   1.000  C
  H327     1.0000 0.95080  0.10860  0.54710  Biso   1.000  H
  O203     1.0000 0.80530  0.41090  0.84430  Biso   1.000  O
  O204     1.0000 0.83870  0.44880  0.84930  Biso   1.000  O
  C304     1.0000 0.96320  0.06580  0.41650  Biso   1.000  C
  Ru32     1.0000 0.78242  0.43881  0.91474  Biso   1.000  Ru
  O205     1.0000 0.97390  0.05110  0.47930  Biso   1.000  O
  O206     1.0000 0.96510  0.05470  0.34700  Biso   1.000  O
  O207     1.0000 0.80310  0.41400  0.00870  Biso   1.000  O
  O208     1.0000 0.75750  0.46050  0.98510  Biso   1.000  O
  O209     1.0000 0.75930  0.46250  0.82380  Biso   1.000  O
  O210     1.0000 0.83840  0.45190  0.02100  Biso   1.000  O
  C305     1.0000 0.82280  0.42490  0.04140  Biso   1.000  C
  C306     1.0000 0.83180  0.39770  0.11420  Biso   1.000  C
  C307     1.0000 0.81800  0.36140  0.13950  Biso   1.000  C
  C308     1.0000 0.85390  0.40960  0.15560  Biso   1.000  C
  C309     1.0000 0.72650  0.45790  0.09500  Biso   1.000  C
  C310     1.0000 0.72850  0.45840  0.68320  Biso   1.000  C
  C311     1.0000 0.82640  0.33820  0.20550  Biso   1.000  C
  H328     1.0000 0.80340  0.35300  0.10940  Biso   1.000  H
  H329     1.0000 0.86360  0.43410  0.13910  Biso   1.000  H
  C312     1.0000 0.86170  0.38580  0.22140  Biso   1.000  C
  C313     1.0000 0.71160  0.45850  0.15550  Biso   1.000  C
  H330     1.0000 0.73180  0.42950  0.07540  Biso   1.000  H
  C314     1.0000 0.71350  0.45850  0.61370  Biso   1.000  C
  H331     1.0000 0.73360  0.42980  0.70640  Biso   1.000  H
  H332     1.0000 0.81700  0.31330  0.22230  Biso   1.000  H
  H333     1.0000 0.87630  0.39370  0.25200  Biso   1.000  H
  H334     1.0000 0.70670  0.43010  0.17690  Biso   1.000  H
  H335     1.0000 0.70820  0.43020  0.59010  Biso   1.000  H
  O211     1.0000 0.71050  0.44850  0.44440  Biso   1.000  O
  O212     1.0000 0.66600  0.55040  0.51840  Biso   1.000  O
  C315     1.0000 0.71570  0.42720  0.38020  Biso   1.000  C
  C316     1.0000 0.64440  0.56070  0.50460  Biso   1.000  C
  O213     1.0000 0.70760  0.44990  0.31870  Biso   1.000  O
  C317     1.0000 0.73300  0.39090  0.39510  Biso   1.000  C
  O214     1.0000 0.63130  0.55160  0.44790  Biso   1.000  O
  C318     1.0000 0.63420  0.59390  0.56240  Biso   1.000  C
  O215     1.0000 0.66430  0.55070  0.23100  Biso   1.000  O
  O216     1.0000 0.63100  0.55050  0.28570  Biso   1.000  O
  H336     1.0000 0.74820  0.40140  0.37660  Biso   1.000  H
  H337     1.0000 0.73570  0.38430  0.45040  Biso   1.000  H
  H338     1.0000 0.72730  0.36280  0.36740  Biso   1.000  H
  H339     1.0000 0.61670  0.58850  0.56170  Biso   1.000  H
  H340     1.0000 0.64220  0.58790  0.61410  Biso   1.000  H
  H341     1.0000 0.63700  0.62610  0.54820  Biso   1.000  H
  C319     1.0000 0.64440  0.56630  0.24270  Biso   1.000  C
  C320     1.0000 0.63500  0.60840  0.19430  Biso   1.000  C
  H342     1.0000 0.64920  0.62770  0.18690  Biso   1.000  H
  H343     1.0000 0.62690  0.59920  0.14400  Biso   1.000  H
  H344     1.0000 0.62360  0.62590  0.22250  Biso   1.000  H
  Ru33     1.0000 0.33753  0.00000  0.93470  Biso   1.000  Ru
  O217     1.0000 0.30057  0.00000  0.92030  Biso   1.000  O
  C321     1.0000 0.25310  0.00000  0.00780  Biso   1.000  C
  C322     1.0000 0.25140  0.00000  0.79970  Biso   1.000  C
  C323     1.0000 0.23250  0.00000  0.06230  Biso   1.000  C
  C324     1.0000 0.23620  0.00000  0.71840  Biso   1.000  C
  N25      1.0000 0.20540  0.00000  0.18690  Biso   1.000  N
  N26      1.0000 0.20610  0.00000  0.57940  Biso   1.000  N
  Ru34     1.0000 0.18535  0.00000  0.28518  Biso   1.000  Ru
  Ru35     1.0000 0.18696  0.00000  0.47540  Biso   1.000  Ru
  O218     1.0000 0.17070  0.00000  0.38260  Biso   1.000  O
  Ru36     1.0000 0.13415  0.00000  0.36743  Biso   1.000  Ru
  N27      1.0000 0.09510  0.00000  0.35550  Biso   1.000  N
  C325     1.0000 0.08300  0.00000  0.28180  Biso   1.000  C
  C326     1.0000 0.08330  0.00000  0.42100  Biso   1.000  C
  H345     1.0000 0.09160  0.00000  0.23740  Biso   1.000  H
  C327     1.0000 0.05750  0.00000  0.27560  Biso   1.000  C
  C328     1.0000 0.05770  0.00000  0.41370  Biso   1.000  C
  H346     1.0000 0.09230  0.00000  0.47030  Biso   1.000  H
  H347     1.0000 0.04840  0.00000  0.22650  Biso   1.000  H
  C329     1.0000 0.04570  0.00000  0.34160  Biso   1.000  C
  H348     1.0000 0.04910  0.00000  0.45790  Biso   1.000  H
  C330     1.0000 0.01790  0.00000  0.32780  Biso   1.000  C
  O219     1.0000 0.00740  0.00000  0.38510  Biso   1.000  O
  O220     1.0000 0.01030  0.00000  0.26030  Biso   1.000  O
  Ru37     1.0000 0.83753  0.50000  0.93470  Biso   1.000  Ru
  O221     1.0000 0.80057  0.50000  0.92030  Biso   1.000  O
  C331     1.0000 0.75310  0.50000  0.00780  Biso   1.000  C
  C332     1.0000 0.75140  0.50000  0.79970  Biso   1.000  C
  C333     1.0000 0.73250  0.50000  0.06230  Biso   1.000  C
  C334     1.0000 0.73620  0.50000  0.71840  Biso   1.000  C
  N28      1.0000 0.70540  0.50000  0.18690  Biso   1.000  N
  N29      1.0000 0.70610  0.50000  0.57940  Biso   1.000  N
  Ru38     1.0000 0.68535  0.50000  0.28518  Biso   1.000  Ru
  Ru39     1.0000 0.68696  0.50000  0.47540  Biso   1.000  Ru
  O222     1.0000 0.67070  0.50000  0.38260  Biso   1.000  O
  Ru40     1.0000 0.63415  0.50000  0.36743  Biso   1.000  Ru
  N30      1.0000 0.59510  0.50000  0.35550  Biso   1.000  N
  C335     1.0000 0.58300  0.50000  0.28180  Biso   1.000  C
  C336     1.0000 0.58330  0.50000  0.42100  Biso   1.000  C
  H349     1.0000 0.59160  0.50000  0.23740  Biso   1.000  H
  C337     1.0000 0.55750  0.50000  0.27560  Biso   1.000  C
  C338     1.0000 0.55770  0.50000  0.41370  Biso   1.000  C
  H350     1.0000 0.59230  0.50000  0.47030  Biso   1.000  H
  H351     1.0000 0.54840  0.50000  0.22650  Biso   1.000  H
  C339     1.0000 0.54570  0.50000  0.34160  Biso   1.000  C
  H352     1.0000 0.54910  0.50000  0.45790  Biso   1.000  H
  C340     1.0000 0.51790  0.50000  0.32780  Biso   1.000  C
  O223     1.0000 0.50740  0.50000  0.38510  Biso   1.000  O
  O224     1.0000 0.51030  0.50000  0.26030  Biso   1.000  O
  Ru41     1.0000 0.66247  0.00000  0.06530  Biso   1.000  Ru
  O225     1.0000 0.69943  0.00000  0.07970  Biso   1.000  O
  C341     1.0000 0.74690  0.00000  0.99220  Biso   1.000  C
  C342     1.0000 0.74860  0.00000  0.20030  Biso   1.000  C
  C343     1.0000 0.76750  0.00000  0.93770  Biso   1.000  C
  C344     1.0000 0.76380  0.00000  0.28160  Biso   1.000  C
  N31      1.0000 0.79460  0.00000  0.81310  Biso   1.000  N
  N32      1.0000 0.79390  0.00000  0.42060  Biso   1.000  N
  Ru42     1.0000 0.81465  0.00000  0.71482  Biso   1.000  Ru
  Ru43     1.0000 0.81304  0.00000  0.52460  Biso   1.000  Ru
  O226     1.0000 0.82930  0.00000  0.61740  Biso   1.000  O
  Ru44     1.0000 0.86585  0.00000  0.63257  Biso   1.000  Ru
  N33      1.0000 0.90490  0.00000  0.64450  Biso   1.000  N
  C345     1.0000 0.91700  0.00000  0.71820  Biso   1.000  C
  C346     1.0000 0.91670  0.00000  0.57900  Biso   1.000  C
  H353     1.0000 0.90840  0.00000  0.76260  Biso   1.000  H
  C347     1.0000 0.94250  0.00000  0.72440  Biso   1.000  C
  C348     1.0000 0.94230  0.00000  0.58630  Biso   1.000  C
  H354     1.0000 0.90770  0.00000  0.52970  Biso   1.000  H
  H355     1.0000 0.95160  0.00000  0.77350  Biso   1.000  H
  C349     1.0000 0.95430  0.00000  0.65840  Biso   1.000  C
  H356     1.0000 0.95090  0.00000  0.54210  Biso   1.000  H
  C350     1.0000 0.98210  0.00000  0.67220  Biso   1.000  C
  O227     1.0000 0.99260  0.00000  0.61490  Biso   1.000  O
  O228     1.0000 0.98970  0.00000  0.73970  Biso   1.000  O
  Ru45     1.0000 0.16247  0.50000  0.06530  Biso   1.000  Ru
  O229     1.0000 0.19943  0.50000  0.07970  Biso   1.000  O
  C351     1.0000 0.24690  0.50000  0.99220  Biso   1.000  C
  C352     1.0000 0.24860  0.50000  0.20030  Biso   1.000  C
  C353     1.0000 0.26750  0.50000  0.93770  Biso   1.000  C
  C354     1.0000 0.26380  0.50000  0.28160  Biso   1.000  C
  N34      1.0000 0.29460  0.50000  0.81310  Biso   1.000  N
  N35      1.0000 0.29390  0.50000  0.42060  Biso   1.000  N
  Ru46     1.0000 0.31465  0.50000  0.71482  Biso   1.000  Ru
  Ru47     1.0000 0.31304  0.50000  0.52460  Biso   1.000  Ru
  O230     1.0000 0.32930  0.50000  0.61740  Biso   1.000  O
  Ru48     1.0000 0.36585  0.50000  0.63257  Biso   1.000  Ru
  N36      1.0000 0.40490  0.50000  0.64450  Biso   1.000  N
  C355     1.0000 0.41700  0.50000  0.71820  Biso   1.000  C
  C356     1.0000 0.41670  0.50000  0.57900  Biso   1.000  C
  H357     1.0000 0.40840  0.50000  0.76260  Biso   1.000  H
  C357     1.0000 0.44250  0.50000  0.72440  Biso   1.000  C
  C358     1.0000 0.44230  0.50000  0.58630  Biso   1.000  C
  H358     1.0000 0.40770  0.50000  0.52970  Biso   1.000  H
  H359     1.0000 0.45160  0.50000  0.77350  Biso   1.000  H
  C359     1.0000 0.45430  0.50000  0.65840  Biso   1.000  C
  H360     1.0000 0.45090  0.50000  0.54210  Biso   1.000  H
  C360     1.0000 0.48210  0.50000  0.67220  Biso   1.000  C
  O231     1.0000 0.49260  0.50000  0.61490  Biso   1.000  O
  O232     1.0000 0.48970  0.50000  0.73970  Biso   1.000  O
  Co1      1.0000 0.50000  0.50000  0.50000  Biso   1.000  Co
  Co2      1.0000 0.00000  0.00000  0.50000  Biso   1.000  Co
  Co3      1.0000 0.47485  0.50000  0.29890  Biso   1.000  Co
  Co4      1.0000 0.97485  0.00000  0.29890  Biso   1.000  Co
  Co5      1.0000 0.52515  0.50000  0.70110  Biso   1.000  Co
  Co6      1.0000 0.02515  0.00000  0.70110  Biso   1.000  Co
