data_TUGSUK_ion_b
_audit_creation_date              2014-07-02
_audit_creation_method            'Materials Studio'
_symmetry_space_group_name_H-M    'P1'
_symmetry_Int_Tables_number       1
_symmetry_cell_setting            triclinic
loop_
_symmetry_equiv_pos_as_xyz
  x,y,z
_cell_length_a                    15.3762
_cell_length_b                    25.9847
_cell_length_c                    25.4431
_cell_angle_alpha                 90.0000
_cell_angle_beta                  97.6260
_cell_angle_gamma                 90.0000
loop_
_atom_site_label
_atom_site_type_symbol
_atom_site_fract_x
_atom_site_fract_y
_atom_site_fract_z
_atom_site_U_iso_or_equiv
_atom_site_adp_type
_atom_site_occupancy
Cu1    Cu    0.64313   0.65820   0.18152   0.00000  Uiso   1.00
Cu2    Cu    0.47123   0.73370   0.24020   0.00000  Uiso   1.00
Cu3    Cu    0.29773   0.68768   0.79422   0.00000  Uiso   1.00
S4     S     0.73677   0.52119   0.21812   0.00000  Uiso   1.00
O5     O     0.65470   0.49990   0.19350   0.00000  Uiso   1.00
O6     O     0.76510   0.48520   0.25990   0.00000  Uiso   1.00
O7     O     0.80140   0.52280   0.17980   0.00000  Uiso   1.00
O8     O     0.72510   0.57444   0.23710   0.00000  Uiso   1.00
S9     S     0.39580   0.64720   0.04980   0.00000  Uiso   1.00
O10    O     0.41360   0.62700   0.10440   0.00000  Uiso   1.00
O11    O     0.47890   0.64580   0.02700   0.00000  Uiso   1.00
O12    O     0.33280   0.61430   0.01850   0.00000  Uiso   1.00
O13    O     0.36180   0.69850   0.05350   0.00000  Uiso   1.00
S14    S     0.56181   0.84512   0.41075   0.00000  Uiso   1.00
O15    O     0.56750   0.85240   0.35370   0.00000  Uiso   1.00
O16    O     0.47410   0.86110   0.41960   0.00000  Uiso   1.00
O17    O     0.58260   0.79450   0.41980   0.00000  Uiso   1.00
O18    O     0.62280   0.87990   0.44120   0.00000  Uiso   1.00
S19    S     0.98386   0.84220   0.19342   0.00000  Uiso   1.00
O20    O     0.89200   0.85720   0.19000   0.00000  Uiso   1.00
O21    O     0.99980   0.79437   0.21990   0.00000  Uiso   1.00
O22    O     0.03830   0.88310   0.22270   0.00000  Uiso   1.00
O23    O     0.01560   0.83300   0.13960   0.00000  Uiso   1.00
N24    N     0.56360   0.72521   0.14120   0.00000  Uiso   1.00
N25    N     0.49640   0.74703   0.16401   0.00000  Uiso   1.00
N26    N     0.50380   0.78610   0.08942   0.00000  Uiso   1.00
N27    N     0.44590   0.77649   0.81579   0.00000  Uiso   1.00
N28    N     0.38150   0.74981   0.83671   0.00000  Uiso   1.00
N29    N     0.44250   0.80369   0.89655   0.00000  Uiso   1.00
N30    N     0.68040   0.70080   0.24611   0.00000  Uiso   1.00
N31    N     0.61830   0.72746   0.27022   0.00000  Uiso   1.00
N32    N     0.74920   0.74817   0.30882   0.00000  Uiso   1.00
N33    N     0.17790   0.73638   0.33343   0.00000  Uiso   1.00
N34    N     0.19010   0.78809   0.32228   0.00000  Uiso   1.00
N35    N     0.06400   0.78152   0.35146   0.00000  Uiso   1.00
N36    N     0.32820   0.73842   0.20783   0.00000  Uiso   1.00
N37    N     0.26390   0.76468   0.22961   0.00000  Uiso   1.00
N38    N     0.19990   0.70835   0.17416   0.00000  Uiso   1.00
N39    N     0.77600   0.72192   0.14090   0.00000  Uiso   1.00
N40    N     0.75550   0.67289   0.15643   0.00000  Uiso   1.00
N41    N     0.88810   0.67007   0.13583   0.00000  Uiso   1.00
N42    N     0.52820   0.30984   0.24914   0.00000  Uiso   1.00
N43    N     0.59180   0.34035   0.23143   0.00000  Uiso   1.00
N44    N     0.48630   0.38931   0.25149   0.00000  Uiso   1.00
N45    N     0.47370   0.65771   0.23113   0.00000  Uiso   1.00
N46    N     0.53960   0.63042   0.21169   0.00000  Uiso   1.00
N47    N     0.45050   0.57582   0.24044   0.00000  Uiso   1.00
C48    C     0.56730   0.74914   0.09670   0.00000  Uiso   1.00
H49    H     0.60810   0.74190   0.07280   0.00000  Uiso   1.00
C50    C     0.46200   0.78290   0.13230   0.00000  Uiso   1.00
H51    H     0.41390   0.80400   0.13860   0.00000  Uiso   1.00
C52    C     0.48160   0.80814   0.85280   0.00000  Uiso   1.00
H53    H     0.52860   0.83100   0.84900   0.00000  Uiso   1.00
C54    C     0.38040   0.76647   0.88500   0.00000  Uiso   1.00
H55    H     0.34200   0.75440   0.90860   0.00000  Uiso   1.00
C56    C     0.49020   0.82408   0.04460   0.00000  Uiso   1.00
C57    C     0.47290   0.79381   0.99300   0.00000  Uiso   1.00
H58    H     0.41950   0.77240   0.99280   0.00000  Uiso   1.00
H59    H     0.52300   0.77080   0.98930   0.00000  Uiso   1.00
C60    C     0.46030   0.83262   0.94700   0.00000  Uiso   1.00
C61    C     0.37940   0.86710   0.95280   0.00000  Uiso   1.00
H62    H     0.36880   0.89140   0.92270   0.00000  Uiso   1.00
H63    H     0.32640   0.84560   0.95320   0.00000  Uiso   1.00
C64    C     0.39900   0.89660   0.00470   0.00000  Uiso   1.00
H65    H     0.34820   0.91950   0.00880   0.00000  Uiso   1.00
C66    C     0.41160   0.85810   0.05180   0.00000  Uiso   1.00
H67    H     0.42260   0.87690   0.08590   0.00000  Uiso   1.00
H68    H     0.35830   0.83680   0.05200   0.00000  Uiso   1.00
C69    C     0.57280   0.85670   0.04510   0.00000  Uiso   1.00
H70    H     0.62360   0.83430   0.04130   0.00000  Uiso   1.00
H71    H     0.58500   0.87540   0.07920   0.00000  Uiso   1.00
C72    C     0.55890   0.89510   0.99920   0.00000  Uiso   1.00
H73    H     0.61280   0.91670   0.99940   0.00000  Uiso   1.00
C74    C     0.54210   0.86520   0.94710   0.00000  Uiso   1.00
H75    H     0.53430   0.88940   0.91690   0.00000  Uiso   1.00
H76    H     0.59300   0.84280   0.94330   0.00000  Uiso   1.00
C77    C     0.48110   0.92940   0.00520   0.00000  Uiso   1.00
H78    H     0.47260   0.95460   0.97580   0.00000  Uiso   1.00
H79    H     0.49220   0.94870   0.03900   0.00000  Uiso   1.00
C80    C     0.75850   0.71410   0.26990   0.00000  Uiso   1.00
H81    H     0.81280   0.70170   0.26100   0.00000  Uiso   1.00
C82    C     0.66100   0.75480   0.30740   0.00000  Uiso   1.00
H83    H     0.63450   0.77660   0.33060   0.00000  Uiso   1.00
C84    C     0.10160   0.73440   0.35070   0.00000  Uiso   1.00
H85    H     0.07570   0.70370   0.36150   0.00000  Uiso   1.00
C86    C     0.12150   0.81375   0.33290   0.00000  Uiso   1.00
H87    H     0.11340   0.84980   0.32830   0.00000  Uiso   1.00
C88    C     0.81720   0.77580   0.34450   0.00000  Uiso   1.00
C89    C     0.90770   0.76354   0.32900   0.00000  Uiso   1.00
H90    H     0.91020   0.77380   0.29170   0.00000  Uiso   1.00
H91    H     0.91940   0.72620   0.33240   0.00000  Uiso   1.00
C92    C     0.97580   0.79355   0.36620   0.00000  Uiso   1.00
C93    C     0.95930   0.85150   0.36010   0.00000  Uiso   1.00
H94    H     0.00450   0.87080   0.38370   0.00000  Uiso   1.00
H95    H     0.96240   0.86220   0.32310   0.00000  Uiso   1.00
C96    C     0.86810   0.86300   0.37510   0.00000  Uiso   1.00
H97    H     0.85640   0.90080   0.37120   0.00000  Uiso   1.00
C98    C     0.79990   0.83406   0.33800   0.00000  Uiso   1.00
H99    H     0.80310   0.84450   0.30090   0.00000  Uiso   1.00
H100   H     0.74040   0.84230   0.34650   0.00000  Uiso   1.00
C101   C     0.81270   0.75990   0.40170   0.00000  Uiso   1.00
H102   H     0.75360   0.76720   0.41120   0.00000  Uiso   1.00
H103   H     0.82380   0.72250   0.40590   0.00000  Uiso   1.00
C104   C     0.88140   0.78980   0.43810   0.00000  Uiso   1.00
H105   H     0.87870   0.77910   0.47560   0.00000  Uiso   1.00
C106   C     0.97260   0.77740   0.42370   0.00000  Uiso   1.00
H107   H     0.01780   0.79630   0.44750   0.00000  Uiso   1.00
H108   H     0.98440   0.74010   0.42780   0.00000  Uiso   1.00
C109   C     0.86390   0.84740   0.43280   0.00000  Uiso   1.00
H110   H     0.90850   0.86660   0.45680   0.00000  Uiso   1.00
H111   H     0.80530   0.85550   0.44270   0.00000  Uiso   1.00
C112   C     0.28790   0.70470   0.17460   0.00000  Uiso   1.00
H113   H     0.31630   0.68110   0.15390   0.00000  Uiso   1.00
C114   C     0.18790   0.74630   0.20880   0.00000  Uiso   1.00
H115   H     0.13260   0.75790   0.21690   0.00000  Uiso   1.00
C116   C     0.85580   0.71880   0.12880   0.00000  Uiso   1.00
H117   H     0.88720   0.74690   0.11670   0.00000  Uiso   1.00
C118   C     0.82360   0.64220   0.15290   0.00000  Uiso   1.00
H119   H     0.82620   0.60650   0.16100   0.00000  Uiso   1.00
C120   C     0.13470   0.67250   0.14530   0.00000  Uiso   1.00
C121   C     0.14210   0.67460   0.08620   0.00000  Uiso   1.00
H122   H     0.20190   0.66460   0.08000   0.00000  Uiso   1.00
H123   H     0.13070   0.71000   0.07280   0.00000  Uiso   1.00
C124   C     0.07440   0.63740   0.05710   0.00000  Uiso   1.00
H125   H     0.07860   0.63830   0.01830   0.00000  Uiso   1.00
C126   C     0.98270   0.65410   0.06670   0.00000  Uiso   1.00
H127   H     0.93840   0.63080   0.04750   0.00000  Uiso   1.00
H128   H     0.97090   0.68950   0.05320   0.00000  Uiso   1.00
C129   C     0.97600   0.65230   0.12630   0.00000  Uiso   1.00
C130   C     0.04310   0.68937   0.15570   0.00000  Uiso   1.00
H131   H     0.03130   0.72500   0.14280   0.00000  Uiso   1.00
H132   H     0.03920   0.68850   0.19420   0.00000  Uiso   1.00
C133   C     0.15350   0.61850   0.16650   0.00000  Uiso   1.00
H134   H     0.15010   0.61770   0.20510   0.00000  Uiso   1.00
H135   H     0.21320   0.60790   0.16070   0.00000  Uiso   1.00
C136   C     0.08540   0.58160   0.13760   0.00000  Uiso   1.00
H137   H     0.09760   0.54590   0.15130   0.00000  Uiso   1.00
C138   C     0.99370   0.59745   0.14730   0.00000  Uiso   1.00
H139   H     0.98900   0.59620   0.18570   0.00000  Uiso   1.00
H140   H     0.94980   0.57350   0.12880   0.00000  Uiso   1.00
C141   C     0.09240   0.58290   0.07800   0.00000  Uiso   1.00
H142   H     0.15190   0.57200   0.07180   0.00000  Uiso   1.00
H143   H     0.04930   0.55880   0.05910   0.00000  Uiso   1.00
C144   C     0.46530   0.34026   0.26070   0.00000  Uiso   1.00
H145   H     0.41320   0.32930   0.27360   0.00000  Uiso   1.00
C146   C     0.56500   0.38789   0.23330   0.00000  Uiso   1.00
H147   H     0.59610   0.41710   0.22340   0.00000  Uiso   1.00
C148   C     0.42020   0.62395   0.24790   0.00000  Uiso   1.00
H149   H     0.36850   0.63200   0.26300   0.00000  Uiso   1.00
C150   C     0.52370   0.58173   0.21760   0.00000  Uiso   1.00
H151   H     0.55880   0.55440   0.20730   0.00000  Uiso   1.00
C152   C     0.42920   0.43333   0.26280   0.00000  Uiso   1.00
C153   C     0.41050   0.52747   0.25720   0.00000  Uiso   1.00
C154   C     0.47000   0.48287   0.24510   0.00000  Uiso   1.00
H155   H     0.47440   0.48150   0.20660   0.00000  Uiso   1.00
H156   H     0.52970   0.48750   0.26450   0.00000  Uiso   1.00
C157   C     0.31890   0.52121   0.22620   0.00000  Uiso   1.00
H158   H     0.32260   0.52080   0.18770   0.00000  Uiso   1.00
H159   H     0.28110   0.55040   0.23390   0.00000  Uiso   1.00
C160   C     0.27980   0.47063   0.24280   0.00000  Uiso   1.00
H161   H     0.22000   0.46590   0.22250   0.00000  Uiso   1.00
C162   C     0.33890   0.42552   0.23120   0.00000  Uiso   1.00
H163   H     0.31330   0.39260   0.24150   0.00000  Uiso   1.00
H164   H     0.34380   0.42420   0.19280   0.00000  Uiso   1.00
C165   C     0.42300   0.43468   0.32140   0.00000  Uiso   1.00
H166   H     0.48230   0.43870   0.34150   0.00000  Uiso   1.00
H167   H     0.39770   0.40200   0.33240   0.00000  Uiso   1.00
C168   C     0.36480   0.47985   0.33340   0.00000  Uiso   1.00
H169   H     0.36050   0.48100   0.37220   0.00000  Uiso   1.00
C170   C     0.40410   0.53023   0.31620   0.00000  Uiso   1.00
H171   H     0.36650   0.55960   0.32370   0.00000  Uiso   1.00
H172   H     0.46320   0.53550   0.33630   0.00000  Uiso   1.00
C173   C     0.27260   0.47220   0.30210   0.00000  Uiso   1.00
H174   H     0.24690   0.43960   0.31300   0.00000  Uiso   1.00
H175   H     0.23360   0.50080   0.30970   0.00000  Uiso   1.00
O176   O     0.60830   0.61196   0.12002   0.00000  Uiso   1.00
H177   H     0.63810   0.61880   0.09470   0.00000  Uiso   1.00
H178   H     0.55410   0.61600   0.10810   0.00000  Uiso   1.00
O179   O     0.32380   0.63789   0.85358   0.00000  Uiso   1.00
H180   H     0.37210   0.64520   0.87310   0.00000  Uiso   1.00
H181   H     0.28300   0.63760   0.87360   0.00000  Uiso   1.00
Cu218  Cu    0.35687   0.15820   0.31848   0.00000  Uiso   1.00
Cu219  Cu    0.52877   0.23370   0.25980   0.00000  Uiso   1.00
Cu220  Cu    0.70227   0.18768   0.70578   0.00000  Uiso   1.00
S221   S     0.26323   0.02119   0.28188   0.00000  Uiso   1.00
O222   O     0.34530   0.99990   0.30650   0.00000  Uiso   1.00
O223   O     0.23490   0.98520   0.24010   0.00000  Uiso   1.00
O224   O     0.19860   0.02280   0.32020   0.00000  Uiso   1.00
O225   O     0.27490   0.07444   0.26290   0.00000  Uiso   1.00
S226   S     0.60420   0.14720   0.45020   0.00000  Uiso   1.00
O227   O     0.58640   0.12700   0.39560   0.00000  Uiso   1.00
O228   O     0.52110   0.14580   0.47300   0.00000  Uiso   1.00
O229   O     0.66720   0.11430   0.48150   0.00000  Uiso   1.00
O230   O     0.63820   0.19850   0.44650   0.00000  Uiso   1.00
S231   S     0.43819   0.34512   0.08925   0.00000  Uiso   1.00
O232   O     0.43250   0.35240   0.14630   0.00000  Uiso   1.00
O233   O     0.52590   0.36110   0.08040   0.00000  Uiso   1.00
O234   O     0.41740   0.29450   0.08020   0.00000  Uiso   1.00
O235   O     0.37720   0.37990   0.05880   0.00000  Uiso   1.00
S236   S     0.01614   0.34220   0.30658   0.00000  Uiso   1.00
O237   O     0.10800   0.35720   0.31000   0.00000  Uiso   1.00
O238   O     0.00020   0.29437   0.28010   0.00000  Uiso   1.00
O239   O     0.96170   0.38310   0.27730   0.00000  Uiso   1.00
O240   O     0.98440   0.33300   0.36040   0.00000  Uiso   1.00
N241   N     0.43640   0.22521   0.35880   0.00000  Uiso   1.00
N242   N     0.50360   0.24703   0.33599   0.00000  Uiso   1.00
N243   N     0.49620   0.28610   0.41058   0.00000  Uiso   1.00
N244   N     0.55410   0.27649   0.68421   0.00000  Uiso   1.00
N245   N     0.61850   0.24981   0.66329   0.00000  Uiso   1.00
N246   N     0.55750   0.30369   0.60345   0.00000  Uiso   1.00
N247   N     0.31960   0.20080   0.25389   0.00000  Uiso   1.00
N248   N     0.38170   0.22746   0.22978   0.00000  Uiso   1.00
N249   N     0.25080   0.24817   0.19118   0.00000  Uiso   1.00
N250   N     0.82210   0.23638   0.16657   0.00000  Uiso   1.00
N251   N     0.80990   0.28809   0.17772   0.00000  Uiso   1.00
N252   N     0.93600   0.28152   0.14854   0.00000  Uiso   1.00
N253   N     0.67180   0.23842   0.29217   0.00000  Uiso   1.00
N254   N     0.73610   0.26468   0.27039   0.00000  Uiso   1.00
N255   N     0.80010   0.20835   0.32584   0.00000  Uiso   1.00
N256   N     0.22400   0.22192   0.35910   0.00000  Uiso   1.00
N257   N     0.24450   0.17289   0.34357   0.00000  Uiso   1.00
N258   N     0.11190   0.17007   0.36417   0.00000  Uiso   1.00
N259   N     0.47180   0.80984   0.25086   0.00000  Uiso   1.00
N260   N     0.40820   0.84035   0.26857   0.00000  Uiso   1.00
N261   N     0.51370   0.88931   0.24851   0.00000  Uiso   1.00
N262   N     0.52630   0.15771   0.26887   0.00000  Uiso   1.00
N263   N     0.46040   0.13042   0.28831   0.00000  Uiso   1.00
N264   N     0.54950   0.07582   0.25956   0.00000  Uiso   1.00
C265   C     0.43270   0.24914   0.40330   0.00000  Uiso   1.00
H266   H     0.39190   0.24190   0.42720   0.00000  Uiso   1.00
C267   C     0.53800   0.28290   0.36770   0.00000  Uiso   1.00
H268   H     0.58610   0.30400   0.36140   0.00000  Uiso   1.00
C269   C     0.51840   0.30814   0.64720   0.00000  Uiso   1.00
H270   H     0.47140   0.33100   0.65100   0.00000  Uiso   1.00
C271   C     0.61960   0.26647   0.61500   0.00000  Uiso   1.00
H272   H     0.65800   0.25440   0.59140   0.00000  Uiso   1.00
C273   C     0.50980   0.32408   0.45540   0.00000  Uiso   1.00
C274   C     0.52710   0.29381   0.50700   0.00000  Uiso   1.00
H275   H     0.58050   0.27240   0.50720   0.00000  Uiso   1.00
H276   H     0.47700   0.27080   0.51070   0.00000  Uiso   1.00
C277   C     0.53970   0.33262   0.55300   0.00000  Uiso   1.00
C278   C     0.62060   0.36710   0.54720   0.00000  Uiso   1.00
H279   H     0.63120   0.39140   0.57730   0.00000  Uiso   1.00
H280   H     0.67360   0.34560   0.54680   0.00000  Uiso   1.00
C281   C     0.60100   0.39660   0.49530   0.00000  Uiso   1.00
H282   H     0.65180   0.41950   0.49120   0.00000  Uiso   1.00
C283   C     0.58840   0.35810   0.44820   0.00000  Uiso   1.00
H284   H     0.57740   0.37690   0.41410   0.00000  Uiso   1.00
H285   H     0.64170   0.33680   0.44800   0.00000  Uiso   1.00
C286   C     0.42720   0.35670   0.45490   0.00000  Uiso   1.00
H287   H     0.37640   0.33430   0.45870   0.00000  Uiso   1.00
H288   H     0.41500   0.37540   0.42080   0.00000  Uiso   1.00
C289   C     0.44110   0.39510   0.50080   0.00000  Uiso   1.00
H290   H     0.38720   0.41670   0.50060   0.00000  Uiso   1.00
C291   C     0.45790   0.36520   0.55290   0.00000  Uiso   1.00
H292   H     0.46570   0.38940   0.58310   0.00000  Uiso   1.00
H293   H     0.40700   0.34280   0.55670   0.00000  Uiso   1.00
C294   C     0.51890   0.42940   0.49480   0.00000  Uiso   1.00
H295   H     0.52740   0.45460   0.52420   0.00000  Uiso   1.00
H296   H     0.50780   0.44870   0.46100   0.00000  Uiso   1.00
C297   C     0.24150   0.21410   0.23010   0.00000  Uiso   1.00
H298   H     0.18720   0.20170   0.23900   0.00000  Uiso   1.00
C299   C     0.33900   0.25480   0.19260   0.00000  Uiso   1.00
H300   H     0.36550   0.27660   0.16940   0.00000  Uiso   1.00
C301   C     0.89840   0.23440   0.14930   0.00000  Uiso   1.00
H302   H     0.92430   0.20370   0.13850   0.00000  Uiso   1.00
C303   C     0.87850   0.31375   0.16710   0.00000  Uiso   1.00
H304   H     0.88660   0.34980   0.17170   0.00000  Uiso   1.00
C305   C     0.18280   0.27580   0.15550   0.00000  Uiso   1.00
C306   C     0.09230   0.26354   0.17100   0.00000  Uiso   1.00
H307   H     0.08980   0.27380   0.20830   0.00000  Uiso   1.00
H308   H     0.08060   0.22620   0.16760   0.00000  Uiso   1.00
C309   C     0.02420   0.29355   0.13380   0.00000  Uiso   1.00
C310   C     0.04070   0.35150   0.13990   0.00000  Uiso   1.00
H311   H     0.99550   0.37080   0.11630   0.00000  Uiso   1.00
H312   H     0.03760   0.36220   0.17690   0.00000  Uiso   1.00
C313   C     0.13190   0.36300   0.12490   0.00000  Uiso   1.00
H314   H     0.14360   0.40080   0.12880   0.00000  Uiso   1.00
C315   C     0.20010   0.33406   0.16200   0.00000  Uiso   1.00
H316   H     0.19690   0.34450   0.19910   0.00000  Uiso   1.00
H317   H     0.25960   0.34230   0.15350   0.00000  Uiso   1.00
C318   C     0.18730   0.25990   0.09830   0.00000  Uiso   1.00
H319   H     0.24640   0.26720   0.08880   0.00000  Uiso   1.00
H320   H     0.17620   0.22250   0.09410   0.00000  Uiso   1.00
C321   C     0.11860   0.28980   0.06190   0.00000  Uiso   1.00
H322   H     0.12130   0.27910   0.02440   0.00000  Uiso   1.00
C323   C     0.02740   0.27740   0.07630   0.00000  Uiso   1.00
H324   H     0.98220   0.29630   0.05250   0.00000  Uiso   1.00
H325   H     0.01560   0.24010   0.07220   0.00000  Uiso   1.00
C326   C     0.13610   0.34740   0.06720   0.00000  Uiso   1.00
H327   H     0.09150   0.36660   0.04320   0.00000  Uiso   1.00
H328   H     0.19470   0.35550   0.05730   0.00000  Uiso   1.00
C329   C     0.71210   0.20470   0.32540   0.00000  Uiso   1.00
H330   H     0.68370   0.18110   0.34610   0.00000  Uiso   1.00
C331   C     0.81210   0.24630   0.29120   0.00000  Uiso   1.00
H332   H     0.86740   0.25790   0.28310   0.00000  Uiso   1.00
C333   C     0.14420   0.21880   0.37120   0.00000  Uiso   1.00
H334   H     0.11280   0.24690   0.38330   0.00000  Uiso   1.00
C335   C     0.17640   0.14220   0.34710   0.00000  Uiso   1.00
H336   H     0.17380   0.10650   0.33900   0.00000  Uiso   1.00
C337   C     0.86530   0.17250   0.35470   0.00000  Uiso   1.00
C338   C     0.85790   0.17460   0.41380   0.00000  Uiso   1.00
H339   H     0.79810   0.16460   0.42000   0.00000  Uiso   1.00
H340   H     0.86930   0.21000   0.42720   0.00000  Uiso   1.00
C341   C     0.92560   0.13740   0.44290   0.00000  Uiso   1.00
H342   H     0.92140   0.13830   0.48170   0.00000  Uiso   1.00
C343   C     0.01730   0.15410   0.43330   0.00000  Uiso   1.00
H344   H     0.06160   0.13080   0.45250   0.00000  Uiso   1.00
H345   H     0.02910   0.18950   0.44680   0.00000  Uiso   1.00
C346   C     0.02400   0.15230   0.37370   0.00000  Uiso   1.00
C347   C     0.95690   0.18937   0.34430   0.00000  Uiso   1.00
H348   H     0.96870   0.22500   0.35720   0.00000  Uiso   1.00
H349   H     0.96080   0.18850   0.30580   0.00000  Uiso   1.00
C350   C     0.84650   0.11850   0.33350   0.00000  Uiso   1.00
H351   H     0.84990   0.11770   0.29490   0.00000  Uiso   1.00
H352   H     0.78680   0.10790   0.33930   0.00000  Uiso   1.00
C353   C     0.91460   0.08160   0.36240   0.00000  Uiso   1.00
H354   H     0.90240   0.04590   0.34870   0.00000  Uiso   1.00
C355   C     0.00630   0.09745   0.35270   0.00000  Uiso   1.00
H356   H     0.01100   0.09620   0.31430   0.00000  Uiso   1.00
H357   H     0.05020   0.07350   0.37120   0.00000  Uiso   1.00
C358   C     0.90760   0.08290   0.42200   0.00000  Uiso   1.00
H359   H     0.84810   0.07200   0.42820   0.00000  Uiso   1.00
H360   H     0.95070   0.05880   0.44090   0.00000  Uiso   1.00
C361   C     0.53470   0.84026   0.23930   0.00000  Uiso   1.00
H362   H     0.58680   0.82930   0.22640   0.00000  Uiso   1.00
C363   C     0.43500   0.88789   0.26670   0.00000  Uiso   1.00
H364   H     0.40390   0.91710   0.27660   0.00000  Uiso   1.00
C365   C     0.57980   0.12395   0.25210   0.00000  Uiso   1.00
H366   H     0.63150   0.13200   0.23700   0.00000  Uiso   1.00
C367   C     0.47630   0.08173   0.28240   0.00000  Uiso   1.00
H368   H     0.44120   0.05440   0.29270   0.00000  Uiso   1.00
C369   C     0.57080   0.93333   0.23720   0.00000  Uiso   1.00
C370   C     0.58950   0.02747   0.24280   0.00000  Uiso   1.00
C371   C     0.53000   0.98287   0.25490   0.00000  Uiso   1.00
H372   H     0.52560   0.98150   0.29340   0.00000  Uiso   1.00
H373   H     0.47030   0.98750   0.23550   0.00000  Uiso   1.00
C374   C     0.68110   0.02121   0.27380   0.00000  Uiso   1.00
H375   H     0.67740   0.02080   0.31230   0.00000  Uiso   1.00
H376   H     0.71890   0.05040   0.26610   0.00000  Uiso   1.00
C377   C     0.72020   0.97063   0.25720   0.00000  Uiso   1.00
H378   H     0.78000   0.96590   0.27750   0.00000  Uiso   1.00
C379   C     0.66110   0.92552   0.26880   0.00000  Uiso   1.00
H380   H     0.68670   0.89260   0.25850   0.00000  Uiso   1.00
H381   H     0.65620   0.92420   0.30720   0.00000  Uiso   1.00
C382   C     0.57700   0.93468   0.17860   0.00000  Uiso   1.00
H383   H     0.51770   0.93870   0.15850   0.00000  Uiso   1.00
H384   H     0.60230   0.90200   0.16760   0.00000  Uiso   1.00
C385   C     0.63520   0.97985   0.16660   0.00000  Uiso   1.00
H386   H     0.63950   0.98100   0.12780   0.00000  Uiso   1.00
C387   C     0.59590   0.03023   0.18380   0.00000  Uiso   1.00
H388   H     0.63350   0.05960   0.17630   0.00000  Uiso   1.00
H389   H     0.53680   0.03550   0.16370   0.00000  Uiso   1.00
C390   C     0.72740   0.97220   0.19790   0.00000  Uiso   1.00
H391   H     0.75310   0.93960   0.18700   0.00000  Uiso   1.00
H392   H     0.76640   0.00080   0.19030   0.00000  Uiso   1.00
O393   O     0.39170   0.11196   0.37998   0.00000  Uiso   1.00
H394   H     0.36190   0.11880   0.40530   0.00000  Uiso   1.00
H395   H     0.44590   0.11600   0.39190   0.00000  Uiso   1.00
O396   O     0.67620   0.13789   0.64642   0.00000  Uiso   1.00
H397   H     0.62790   0.14520   0.62690   0.00000  Uiso   1.00
H398   H     0.71700   0.13760   0.62640   0.00000  Uiso   1.00
Cu435  Cu    0.35687   0.34180   0.81848   0.00000  Uiso   1.00
Cu436  Cu    0.52877   0.26630   0.75980   0.00000  Uiso   1.00
Cu437  Cu    0.70227   0.31232   0.20578   0.00000  Uiso   1.00
S438   S     0.26323   0.47881   0.78188   0.00000  Uiso   1.00
O439   O     0.34530   0.50010   0.80650   0.00000  Uiso   1.00
O440   O     0.23490   0.51480   0.74010   0.00000  Uiso   1.00
O441   O     0.19860   0.47720   0.82020   0.00000  Uiso   1.00
O442   O     0.27490   0.42556   0.76290   0.00000  Uiso   1.00
S443   S     0.60420   0.35280   0.95020   0.00000  Uiso   1.00
O444   O     0.58640   0.37300   0.89560   0.00000  Uiso   1.00
O445   O     0.52110   0.35420   0.97300   0.00000  Uiso   1.00
O446   O     0.66720   0.38570   0.98150   0.00000  Uiso   1.00
O447   O     0.63820   0.30150   0.94650   0.00000  Uiso   1.00
S448   S     0.43819   0.15488   0.58925   0.00000  Uiso   1.00
O449   O     0.43250   0.14760   0.64630   0.00000  Uiso   1.00
O450   O     0.52590   0.13890   0.58040   0.00000  Uiso   1.00
O451   O     0.41740   0.20550   0.58020   0.00000  Uiso   1.00
O452   O     0.37720   0.12010   0.55880   0.00000  Uiso   1.00
S453   S     0.01614   0.15780   0.80658   0.00000  Uiso   1.00
O454   O     0.10800   0.14280   0.81000   0.00000  Uiso   1.00
O455   O     0.00020   0.20563   0.78010   0.00000  Uiso   1.00
O456   O     0.96170   0.11690   0.77730   0.00000  Uiso   1.00
O457   O     0.98440   0.16700   0.86040   0.00000  Uiso   1.00
N458   N     0.43640   0.27479   0.85880   0.00000  Uiso   1.00
N459   N     0.50360   0.25297   0.83599   0.00000  Uiso   1.00
N460   N     0.49620   0.21390   0.91058   0.00000  Uiso   1.00
N461   N     0.55410   0.22351   0.18421   0.00000  Uiso   1.00
N462   N     0.61850   0.25019   0.16329   0.00000  Uiso   1.00
N463   N     0.55750   0.19631   0.10345   0.00000  Uiso   1.00
N464   N     0.31960   0.29920   0.75389   0.00000  Uiso   1.00
N465   N     0.38170   0.27254   0.72978   0.00000  Uiso   1.00
N466   N     0.25080   0.25183   0.69118   0.00000  Uiso   1.00
N467   N     0.82210   0.26362   0.66657   0.00000  Uiso   1.00
N468   N     0.80990   0.21191   0.67772   0.00000  Uiso   1.00
N469   N     0.93600   0.21848   0.64854   0.00000  Uiso   1.00
N470   N     0.67180   0.26158   0.79217   0.00000  Uiso   1.00
N471   N     0.73610   0.23532   0.77039   0.00000  Uiso   1.00
N472   N     0.80010   0.29165   0.82584   0.00000  Uiso   1.00
N473   N     0.22400   0.27808   0.85910   0.00000  Uiso   1.00
N474   N     0.24450   0.32711   0.84357   0.00000  Uiso   1.00
N475   N     0.11190   0.32993   0.86417   0.00000  Uiso   1.00
N476   N     0.47180   0.69016   0.75086   0.00000  Uiso   1.00
N477   N     0.40820   0.65965   0.76857   0.00000  Uiso   1.00
N478   N     0.51370   0.61069   0.74851   0.00000  Uiso   1.00
N479   N     0.52630   0.34229   0.76887   0.00000  Uiso   1.00
N480   N     0.46040   0.36958   0.78831   0.00000  Uiso   1.00
N481   N     0.54950   0.42418   0.75956   0.00000  Uiso   1.00
C482   C     0.43270   0.25086   0.90330   0.00000  Uiso   1.00
H483   H     0.39190   0.25810   0.92720   0.00000  Uiso   1.00
C484   C     0.53800   0.21710   0.86770   0.00000  Uiso   1.00
H485   H     0.58610   0.19600   0.86140   0.00000  Uiso   1.00
C486   C     0.51840   0.19186   0.14720   0.00000  Uiso   1.00
H487   H     0.47140   0.16900   0.15100   0.00000  Uiso   1.00
C488   C     0.61960   0.23353   0.11500   0.00000  Uiso   1.00
H489   H     0.65800   0.24560   0.09140   0.00000  Uiso   1.00
C490   C     0.50980   0.17592   0.95540   0.00000  Uiso   1.00
C491   C     0.52710   0.20619   0.00700   0.00000  Uiso   1.00
H492   H     0.58050   0.22760   0.00720   0.00000  Uiso   1.00
H493   H     0.47700   0.22920   0.01070   0.00000  Uiso   1.00
C494   C     0.53970   0.16738   0.05300   0.00000  Uiso   1.00
C495   C     0.62060   0.13290   0.04720   0.00000  Uiso   1.00
H496   H     0.63120   0.10860   0.07730   0.00000  Uiso   1.00
H497   H     0.67360   0.15440   0.04680   0.00000  Uiso   1.00
C498   C     0.60100   0.10340   0.99530   0.00000  Uiso   1.00
H499   H     0.65180   0.08050   0.99120   0.00000  Uiso   1.00
C500   C     0.58840   0.14190   0.94820   0.00000  Uiso   1.00
H501   H     0.57740   0.12310   0.91410   0.00000  Uiso   1.00
H502   H     0.64170   0.16320   0.94800   0.00000  Uiso   1.00
C503   C     0.42720   0.14330   0.95490   0.00000  Uiso   1.00
H504   H     0.37640   0.16570   0.95870   0.00000  Uiso   1.00
H505   H     0.41500   0.12460   0.92080   0.00000  Uiso   1.00
C506   C     0.44110   0.10490   0.00080   0.00000  Uiso   1.00
H507   H     0.38720   0.08330   0.00060   0.00000  Uiso   1.00
C508   C     0.45790   0.13480   0.05290   0.00000  Uiso   1.00
H509   H     0.46570   0.11060   0.08310   0.00000  Uiso   1.00
H510   H     0.40700   0.15720   0.05670   0.00000  Uiso   1.00
C511   C     0.51890   0.07060   0.99480   0.00000  Uiso   1.00
H512   H     0.52740   0.04540   0.02420   0.00000  Uiso   1.00
H513   H     0.50780   0.05130   0.96100   0.00000  Uiso   1.00
C514   C     0.24150   0.28590   0.73010   0.00000  Uiso   1.00
H515   H     0.18720   0.29830   0.73900   0.00000  Uiso   1.00
C516   C     0.33900   0.24520   0.69260   0.00000  Uiso   1.00
H517   H     0.36550   0.22340   0.66940   0.00000  Uiso   1.00
C518   C     0.89840   0.26560   0.64930   0.00000  Uiso   1.00
H519   H     0.92430   0.29630   0.63850   0.00000  Uiso   1.00
C520   C     0.87850   0.18625   0.66710   0.00000  Uiso   1.00
H521   H     0.88660   0.15020   0.67170   0.00000  Uiso   1.00
C522   C     0.18280   0.22420   0.65550   0.00000  Uiso   1.00
C523   C     0.09230   0.23646   0.67100   0.00000  Uiso   1.00
H524   H     0.08980   0.22620   0.70830   0.00000  Uiso   1.00
H525   H     0.08060   0.27380   0.66760   0.00000  Uiso   1.00
C526   C     0.02420   0.20645   0.63380   0.00000  Uiso   1.00
C527   C     0.04070   0.14850   0.63990   0.00000  Uiso   1.00
H528   H     0.99550   0.12920   0.61630   0.00000  Uiso   1.00
H529   H     0.03760   0.13780   0.67690   0.00000  Uiso   1.00
C530   C     0.13190   0.13700   0.62490   0.00000  Uiso   1.00
H531   H     0.14360   0.09920   0.62880   0.00000  Uiso   1.00
C532   C     0.20010   0.16594   0.66200   0.00000  Uiso   1.00
H533   H     0.19690   0.15550   0.69910   0.00000  Uiso   1.00
H534   H     0.25960   0.15770   0.65350   0.00000  Uiso   1.00
C535   C     0.18730   0.24010   0.59830   0.00000  Uiso   1.00
H536   H     0.24640   0.23280   0.58880   0.00000  Uiso   1.00
H537   H     0.17620   0.27750   0.59410   0.00000  Uiso   1.00
C538   C     0.11860   0.21020   0.56190   0.00000  Uiso   1.00
H539   H     0.12130   0.22090   0.52440   0.00000  Uiso   1.00
C540   C     0.02740   0.22260   0.57630   0.00000  Uiso   1.00
H541   H     0.98220   0.20370   0.55250   0.00000  Uiso   1.00
H542   H     0.01560   0.25990   0.57220   0.00000  Uiso   1.00
C543   C     0.13610   0.15260   0.56720   0.00000  Uiso   1.00
H544   H     0.09150   0.13340   0.54320   0.00000  Uiso   1.00
H545   H     0.19470   0.14450   0.55730   0.00000  Uiso   1.00
C546   C     0.71210   0.29530   0.82540   0.00000  Uiso   1.00
H547   H     0.68370   0.31890   0.84610   0.00000  Uiso   1.00
C548   C     0.81210   0.25370   0.79120   0.00000  Uiso   1.00
H549   H     0.86740   0.24210   0.78310   0.00000  Uiso   1.00
C550   C     0.14420   0.28120   0.87120   0.00000  Uiso   1.00
H551   H     0.11280   0.25310   0.88330   0.00000  Uiso   1.00
C552   C     0.17640   0.35780   0.84710   0.00000  Uiso   1.00
H553   H     0.17380   0.39350   0.83900   0.00000  Uiso   1.00
C554   C     0.86530   0.32750   0.85470   0.00000  Uiso   1.00
C555   C     0.85790   0.32540   0.91380   0.00000  Uiso   1.00
H556   H     0.79810   0.33540   0.92000   0.00000  Uiso   1.00
H557   H     0.86930   0.29000   0.92720   0.00000  Uiso   1.00
C558   C     0.92560   0.36260   0.94290   0.00000  Uiso   1.00
H559   H     0.92140   0.36170   0.98170   0.00000  Uiso   1.00
C560   C     0.01730   0.34590   0.93330   0.00000  Uiso   1.00
H561   H     0.06160   0.36920   0.95250   0.00000  Uiso   1.00
H562   H     0.02910   0.31050   0.94680   0.00000  Uiso   1.00
C563   C     0.02400   0.34770   0.87370   0.00000  Uiso   1.00
C564   C     0.95690   0.31063   0.84430   0.00000  Uiso   1.00
H565   H     0.96870   0.27500   0.85720   0.00000  Uiso   1.00
H566   H     0.96080   0.31150   0.80580   0.00000  Uiso   1.00
C567   C     0.84650   0.38150   0.83350   0.00000  Uiso   1.00
H568   H     0.84990   0.38230   0.79490   0.00000  Uiso   1.00
H569   H     0.78680   0.39210   0.83930   0.00000  Uiso   1.00
C570   C     0.91460   0.41840   0.86240   0.00000  Uiso   1.00
H571   H     0.90240   0.45410   0.84870   0.00000  Uiso   1.00
C572   C     0.00630   0.40255   0.85270   0.00000  Uiso   1.00
H573   H     0.01100   0.40380   0.81430   0.00000  Uiso   1.00
H574   H     0.05020   0.42650   0.87120   0.00000  Uiso   1.00
C575   C     0.90760   0.41710   0.92200   0.00000  Uiso   1.00
H576   H     0.84810   0.42800   0.92820   0.00000  Uiso   1.00
H577   H     0.95070   0.44120   0.94090   0.00000  Uiso   1.00
C578   C     0.53470   0.65974   0.73930   0.00000  Uiso   1.00
H579   H     0.58680   0.67070   0.72640   0.00000  Uiso   1.00
C580   C     0.43500   0.61211   0.76670   0.00000  Uiso   1.00
H581   H     0.40390   0.58290   0.77660   0.00000  Uiso   1.00
C582   C     0.57980   0.37605   0.75210   0.00000  Uiso   1.00
H583   H     0.63150   0.36800   0.73700   0.00000  Uiso   1.00
C584   C     0.47630   0.41827   0.78240   0.00000  Uiso   1.00
H585   H     0.44120   0.44560   0.79270   0.00000  Uiso   1.00
C586   C     0.57080   0.56667   0.73720   0.00000  Uiso   1.00
C587   C     0.58950   0.47253   0.74280   0.00000  Uiso   1.00
C588   C     0.53000   0.51713   0.75490   0.00000  Uiso   1.00
H589   H     0.52560   0.51850   0.79340   0.00000  Uiso   1.00
H590   H     0.47030   0.51250   0.73550   0.00000  Uiso   1.00
C591   C     0.68110   0.47879   0.77380   0.00000  Uiso   1.00
H592   H     0.67740   0.47920   0.81230   0.00000  Uiso   1.00
H593   H     0.71890   0.44960   0.76610   0.00000  Uiso   1.00
C594   C     0.72020   0.52937   0.75720   0.00000  Uiso   1.00
H595   H     0.78000   0.53410   0.77750   0.00000  Uiso   1.00
C596   C     0.66110   0.57448   0.76880   0.00000  Uiso   1.00
H597   H     0.68670   0.60740   0.75850   0.00000  Uiso   1.00
H598   H     0.65620   0.57580   0.80720   0.00000  Uiso   1.00
C599   C     0.57700   0.56532   0.67860   0.00000  Uiso   1.00
H600   H     0.51770   0.56130   0.65850   0.00000  Uiso   1.00
H601   H     0.60230   0.59800   0.66760   0.00000  Uiso   1.00
C602   C     0.63520   0.52015   0.66660   0.00000  Uiso   1.00
H603   H     0.63950   0.51900   0.62780   0.00000  Uiso   1.00
C604   C     0.59590   0.46977   0.68380   0.00000  Uiso   1.00
H605   H     0.63350   0.44040   0.67630   0.00000  Uiso   1.00
H606   H     0.53680   0.46450   0.66370   0.00000  Uiso   1.00
C607   C     0.72740   0.52780   0.69790   0.00000  Uiso   1.00
H608   H     0.75310   0.56040   0.68700   0.00000  Uiso   1.00
H609   H     0.76640   0.49920   0.69030   0.00000  Uiso   1.00
O610   O     0.39170   0.38804   0.87998   0.00000  Uiso   1.00
H611   H     0.36190   0.38120   0.90530   0.00000  Uiso   1.00
H612   H     0.44590   0.38400   0.89190   0.00000  Uiso   1.00
O613   O     0.67620   0.36211   0.14642   0.00000  Uiso   1.00
H614   H     0.62790   0.35480   0.12690   0.00000  Uiso   1.00
H615   H     0.71700   0.36240   0.12640   0.00000  Uiso   1.00
Cu652  Cu    0.64313   0.84180   0.68152   0.00000  Uiso   1.00
Cu653  Cu    0.47123   0.76630   0.74020   0.00000  Uiso   1.00
Cu654  Cu    0.29773   0.81232   0.29422   0.00000  Uiso   1.00
S655   S     0.73677   0.97881   0.71812   0.00000  Uiso   1.00
O656   O     0.65470   0.00010   0.69350   0.00000  Uiso   1.00
O657   O     0.76510   0.01480   0.75990   0.00000  Uiso   1.00
O658   O     0.80140   0.97720   0.67980   0.00000  Uiso   1.00
O659   O     0.72510   0.92556   0.73710   0.00000  Uiso   1.00
S660   S     0.39580   0.85280   0.54980   0.00000  Uiso   1.00
O661   O     0.41360   0.87300   0.60440   0.00000  Uiso   1.00
O662   O     0.47890   0.85420   0.52700   0.00000  Uiso   1.00
O663   O     0.33280   0.88570   0.51850   0.00000  Uiso   1.00
O664   O     0.36180   0.80150   0.55350   0.00000  Uiso   1.00
S665   S     0.56181   0.65488   0.91075   0.00000  Uiso   1.00
O666   O     0.56750   0.64760   0.85370   0.00000  Uiso   1.00
O667   O     0.47410   0.63890   0.91960   0.00000  Uiso   1.00
O668   O     0.58260   0.70550   0.91980   0.00000  Uiso   1.00
O669   O     0.62280   0.62010   0.94120   0.00000  Uiso   1.00
S670   S     0.98386   0.65780   0.69342   0.00000  Uiso   1.00
O671   O     0.89200   0.64280   0.69000   0.00000  Uiso   1.00
O672   O     0.99980   0.70563   0.71990   0.00000  Uiso   1.00
O673   O     0.03830   0.61690   0.72270   0.00000  Uiso   1.00
O674   O     0.01560   0.66700   0.63960   0.00000  Uiso   1.00
N675   N     0.56360   0.77479   0.64120   0.00000  Uiso   1.00
N676   N     0.49640   0.75297   0.66401   0.00000  Uiso   1.00
N677   N     0.50380   0.71390   0.58942   0.00000  Uiso   1.00
N678   N     0.44590   0.72351   0.31579   0.00000  Uiso   1.00
N679   N     0.38150   0.75019   0.33671   0.00000  Uiso   1.00
N680   N     0.44250   0.69631   0.39655   0.00000  Uiso   1.00
N681   N     0.68040   0.79920   0.74611   0.00000  Uiso   1.00
N682   N     0.61830   0.77254   0.77022   0.00000  Uiso   1.00
N683   N     0.74920   0.75183   0.80882   0.00000  Uiso   1.00
N684   N     0.17790   0.76362   0.83343   0.00000  Uiso   1.00
N685   N     0.19010   0.71191   0.82228   0.00000  Uiso   1.00
N686   N     0.06400   0.71848   0.85146   0.00000  Uiso   1.00
N687   N     0.32820   0.76158   0.70783   0.00000  Uiso   1.00
N688   N     0.26390   0.73532   0.72961   0.00000  Uiso   1.00
N689   N     0.19990   0.79165   0.67416   0.00000  Uiso   1.00
N690   N     0.77600   0.77808   0.64090   0.00000  Uiso   1.00
N691   N     0.75550   0.82711   0.65643   0.00000  Uiso   1.00
N692   N     0.88810   0.82993   0.63583   0.00000  Uiso   1.00
N693   N     0.52820   0.19016   0.74914   0.00000  Uiso   1.00
N694   N     0.59180   0.15965   0.73143   0.00000  Uiso   1.00
N695   N     0.48630   0.11069   0.75149   0.00000  Uiso   1.00
N696   N     0.47370   0.84229   0.73113   0.00000  Uiso   1.00
N697   N     0.53960   0.86958   0.71169   0.00000  Uiso   1.00
N698   N     0.45050   0.92418   0.74044   0.00000  Uiso   1.00
C699   C     0.56730   0.75086   0.59670   0.00000  Uiso   1.00
H700   H     0.60810   0.75810   0.57280   0.00000  Uiso   1.00
C701   C     0.46200   0.71710   0.63230   0.00000  Uiso   1.00
H702   H     0.41390   0.69600   0.63860   0.00000  Uiso   1.00
C703   C     0.48160   0.69186   0.35280   0.00000  Uiso   1.00
H704   H     0.52860   0.66900   0.34900   0.00000  Uiso   1.00
C705   C     0.38040   0.73353   0.38500   0.00000  Uiso   1.00
H706   H     0.34200   0.74560   0.40860   0.00000  Uiso   1.00
C707   C     0.49020   0.67592   0.54460   0.00000  Uiso   1.00
C708   C     0.47290   0.70619   0.49300   0.00000  Uiso   1.00
H709   H     0.41950   0.72760   0.49280   0.00000  Uiso   1.00
H710   H     0.52300   0.72920   0.48930   0.00000  Uiso   1.00
C711   C     0.46030   0.66738   0.44700   0.00000  Uiso   1.00
C712   C     0.37940   0.63290   0.45280   0.00000  Uiso   1.00
H713   H     0.36880   0.60860   0.42270   0.00000  Uiso   1.00
H714   H     0.32640   0.65440   0.45320   0.00000  Uiso   1.00
C715   C     0.39900   0.60340   0.50470   0.00000  Uiso   1.00
H716   H     0.34820   0.58050   0.50880   0.00000  Uiso   1.00
C717   C     0.41160   0.64190   0.55180   0.00000  Uiso   1.00
H718   H     0.42260   0.62310   0.58590   0.00000  Uiso   1.00
H719   H     0.35830   0.66320   0.55200   0.00000  Uiso   1.00
C720   C     0.57280   0.64330   0.54510   0.00000  Uiso   1.00
H721   H     0.62360   0.66570   0.54130   0.00000  Uiso   1.00
H722   H     0.58500   0.62460   0.57920   0.00000  Uiso   1.00
C723   C     0.55890   0.60490   0.49920   0.00000  Uiso   1.00
H724   H     0.61280   0.58330   0.49940   0.00000  Uiso   1.00
C725   C     0.54210   0.63480   0.44710   0.00000  Uiso   1.00
H726   H     0.53430   0.61060   0.41690   0.00000  Uiso   1.00
H727   H     0.59300   0.65720   0.44330   0.00000  Uiso   1.00
C728   C     0.48110   0.57060   0.50520   0.00000  Uiso   1.00
H729   H     0.47260   0.54540   0.47580   0.00000  Uiso   1.00
H730   H     0.49220   0.55130   0.53900   0.00000  Uiso   1.00
C731   C     0.75850   0.78590   0.76990   0.00000  Uiso   1.00
H732   H     0.81280   0.79830   0.76100   0.00000  Uiso   1.00
C733   C     0.66100   0.74520   0.80740   0.00000  Uiso   1.00
H734   H     0.63450   0.72340   0.83060   0.00000  Uiso   1.00
C735   C     0.10160   0.76560   0.85070   0.00000  Uiso   1.00
H736   H     0.07570   0.79630   0.86150   0.00000  Uiso   1.00
C737   C     0.12150   0.68625   0.83290   0.00000  Uiso   1.00
H738   H     0.11340   0.65020   0.82830   0.00000  Uiso   1.00
C739   C     0.81720   0.72420   0.84450   0.00000  Uiso   1.00
C740   C     0.90770   0.73646   0.82900   0.00000  Uiso   1.00
H741   H     0.91020   0.72620   0.79170   0.00000  Uiso   1.00
H742   H     0.91940   0.77380   0.83240   0.00000  Uiso   1.00
C743   C     0.97580   0.70645   0.86620   0.00000  Uiso   1.00
C744   C     0.95930   0.64850   0.86010   0.00000  Uiso   1.00
H745   H     0.00450   0.62920   0.88370   0.00000  Uiso   1.00
H746   H     0.96240   0.63780   0.82310   0.00000  Uiso   1.00
C747   C     0.86810   0.63700   0.87510   0.00000  Uiso   1.00
H748   H     0.85640   0.59920   0.87120   0.00000  Uiso   1.00
C749   C     0.79990   0.66594   0.83800   0.00000  Uiso   1.00
H750   H     0.80310   0.65550   0.80090   0.00000  Uiso   1.00
H751   H     0.74040   0.65770   0.84650   0.00000  Uiso   1.00
C752   C     0.81270   0.74010   0.90170   0.00000  Uiso   1.00
H753   H     0.75360   0.73280   0.91120   0.00000  Uiso   1.00
H754   H     0.82380   0.77750   0.90590   0.00000  Uiso   1.00
C755   C     0.88140   0.71020   0.93810   0.00000  Uiso   1.00
H756   H     0.87870   0.72090   0.97560   0.00000  Uiso   1.00
C757   C     0.97260   0.72260   0.92370   0.00000  Uiso   1.00
H758   H     0.01780   0.70370   0.94750   0.00000  Uiso   1.00
H759   H     0.98440   0.75990   0.92780   0.00000  Uiso   1.00
C760   C     0.86390   0.65260   0.93280   0.00000  Uiso   1.00
H761   H     0.90850   0.63340   0.95680   0.00000  Uiso   1.00
H762   H     0.80530   0.64450   0.94270   0.00000  Uiso   1.00
C763   C     0.28790   0.79530   0.67460   0.00000  Uiso   1.00
H764   H     0.31630   0.81890   0.65390   0.00000  Uiso   1.00
C765   C     0.18790   0.75370   0.70880   0.00000  Uiso   1.00
H766   H     0.13260   0.74210   0.71690   0.00000  Uiso   1.00
C767   C     0.85580   0.78120   0.62880   0.00000  Uiso   1.00
H768   H     0.88720   0.75310   0.61670   0.00000  Uiso   1.00
C769   C     0.82360   0.85780   0.65290   0.00000  Uiso   1.00
H770   H     0.82620   0.89350   0.66100   0.00000  Uiso   1.00
C771   C     0.13470   0.82750   0.64530   0.00000  Uiso   1.00
C772   C     0.14210   0.82540   0.58620   0.00000  Uiso   1.00
H773   H     0.20190   0.83540   0.58000   0.00000  Uiso   1.00
H774   H     0.13070   0.79000   0.57280   0.00000  Uiso   1.00
C775   C     0.07440   0.86260   0.55710   0.00000  Uiso   1.00
H776   H     0.07860   0.86170   0.51830   0.00000  Uiso   1.00
C777   C     0.98270   0.84590   0.56670   0.00000  Uiso   1.00
H778   H     0.93840   0.86920   0.54750   0.00000  Uiso   1.00
H779   H     0.97090   0.81050   0.55320   0.00000  Uiso   1.00
C780   C     0.97600   0.84770   0.62630   0.00000  Uiso   1.00
C781   C     0.04310   0.81063   0.65570   0.00000  Uiso   1.00
H782   H     0.03130   0.77500   0.64280   0.00000  Uiso   1.00
H783   H     0.03920   0.81150   0.69420   0.00000  Uiso   1.00
C784   C     0.15350   0.88150   0.66650   0.00000  Uiso   1.00
H785   H     0.15010   0.88230   0.70510   0.00000  Uiso   1.00
H786   H     0.21320   0.89210   0.66070   0.00000  Uiso   1.00
C787   C     0.08540   0.91840   0.63760   0.00000  Uiso   1.00
H788   H     0.09760   0.95410   0.65130   0.00000  Uiso   1.00
C789   C     0.99370   0.90255   0.64730   0.00000  Uiso   1.00
H790   H     0.98900   0.90380   0.68570   0.00000  Uiso   1.00
H791   H     0.94980   0.92650   0.62880   0.00000  Uiso   1.00
C792   C     0.09240   0.91710   0.57800   0.00000  Uiso   1.00
H793   H     0.15190   0.92800   0.57180   0.00000  Uiso   1.00
H794   H     0.04930   0.94120   0.55910   0.00000  Uiso   1.00
C795   C     0.46530   0.15974   0.76070   0.00000  Uiso   1.00
H796   H     0.41320   0.17070   0.77360   0.00000  Uiso   1.00
C797   C     0.56500   0.11211   0.73330   0.00000  Uiso   1.00
H798   H     0.59610   0.08290   0.72340   0.00000  Uiso   1.00
C799   C     0.42020   0.87605   0.74790   0.00000  Uiso   1.00
H800   H     0.36850   0.86800   0.76300   0.00000  Uiso   1.00
C801   C     0.52370   0.91827   0.71760   0.00000  Uiso   1.00
H802   H     0.55880   0.94560   0.70730   0.00000  Uiso   1.00
C803   C     0.42920   0.06667   0.76280   0.00000  Uiso   1.00
C804   C     0.41050   0.97253   0.75720   0.00000  Uiso   1.00
C805   C     0.47000   0.01713   0.74510   0.00000  Uiso   1.00
H806   H     0.47440   0.01850   0.70660   0.00000  Uiso   1.00
H807   H     0.52970   0.01250   0.76450   0.00000  Uiso   1.00
C808   C     0.31890   0.97879   0.72620   0.00000  Uiso   1.00
H809   H     0.32260   0.97920   0.68770   0.00000  Uiso   1.00
H810   H     0.28110   0.94960   0.73390   0.00000  Uiso   1.00
C811   C     0.27980   0.02937   0.74280   0.00000  Uiso   1.00
H812   H     0.22000   0.03410   0.72250   0.00000  Uiso   1.00
C813   C     0.33890   0.07448   0.73120   0.00000  Uiso   1.00
H814   H     0.31330   0.10740   0.74150   0.00000  Uiso   1.00
H815   H     0.34380   0.07580   0.69280   0.00000  Uiso   1.00
C816   C     0.42300   0.06532   0.82140   0.00000  Uiso   1.00
H817   H     0.48230   0.06130   0.84150   0.00000  Uiso   1.00
H818   H     0.39770   0.09800   0.83240   0.00000  Uiso   1.00
C819   C     0.36480   0.02015   0.83340   0.00000  Uiso   1.00
H820   H     0.36050   0.01900   0.87220   0.00000  Uiso   1.00
C821   C     0.40410   0.96977   0.81620   0.00000  Uiso   1.00
H822   H     0.36650   0.94040   0.82370   0.00000  Uiso   1.00
H823   H     0.46320   0.96450   0.83630   0.00000  Uiso   1.00
C824   C     0.27260   0.02780   0.80210   0.00000  Uiso   1.00
H825   H     0.24690   0.06040   0.81300   0.00000  Uiso   1.00
H826   H     0.23360   0.99920   0.80970   0.00000  Uiso   1.00
O827   O     0.60830   0.88804   0.62002   0.00000  Uiso   1.00
H828   H     0.63810   0.88120   0.59470   0.00000  Uiso   1.00
H829   H     0.55410   0.88400   0.60810   0.00000  Uiso   1.00
O830   O     0.32380   0.86211   0.35358   0.00000  Uiso   1.00
H831   H     0.37210   0.85480   0.37310   0.00000  Uiso   1.00
H832   H     0.28300   0.86240   0.37360   0.00000  Uiso   1.00
loop_
_geom_bond_atom_site_label_1
_geom_bond_atom_site_label_2
_geom_bond_distance
_geom_bond_site_symmetry_2
_ccdc_geom_bond_type
Cu1    N30     2.001   .     S
Cu1    N40     1.957   .     S
Cu1    N46     1.992   .     S
Cu1    O176    1.989   .     S
Cu2    N25     2.056   .     S
Cu2    N45     1.989   .     S
Cu2    N259    1.997   .     S
Cu2    N678    2.030   .     S
Cu3    O179    1.989   .     S
Cu3    N477    2.034   .     S
Cu3    N685    1.990   .     S
Cu3    N688    2.068   .     S
S4     O5      1.443   .     A
S4     O6      1.439   .     A
S4     O7      1.482   .     A
S4     O8      1.484   .     A
S9     O10     1.476   .     A
S9     O11     1.472   .     A
S9     O12     1.449   .     A
S9     O13     1.440   .     A
S14    O15     1.478   .     A
S14    O16     1.457   .     A
S14    O17     1.366   .     A
S14    O18     1.450   .     A
S19    O20     1.457   .     A
S19    O21     1.419   .     A
S19    O22     1.490   1_655 S
S19    O23     1.532   1_655 S
O22    S19     1.490   1_455 S
O23    S19     1.532   1_455 S
N24    N25     1.373   .     A
N24    C48     1.300   .     A
N25    C50     1.299   .     A
N26    C48     1.365   .     A
N26    C50     1.340   .     A
N26    C56     1.502   .     S
N27    N28     1.373   .     A
N27    C52     1.314   .     A
N27    Cu653   2.030   .     S
N28    C54     1.305   .     A
N29    C52     1.338   .     A
N29    C54     1.363   .     A
N29    C60     1.481   .     S
N30    N31     1.387   .     A
N30    C80     1.317   .     A
N31    C82     1.291   .     A
N32    C80     1.350   .     A
N32    C82     1.363   .     A
N32    C88     1.477   .     S
N33    N34     1.391   .     A
N33    C84     1.307   .     A
N34    C86     1.306   .     A
N34    Cu654   1.990   .     S
N35    C84     1.355   .     A
N35    C86     1.348   .     A
N35    C92     1.487   1_455 S
N36    N37     1.377   .     A
N36    C112    1.314   .     A
N37    C114    1.308   .     A
N37    Cu654   2.068   .     S
N38    C112    1.355   .     A
N38    C114    1.351   .     A
N38    C120    1.489   .     S
N39    N40     1.383   .     A
N39    C116    1.307   .     A
N40    C118    1.329   .     A
N41    C116    1.363   .     A
N41    C118    1.346   .     A
N41    C129    1.478   .     S
N42    N43     1.380   .     A
N42    C144    1.312   .     A
N42    Cu219   1.997   .     S
N43    C146    1.305   .     A
N43    Cu437   2.034   .     S
N44    C144    1.343   .     A
N44    C146    1.352   .     A
N44    C152    1.493   .     S
N45    N46     1.381   .     A
N45    C148    1.312   .     A
N46    C150    1.301   .     A
N47    C148    1.357   .     A
N47    C150    1.342   .     A
N47    C153    1.486   .     S
C48    H49     0.949   .     S
C50    H51     0.951   .     S
C52    H53     0.950   .     S
C54    H55     0.950   .     S
C56    C66     1.528   .     S
C56    C69     1.526   .     S
C56    C57     1.523   1_554 S
C57    H58     0.991   .     S
C57    H59     0.989   .     S
C57    C60     1.538   .     S
C57    C56     1.523   1_556 S
C60    C61     1.556   .     S
C60    C74     1.516   .     S
C61    H62     0.989   .     S
C61    H63     0.989   .     S
C61    C64     1.522   1_556 S
C64    H65     0.998   .     S
C64    C66     1.553   .     S
C64    C77     1.522   .     S
C64    C61     1.522   1_554 S
C66    H67     0.990   .     S
C66    H68     0.990   .     S
C69    H70     0.989   .     S
C69    H71     0.990   .     S
C69    C72     1.529   1_554 S
C72    H73     1.000   .     S
C72    C74     1.529   .     S
C72    C69     1.529   1_556 S
C72    C77     1.516   1_556 S
C74    H75     0.988   .     S
C74    H76     0.990   .     S
C77    H79     0.991   .     S
C77    C72     1.516   1_554 S
C77    H78     0.990   1_554 A
H78    C77     0.990   1_556 A
C80    H81     0.950   .     S
C82    H83     0.948   .     S
C84    H85     0.948   .     S
C86    H87     0.950   .     S
C88    C89     1.529   .     S
C88    C98     1.542   .     S
C88    C101    1.523   .     S
C89    H90     0.991   .     S
C89    H91     0.989   .     S
C89    C92     1.529   .     S
C92    C93     1.531   .     S
C92    C106    1.529   .     S
C92    N35     1.487   1_655 S
C93    H95     0.989   .     S
C93    C96     1.531   .     S
C93    H94     0.992   1_655 A
H94    C93     0.992   1_455 A
C96    H97     1.001   .     S
C96    C98     1.514   .     S
C96    C109    1.533   .     S
C98    H99     0.990   .     S
C98    H100    0.991   .     S
C101   H102    0.989   .     S
C101   H103    0.990   .     S
C101   C104    1.522   .     S
C104   H105    1.000   .     S
C104   C106    1.530   .     S
C104   C109    1.524   .     S
C106   H108    0.989   .     S
C106   H107    0.990   1_655 A
H107   C106    0.990   1_455 A
C109   H110    0.990   .     S
C109   H111    0.990   .     S
C112   H113    0.951   .     S
C114   H115    0.950   .     S
C116   H117    0.949   .     S
C118   H119    0.950   .     S
C120   C121    1.524   .     S
C120   C130    1.531   .     S
C120   C133    1.517   .     S
C121   H122    0.988   .     S
C121   H123    0.989   .     S
C121   C124    1.537   .     S
C124   H125    0.998   .     S
C124   C141    1.525   .     S
C124   C126    1.526   1_455 A
C126   H127    0.990   .     S
C126   H128    0.990   .     S
C126   C129    1.534   .     S
C126   C124    1.526   1_655 A
C129   C138    1.534   .     S
C129   C130    1.532   1_655 A
C130   H131    0.991   .     S
C130   H132    0.990   .     S
C130   C129    1.532   1_455 A
C133   H134    0.991   .     S
C133   H135    0.988   .     S
C133   C136    1.534   .     S
C136   H137    1.000   .     S
C136   C141    1.535   .     S
C136   C138    1.520   1_455 A
C138   H139    0.990   .     S
C138   H140    0.990   .     S
C138   C136    1.520   1_655 A
C141   H142    0.990   .     S
C141   H143    0.989   .     S
C144   H145    0.949   .     S
C146   H147    0.949   .     S
C148   H149    0.951   .     S
C150   H151    0.950   .     S
C152   C154    1.526   .     S
C152   C162    1.523   .     S
C152   C165    1.507   .     S
C153   C154    1.533   .     S
C153   C157    1.529   .     S
C153   C170    1.519   .     S
C154   H155    0.991   .     S
C154   H156    0.990   .     S
C157   H158    0.989   .     S
C157   H159    0.991   .     S
C157   C160    1.528   .     S
C160   H161    1.001   .     S
C160   C162    1.536   .     S
C160   C173    1.528   .     S
C162   H163    0.991   .     S
C162   H164    0.990   .     S
C165   H166    0.990   .     S
C165   H167    0.990   .     S
C165   C168    1.531   .     S
C168   H169    0.999   .     S
C168   C170    1.530   .     S
C168   C173    1.544   .     S
C170   H171    0.991   .     S
C170   H172    0.991   .     S
C173   H174    0.990   .     S
C173   H175    0.990   .     S
O176   H177    0.857   .     S
O176   H178    0.855   .     S
O179   H180    0.858   .     S
O179   H181    0.859   .     S
Cu218  N247    2.001   .     S
Cu218  N257    1.957   .     S
Cu218  N263    1.992   .     S
Cu218  O393    1.989   .     S
Cu219  N242    2.056   .     S
Cu219  N262    1.989   .     S
Cu219  N461    2.030   .     S
Cu220  O396    1.989   .     S
Cu220  N468    1.990   .     S
Cu220  N471    2.068   .     S
Cu220  N694    2.034   .     S
S221   O224    1.482   .     A
S221   O225    1.484   .     A
S221   O222    1.443   1_545 A
S221   O223    1.439   1_545 A
O222   S221    1.443   1_565 A
O223   S221    1.439   1_565 A
S226   O227    1.476   .     A
S226   O228    1.472   .     A
S226   O229    1.449   .     A
S226   O230    1.440   .     A
S231   O232    1.478   .     A
S231   O233    1.457   .     A
S231   O234    1.366   .     A
S231   O235    1.450   .     A
S236   O237    1.457   .     A
S236   O238    1.419   .     A
S236   O239    1.490   1_455 A
S236   O240    1.532   1_455 S
O239   S236    1.490   1_655 A
O240   S236    1.532   1_655 S
N241   N242    1.373   .     A
N241   C265    1.300   .     A
N242   C267    1.299   .     A
N243   C265    1.365   .     A
N243   C267    1.340   .     A
N243   C273    1.502   .     S
N244   N245    1.373   .     A
N244   C269    1.314   .     A
N244   Cu436   2.030   .     S
N245   C271    1.305   .     A
N246   C269    1.338   .     A
N246   C271    1.363   .     A
N246   C277    1.481   .     S
N247   N248    1.387   .     A
N247   C297    1.317   .     A
N248   C299    1.291   .     A
N249   C297    1.350   .     A
N249   C299    1.363   .     A
N249   C305    1.477   .     S
N250   N251    1.391   .     A
N250   C301    1.307   .     A
N251   C303    1.306   .     A
N251   Cu437   1.990   .     S
N252   C301    1.355   .     A
N252   C303    1.348   .     A
N252   C309    1.487   1_655 S
N253   N254    1.377   .     A
N253   C329    1.314   .     A
N254   C331    1.308   .     A
N254   Cu437   2.068   .     S
N255   C329    1.355   .     A
N255   C331    1.351   .     A
N255   C337    1.489   .     S
N256   N257    1.383   .     A
N256   C333    1.307   .     A
N257   C335    1.329   .     A
N258   C333    1.363   .     A
N258   C335    1.346   .     A
N258   C346    1.478   .     S
N259   N260    1.380   .     A
N259   C361    1.312   .     A
N260   C363    1.305   .     A
N260   Cu654   2.034   .     S
N261   C361    1.343   .     A
N261   C363    1.352   .     A
N261   C369    1.493   .     S
N262   N263    1.381   .     A
N262   C365    1.312   .     A
N263   C367    1.301   .     A
N264   C365    1.357   .     A
N264   C367    1.342   .     A
N264   C370    1.486   .     S
C265   H266    0.949   .     S
C267   H268    0.951   .     S
C269   H270    0.950   .     S
C271   H272    0.950   .     S
C273   C274    1.523   .     S
C273   C283    1.528   .     S
C273   C286    1.526   .     S
C274   H275    0.991   .     S
C274   H276    0.989   .     S
C274   C277    1.538   .     S
C277   C278    1.556   .     S
C277   C291    1.516   .     S
C278   H279    0.989   .     S
C278   H280    0.989   .     S
C278   C281    1.522   .     S
C281   H282    0.998   .     S
C281   C283    1.553   .     S
C281   C294    1.522   .     S
C283   H284    0.990   .     S
C283   H285    0.990   .     S
C286   H287    0.989   .     S
C286   H288    0.990   .     S
C286   C289    1.529   .     S
C289   H290    1.000   .     S
C289   C291    1.529   .     S
C289   C294    1.516   .     S
C291   H292    0.988   .     S
C291   H293    0.990   .     S
C294   H295    0.990   .     S
C294   H296    0.991   .     S
C297   H298    0.950   .     S
C299   H300    0.948   .     S
C301   H302    0.948   .     S
C303   H304    0.950   .     S
C305   C306    1.529   .     S
C305   C315    1.542   .     S
C305   C318    1.523   .     S
C306   H307    0.991   .     S
C306   H308    0.989   .     S
C306   C309    1.529   .     S
C309   C310    1.531   .     S
C309   C323    1.529   .     S
C309   N252    1.487   1_455 S
C310   H312    0.989   .     S
C310   C313    1.531   .     S
C310   H311    0.992   1_455 A
H311   C310    0.992   1_655 A
C313   H314    1.001   .     S
C313   C315    1.514   .     S
C313   C326    1.533   .     S
C315   H316    0.990   .     S
C315   H317    0.991   .     S
C318   H319    0.989   .     S
C318   H320    0.990   .     S
C318   C321    1.522   .     S
C321   H322    1.000   .     S
C321   C323    1.530   .     S
C321   C326    1.524   .     S
C323   H325    0.989   .     S
C323   H324    0.990   1_455 S
H324   C323    0.990   1_655 S
C326   H327    0.990   .     S
C326   H328    0.990   .     S
C329   H330    0.951   .     S
C331   H332    0.950   .     S
C333   H334    0.949   .     S
C335   H336    0.950   .     S
C337   C338    1.524   .     S
C337   C347    1.531   .     S
C337   C350    1.517   .     S
C338   H339    0.988   .     S
C338   H340    0.989   .     S
C338   C341    1.537   .     S
C341   H342    0.998   .     S
C341   C358    1.525   .     S
C341   C343    1.526   1_655 A
C343   H344    0.990   .     S
C343   H345    0.990   .     S
C343   C346    1.534   .     S
C343   C341    1.526   1_455 A
C346   C355    1.534   .     S
C346   C347    1.532   1_455 A
C347   H348    0.991   .     S
C347   H349    0.990   .     S
C347   C346    1.532   1_655 A
C350   H351    0.991   .     S
C350   H352    0.988   .     S
C350   C353    1.534   .     S
C353   H354    1.000   .     S
C353   C358    1.535   .     S
C353   C355    1.520   1_655 S
C355   H356    0.990   .     S
C355   H357    0.990   .     S
C355   C353    1.520   1_455 S
C358   H359    0.990   .     S
C358   H360    0.989   .     S
C361   H362    0.949   .     S
C363   H364    0.949   .     S
C365   H366    0.951   .     S
C367   H368    0.950   .     S
C369   C371    1.526   .     S
C369   C379    1.523   .     S
C369   C382    1.507   .     S
C370   C374    1.529   .     S
C370   C387    1.519   .     S
C370   C371    1.533   1_545 A
C371   H372    0.991   .     S
C371   H373    0.990   .     S
C371   C370    1.533   1_565 A
C374   H375    0.989   .     S
C374   H376    0.991   .     S
C374   C377    1.528   1_545 S
C377   H378    1.001   .     S
C377   C379    1.536   .     S
C377   C390    1.528   .     S
C377   C374    1.528   1_565 S
C379   H380    0.991   .     S
C379   H381    0.990   .     S
C382   H383    0.990   .     S
C382   H384    0.990   .     S
C382   C385    1.531   .     S
C385   H386    0.999   .     S
C385   C390    1.544   .     S
C385   C387    1.530   1_565 A
C387   H388    0.991   .     S
C387   H389    0.991   .     S
C387   C385    1.530   1_545 A
C390   H391    0.990   .     S
C390   H392    0.990   1_565 A
H392   C390    0.990   1_545 A
O393   H394    0.857   .     S
O393   H395    0.855   .     S
O396   H397    0.858   .     S
O396   H398    0.859   .     S
Cu435  N464    2.001   .     S
Cu435  N474    1.957   .     S
Cu435  N480    1.992   .     S
Cu435  O610    1.989   .     S
Cu436  N459    2.056   .     S
Cu436  N479    1.989   .     S
Cu436  N693    1.997   .     S
Cu437  O613    1.989   .     S
S438   O439    1.443   .     A
S438   O440    1.439   .     A
S438   O441    1.482   .     A
S438   O442    1.484   .     A
S443   O444    1.476   .     A
S443   O445    1.472   .     A
S443   O446    1.449   .     A
S443   O447    1.440   .     A
S448   O449    1.478   .     A
S448   O450    1.457   .     A
S448   O451    1.366   .     A
S448   O452    1.450   .     A
S453   O454    1.457   .     A
S453   O455    1.419   .     A
S453   O456    1.490   1_455 S
S453   O457    1.532   1_455 A
O456   S453    1.490   1_655 S
O457   S453    1.532   1_655 A
N458   N459    1.373   .     A
N458   C482    1.300   .     A
N459   C484    1.299   .     A
N460   C482    1.365   .     A
N460   C484    1.340   .     A
N460   C490    1.502   .     S
N461   N462    1.373   .     A
N461   C486    1.314   .     A
N462   C488    1.305   .     A
N463   C486    1.338   .     A
N463   C488    1.363   .     A
N463   C494    1.481   .     S
N464   N465    1.387   .     A
N464   C514    1.317   .     A
N465   C516    1.291   .     A
N466   C514    1.350   .     A
N466   C516    1.363   .     A
N466   C522    1.477   .     S
N467   N468    1.391   .     A
N467   C518    1.307   .     A
N468   C520    1.306   .     A
N469   C518    1.355   .     A
N469   C520    1.348   .     A
N469   C526    1.487   1_655 A
N470   N471    1.377   .     A
N470   C546    1.314   .     A
N471   C548    1.308   .     A
N472   C546    1.355   .     A
N472   C548    1.351   .     A
N472   C554    1.489   .     S
N473   N474    1.383   .     A
N473   C550    1.307   .     A
N474   C552    1.329   .     A
N475   C550    1.363   .     A
N475   C552    1.346   .     A
N475   C563    1.478   .     S
N476   N477    1.380   .     A
N476   C578    1.312   .     A
N476   Cu653   1.997   .     S
N477   C580    1.305   .     A
N478   C578    1.343   .     A
N478   C580    1.352   .     A
N478   C586    1.493   .     S
N479   N480    1.381   .     A
N479   C582    1.312   .     A
N480   C584    1.301   .     A
N481   C582    1.357   .     A
N481   C584    1.342   .     A
N481   C587    1.486   .     S
C482   H483    0.949   .     S
C484   H485    0.951   .     S
C486   H487    0.950   .     S
C488   H489    0.950   .     S
C490   C500    1.528   .     S
C490   C503    1.526   .     S
C490   C491    1.523   1_556 A
C491   H492    0.991   .     S
C491   H493    0.989   .     S
C491   C494    1.538   .     S
C491   C490    1.523   1_554 A
C494   C495    1.556   .     S
C494   C508    1.516   .     S
C495   H496    0.989   .     S
C495   H497    0.989   .     S
C495   C498    1.522   1_554 A
C498   H499    0.998   .     S
C498   C500    1.553   .     S
C498   C511    1.522   .     S
C498   C495    1.522   1_556 A
C500   H501    0.990   .     S
C500   H502    0.990   .     S
C503   H504    0.989   .     S
C503   H505    0.990   .     S
C503   C506    1.529   1_556 S
C506   H507    1.000   .     S
C506   C508    1.529   .     S
C506   C503    1.529   1_554 S
C506   C511    1.516   1_554 A
C508   H509    0.988   .     S
C508   H510    0.990   .     S
C511   H513    0.991   .     S
C511   C506    1.516   1_556 A
C511   H512    0.990   1_556 A
H512   C511    0.990   1_554 A
C514   H515    0.950   .     S
C516   H517    0.948   .     S
C518   H519    0.948   .     S
C520   H521    0.950   .     S
C522   C523    1.529   .     S
C522   C532    1.542   .     S
C522   C535    1.523   .     S
C523   H524    0.991   .     S
C523   H525    0.989   .     S
C523   C526    1.529   .     S
C526   C527    1.531   .     S
C526   C540    1.529   .     S
C526   N469    1.487   1_455 A
C527   H529    0.989   .     S
C527   C530    1.531   .     S
C527   H528    0.992   1_455 A
H528   C527    0.992   1_655 A
C530   H531    1.001   .     S
C530   C532    1.514   .     S
C530   C543    1.533   .     S
C532   H533    0.990   .     S
C532   H534    0.991   .     S
C535   H536    0.989   .     S
C535   H537    0.990   .     S
C535   C538    1.522   .     S
C538   H539    1.000   .     S
C538   C540    1.530   .     S
C538   C543    1.524   .     S
C540   H542    0.989   .     S
C540   H541    0.990   1_455 A
H541   C540    0.990   1_655 A
C543   H544    0.990   .     S
C543   H545    0.990   .     S
C546   H547    0.951   .     S
C548   H549    0.950   .     S
C550   H551    0.949   .     S
C552   H553    0.950   .     S
C554   C555    1.524   .     S
C554   C564    1.531   .     S
C554   C567    1.517   .     S
C555   H556    0.988   .     S
C555   H557    0.989   .     S
C555   C558    1.537   .     S
C558   H559    0.998   .     S
C558   C575    1.525   .     S
C558   C560    1.526   1_655 A
C560   H561    0.990   .     S
C560   H562    0.990   .     S
C560   C563    1.534   .     S
C560   C558    1.526   1_455 A
C563   C572    1.534   .     S
C563   C564    1.532   1_455 A
C564   H565    0.991   .     S
C564   H566    0.990   .     S
C564   C563    1.532   1_655 A
C567   H568    0.991   .     S
C567   H569    0.988   .     S
C567   C570    1.534   .     S
C570   H571    1.000   .     S
C570   C575    1.535   .     S
C570   C572    1.520   1_655 S
C572   H573    0.990   .     S
C572   H574    0.990   .     S
C572   C570    1.520   1_455 S
C575   H576    0.990   .     S
C575   H577    0.989   .     S
C578   H579    0.949   .     S
C580   H581    0.949   .     S
C582   H583    0.951   .     S
C584   H585    0.950   .     S
C586   C588    1.526   .     S
C586   C596    1.523   .     S
C586   C599    1.507   .     S
C587   C588    1.533   .     S
C587   C591    1.529   .     S
C587   C604    1.519   .     S
C588   H589    0.991   .     S
C588   H590    0.990   .     S
C591   H592    0.989   .     S
C591   H593    0.991   .     S
C591   C594    1.528   .     S
C594   H595    1.001   .     S
C594   C596    1.536   .     S
C594   C607    1.528   .     S
C596   H597    0.991   .     S
C596   H598    0.990   .     S
C599   H600    0.990   .     S
C599   H601    0.990   .     S
C599   C602    1.531   .     S
C602   H603    0.999   .     S
C602   C604    1.530   .     S
C602   C607    1.544   .     S
C604   H605    0.991   .     S
C604   H606    0.991   .     S
C607   H608    0.990   .     S
C607   H609    0.990   .     S
O610   H611    0.857   .     S
O610   H612    0.855   .     S
O613   H614    0.858   .     S
O613   H615    0.859   .     S
Cu652  N681    2.001   .     S
Cu652  N691    1.957   .     S
Cu652  N697    1.992   .     S
Cu652  O827    1.989   .     S
Cu653  N676    2.056   .     S
Cu653  N696    1.989   .     S
Cu654  O830    1.989   .     S
S655   O658    1.482   .     A
S655   O659    1.484   .     A
S655   O656    1.443   1_565 S
S655   O657    1.439   1_565 S
O656   S655    1.443   1_545 S
O657   S655    1.439   1_545 S
S660   O661    1.476   .     A
S660   O662    1.472   .     A
S660   O663    1.449   .     A
S660   O664    1.440   .     A
S665   O666    1.478   .     A
S665   O667    1.457   .     A
S665   O668    1.366   .     A
S665   O669    1.450   .     A
S670   O671    1.457   .     A
S670   O672    1.419   .     A
S670   O673    1.490   1_655 S
S670   O674    1.532   1_655 S
O673   S670    1.490   1_455 S
O674   S670    1.532   1_455 S
N675   N676    1.373   .     A
N675   C699    1.300   .     A
N676   C701    1.299   .     A
N677   C699    1.365   .     A
N677   C701    1.340   .     A
N677   C707    1.502   .     S
N678   N679    1.373   .     A
N678   C703    1.314   .     A
N679   C705    1.305   .     A
N680   C703    1.338   .     A
N680   C705    1.363   .     A
N680   C711    1.481   .     S
N681   N682    1.387   .     A
N681   C731    1.317   .     A
N682   C733    1.291   .     A
N683   C731    1.350   .     A
N683   C733    1.363   .     A
N683   C739    1.477   .     S
N684   N685    1.391   .     A
N684   C735    1.307   .     A
N685   C737    1.306   .     A
N686   C735    1.355   .     A
N686   C737    1.348   .     A
N686   C743    1.487   1_455 S
N687   N688    1.377   .     A
N687   C763    1.314   .     A
N688   C765    1.308   .     A
N689   C763    1.355   .     A
N689   C765    1.351   .     A
N689   C771    1.489   .     S
N690   N691    1.383   .     A
N690   C767    1.307   .     A
N691   C769    1.329   .     A
N692   C767    1.363   .     A
N692   C769    1.346   .     A
N692   C780    1.478   .     S
N693   N694    1.380   .     A
N693   C795    1.312   .     A
N694   C797    1.305   .     A
N695   C795    1.343   .     A
N695   C797    1.352   .     A
N695   C803    1.493   .     S
N696   N697    1.381   .     A
N696   C799    1.312   .     A
N697   C801    1.301   .     A
N698   C799    1.357   .     A
N698   C801    1.342   .     A
N698   C804    1.486   .     S
C699   H700    0.949   .     S
C701   H702    0.951   .     S
C703   H704    0.950   .     S
C705   H706    0.950   .     S
C707   C708    1.523   .     S
C707   C717    1.528   .     S
C707   C720    1.526   .     S
C708   H709    0.991   .     S
C708   H710    0.989   .     S
C708   C711    1.538   .     S
C711   C712    1.556   .     S
C711   C725    1.516   .     S
C712   H713    0.989   .     S
C712   H714    0.989   .     S
C712   C715    1.522   .     S
C715   H716    0.998   .     S
C715   C717    1.553   .     S
C715   C728    1.522   .     S
C717   H718    0.990   .     S
C717   H719    0.990   .     S
C720   H721    0.989   .     S
C720   H722    0.990   .     S
C720   C723    1.529   .     S
C723   H724    1.000   .     S
C723   C725    1.529   .     S
C723   C728    1.516   .     S
C725   H726    0.988   .     S
C725   H727    0.990   .     S
C728   H729    0.990   .     S
C728   H730    0.991   .     S
C731   H732    0.950   .     S
C733   H734    0.948   .     S
C735   H736    0.948   .     S
C737   H738    0.950   .     S
C739   C740    1.529   .     S
C739   C749    1.542   .     S
C739   C752    1.523   .     S
C740   H741    0.991   .     S
C740   H742    0.989   .     S
C740   C743    1.529   .     S
C743   C744    1.531   .     S
C743   C757    1.529   .     S
C743   N686    1.487   1_655 S
C744   H746    0.989   .     S
C744   C747    1.531   .     S
C744   H745    0.992   1_655 S
H745   C744    0.992   1_455 S
C747   H748    1.001   .     S
C747   C749    1.514   .     S
C747   C760    1.533   .     S
C749   H750    0.990   .     S
C749   H751    0.991   .     S
C752   H753    0.989   .     S
C752   H754    0.990   .     S
C752   C755    1.522   .     S
C755   H756    1.000   .     S
C755   C757    1.530   .     S
C755   C760    1.524   .     S
C757   H759    0.989   .     S
C757   H758    0.990   1_655 S
H758   C757    0.990   1_455 S
C760   H761    0.990   .     S
C760   H762    0.990   .     S
C763   H764    0.951   .     S
C765   H766    0.950   .     S
C767   H768    0.949   .     S
C769   H770    0.950   .     S
C771   C772    1.524   .     S
C771   C781    1.531   .     S
C771   C784    1.517   .     S
C772   H773    0.988   .     S
C772   H774    0.989   .     S
C772   C775    1.537   .     S
C775   H776    0.998   .     S
C775   C792    1.525   .     S
C775   C777    1.526   1_455 S
C777   H778    0.990   .     S
C777   H779    0.990   .     S
C777   C780    1.534   .     S
C777   C775    1.526   1_655 S
C780   C789    1.534   .     S
C780   C781    1.532   1_655 S
C781   H782    0.991   .     S
C781   H783    0.990   .     S
C781   C780    1.532   1_455 S
C784   H785    0.991   .     S
C784   H786    0.988   .     S
C784   C787    1.534   .     S
C787   H788    1.000   .     S
C787   C792    1.535   .     S
C787   C789    1.520   1_455 S
C789   H790    0.990   .     S
C789   H791    0.990   .     S
C789   C787    1.520   1_655 S
C792   H793    0.990   .     S
C792   H794    0.989   .     S
C795   H796    0.949   .     S
C797   H798    0.949   .     S
C799   H800    0.951   .     S
C801   H802    0.950   .     S
C803   C805    1.526   .     S
C803   C813    1.523   .     S
C803   C816    1.507   .     S
C804   C808    1.529   .     S
C804   C821    1.519   .     S
C804   C805    1.533   1_565 S
C805   H806    0.991   .     S
C805   H807    0.990   .     S
C805   C804    1.533   1_545 S
C808   H809    0.989   .     S
C808   H810    0.991   .     S
C808   C811    1.528   1_565 S
C811   H812    1.001   .     S
C811   C813    1.536   .     S
C811   C824    1.528   .     S
C811   C808    1.528   1_545 S
C813   H814    0.991   .     S
C813   H815    0.990   .     S
C816   H817    0.990   .     S
C816   H818    0.990   .     S
C816   C819    1.531   .     S
C819   H820    0.999   .     S
C819   C824    1.544   .     S
C819   C821    1.530   1_545 S
C821   H822    0.991   .     S
C821   H823    0.991   .     S
C821   C819    1.530   1_565 S
C824   H825    0.990   .     S
C824   H826    0.990   1_545 S
H826   C824    0.990   1_565 S
O827   H828    0.857   .     S
O827   H829    0.855   .     S
O830   H831    0.858   .     S
O830   H832    0.859   .     S
