data_image0
_cell_length_a       23.3823
_cell_length_b       23.3823
_cell_length_c       28.1857
_cell_angle_alpha    90
_cell_angle_beta     90
_cell_angle_gamma    90

_symmetry_space_group_name_H-M    "P 1"
_symmetry_int_tables_number       1

loop_
  _symmetry_equiv_pos_as_xyz
  'x, y, z'

loop_
  _atom_site_label
  _atom_site_occupancy
  _atom_site_fract_x
  _atom_site_fract_y
  _atom_site_fract_z
  _atom_site_thermal_displace_type
  _atom_site_B_iso_or_equiv
  _atom_site_type_symbol
  Ag1      1.0000 0.55702  0.50306  0.47347  Biso   1.000  Ag
  C1       1.0000 0.40390  0.44611  0.33128  Biso   1.000  C
  H1       1.0000 0.42290  0.40980  0.33370  Biso   1.000  H
  H2       1.0000 0.40980  0.46170  0.30020  Biso   1.000  H
  H3       1.0000 0.36360  0.44100  0.33670  Biso   1.000  H
  C2       1.0000 0.42745  0.48590  0.36730  Biso   1.000  C
  C3       1.0000 0.42589  0.54517  0.36997  Biso   1.000  C
  C4       1.0000 0.45473  0.55893  0.41181  Biso   1.000  C
  C5       1.0000 0.46470  0.61678  0.43245  Biso   1.000  C
  H4       1.0000 0.47070  0.61340  0.46600  Biso   1.000  H
  H5       1.0000 0.43190  0.64050  0.42660  Biso   1.000  H
  H6       1.0000 0.49780  0.63370  0.41800  Biso   1.000  H
  C6       1.0000 0.29302  0.58150  0.35899  Biso   1.000  C
  H7       1.0000 0.29750  0.59450  0.39110  Biso   1.000  H
  H8       1.0000 0.29120  0.54050  0.35860  Biso   1.000  H
  H9       1.0000 0.25840  0.59690  0.34590  Biso   1.000  H
  C7       1.0000 0.34249  0.60089  0.33020  Biso   1.000  C
  C8       1.0000 0.40043  0.58491  0.33532  Biso   1.000  C
  C9       1.0000 0.42886  0.61510  0.30064  Biso   1.000  C
  C10      1.0000 0.49110  0.61880  0.28899  Biso   1.000  C
  H10      1.0000 0.50640  0.58090  0.28550  Biso   1.000  H
  H11      1.0000 0.51080  0.63820  0.31410  Biso   1.000  H
  H12      1.0000 0.49600  0.63950  0.25990  Biso   1.000  H
  C11      1.0000 0.71050  0.31884  0.43780  Biso   1.000  C
  H13      1.0000 0.71010  0.28740  0.45970  Biso   1.000  H
  H14      1.0000 0.74860  0.32420  0.42590  Biso   1.000  H
  H15      1.0000 0.68520  0.31080  0.41180  Biso   1.000  H
  C12      1.0000 0.69137  0.37196  0.46260  Biso   1.000  C
  C13      1.0000 0.71957  0.40977  0.49242  Biso   1.000  C
  C14      1.0000 0.67936  0.45201  0.50352  Biso   1.000  C
  C15      1.0000 0.68626  0.50409  0.53334  Biso   1.000  C
  H16      1.0000 0.69070  0.53690  0.51320  Biso   1.000  H
  H17      1.0000 0.71950  0.50000  0.55310  Biso   1.000  H
  H18      1.0000 0.65300  0.50890  0.55290  Biso   1.000  H
  N1       1.0000 0.47346  0.51141  0.43339  Biso   1.000  N
  N2       1.0000 0.45615  0.46767  0.40538  Biso   1.000  N
  H19      1.0000 0.46290  0.43220  0.41140  Biso   1.000  H
  N3       1.0000 0.38919  0.64547  0.27674  Biso   1.000  N
  H20      1.0000 0.39680  0.66720  0.25300  Biso   1.000  H
  N4       1.0000 0.33622  0.63778  0.29442  Biso   1.000  N
  N5       1.0000 0.62945  0.44096  0.48263  Biso   1.000  N
  N6       1.0000 0.63796  0.39189  0.45779  Biso   1.000  N
  H21      1.0000 0.61210  0.37550  0.44090  Biso   1.000  H
  Ag2      1.0000 0.05702  0.00306  0.97347  Biso   1.000  Ag
  C16      1.0000 0.90390  0.94611  0.83128  Biso   1.000  C
  H22      1.0000 0.92290  0.90980  0.83370  Biso   1.000  H
  H23      1.0000 0.90980  0.96170  0.80020  Biso   1.000  H
  H24      1.0000 0.86360  0.94100  0.83670  Biso   1.000  H
  C17      1.0000 0.92745  0.98590  0.86730  Biso   1.000  C
  C18      1.0000 0.92589  0.04517  0.86997  Biso   1.000  C
  C19      1.0000 0.95473  0.05893  0.91181  Biso   1.000  C
  C20      1.0000 0.96470  0.11678  0.93245  Biso   1.000  C
  H25      1.0000 0.97070  0.11340  0.96600  Biso   1.000  H
  H26      1.0000 0.93190  0.14050  0.92660  Biso   1.000  H
  H27      1.0000 0.99780  0.13370  0.91800  Biso   1.000  H
  C21      1.0000 0.79302  0.08150  0.85899  Biso   1.000  C
  H28      1.0000 0.79750  0.09450  0.89110  Biso   1.000  H
  H29      1.0000 0.79120  0.04050  0.85860  Biso   1.000  H
  H30      1.0000 0.75840  0.09690  0.84590  Biso   1.000  H
  C22      1.0000 0.84249  0.10089  0.83020  Biso   1.000  C
  C23      1.0000 0.90043  0.08491  0.83532  Biso   1.000  C
  C24      1.0000 0.92886  0.11510  0.80064  Biso   1.000  C
  C25      1.0000 0.99110  0.11880  0.78899  Biso   1.000  C
  H31      1.0000 0.00640  0.08090  0.78550  Biso   1.000  H
  H32      1.0000 0.01080  0.13820  0.81410  Biso   1.000  H
  H33      1.0000 0.99600  0.13950  0.75990  Biso   1.000  H
  C26      1.0000 0.21050  0.81884  0.93780  Biso   1.000  C
  H34      1.0000 0.21010  0.78740  0.95970  Biso   1.000  H
  H35      1.0000 0.24860  0.82420  0.92590  Biso   1.000  H
  H36      1.0000 0.18520  0.81080  0.91180  Biso   1.000  H
  C27      1.0000 0.19137  0.87196  0.96260  Biso   1.000  C
  C28      1.0000 0.21957  0.90977  0.99242  Biso   1.000  C
  C29      1.0000 0.17936  0.95201  0.00352  Biso   1.000  C
  C30      1.0000 0.18626  0.00409  0.03334  Biso   1.000  C
  H37      1.0000 0.19070  0.03690  0.01320  Biso   1.000  H
  H38      1.0000 0.21950  0.00000  0.05310  Biso   1.000  H
  H39      1.0000 0.15300  0.00890  0.05290  Biso   1.000  H
  N7       1.0000 0.97346  0.01141  0.93339  Biso   1.000  N
  N8       1.0000 0.95615  0.96767  0.90538  Biso   1.000  N
  H40      1.0000 0.96290  0.93220  0.91140  Biso   1.000  H
  N9       1.0000 0.88919  0.14547  0.77674  Biso   1.000  N
  H41      1.0000 0.89680  0.16720  0.75300  Biso   1.000  H
  N10      1.0000 0.83622  0.13778  0.79442  Biso   1.000  N
  N11      1.0000 0.12945  0.94096  0.98263  Biso   1.000  N
  N12      1.0000 0.13796  0.89189  0.95779  Biso   1.000  N
  H42      1.0000 0.11210  0.87550  0.94090  Biso   1.000  H
  Ag3      1.0000 0.94298  0.49694  0.97347  Biso   1.000  Ag
  C31      1.0000 0.09610  0.55389  0.83128  Biso   1.000  C
  H43      1.0000 0.07710  0.59020  0.83370  Biso   1.000  H
  H44      1.0000 0.09020  0.53830  0.80020  Biso   1.000  H
  H45      1.0000 0.13640  0.55900  0.83670  Biso   1.000  H
  C32      1.0000 0.07255  0.51410  0.86730  Biso   1.000  C
  C33      1.0000 0.07411  0.45483  0.86997  Biso   1.000  C
  C34      1.0000 0.04527  0.44107  0.91181  Biso   1.000  C
  C35      1.0000 0.03530  0.38322  0.93245  Biso   1.000  C
  H46      1.0000 0.02930  0.38660  0.96600  Biso   1.000  H
  H47      1.0000 0.06810  0.35950  0.92660  Biso   1.000  H
  H48      1.0000 0.00220  0.36630  0.91800  Biso   1.000  H
  C36      1.0000 0.20698  0.41850  0.85899  Biso   1.000  C
  H49      1.0000 0.20250  0.40550  0.89110  Biso   1.000  H
  H50      1.0000 0.20880  0.45950  0.85860  Biso   1.000  H
  H51      1.0000 0.24160  0.40310  0.84590  Biso   1.000  H
  C37      1.0000 0.15751  0.39911  0.83020  Biso   1.000  C
  C38      1.0000 0.09957  0.41509  0.83532  Biso   1.000  C
  C39      1.0000 0.07114  0.38490  0.80064  Biso   1.000  C
  C40      1.0000 0.00890  0.38120  0.78899  Biso   1.000  C
  H52      1.0000 0.99360  0.41910  0.78550  Biso   1.000  H
  H53      1.0000 0.98920  0.36180  0.81410  Biso   1.000  H
  H54      1.0000 0.00400  0.36050  0.75990  Biso   1.000  H
  C41      1.0000 0.78950  0.68116  0.93780  Biso   1.000  C
  H55      1.0000 0.78990  0.71260  0.95970  Biso   1.000  H
  H56      1.0000 0.75140  0.67580  0.92590  Biso   1.000  H
  H57      1.0000 0.81480  0.68920  0.91180  Biso   1.000  H
  C42      1.0000 0.80863  0.62804  0.96260  Biso   1.000  C
  C43      1.0000 0.78043  0.59023  0.99242  Biso   1.000  C
  C44      1.0000 0.82064  0.54799  0.00352  Biso   1.000  C
  C45      1.0000 0.81374  0.49591  0.03334  Biso   1.000  C
  H58      1.0000 0.80930  0.46310  0.01320  Biso   1.000  H
  H59      1.0000 0.78050  0.50000  0.05310  Biso   1.000  H
  H60      1.0000 0.84700  0.49110  0.05290  Biso   1.000  H
  N13      1.0000 0.02654  0.48859  0.93339  Biso   1.000  N
  N14      1.0000 0.04385  0.53233  0.90538  Biso   1.000  N
  H61      1.0000 0.03710  0.56780  0.91140  Biso   1.000  H
  N15      1.0000 0.11081  0.35453  0.77674  Biso   1.000  N
  H62      1.0000 0.10320  0.33280  0.75300  Biso   1.000  H
  N16      1.0000 0.16378  0.36222  0.79442  Biso   1.000  N
  N17      1.0000 0.87055  0.55904  0.98263  Biso   1.000  N
  N18      1.0000 0.86204  0.60811  0.95779  Biso   1.000  N
  H63      1.0000 0.88790  0.62450  0.94090  Biso   1.000  H
  Ag4      1.0000 0.44298  0.99694  0.47347  Biso   1.000  Ag
  C46      1.0000 0.59610  0.05389  0.33128  Biso   1.000  C
  H64      1.0000 0.57710  0.09020  0.33370  Biso   1.000  H
  H65      1.0000 0.59020  0.03830  0.30020  Biso   1.000  H
  H66      1.0000 0.63640  0.05900  0.33670  Biso   1.000  H
  C47      1.0000 0.57255  0.01410  0.36730  Biso   1.000  C
  C48      1.0000 0.57411  0.95483  0.36997  Biso   1.000  C
  C49      1.0000 0.54527  0.94107  0.41181  Biso   1.000  C
  C50      1.0000 0.53530  0.88322  0.43245  Biso   1.000  C
  H67      1.0000 0.52930  0.88660  0.46600  Biso   1.000  H
  H68      1.0000 0.56810  0.85950  0.42660  Biso   1.000  H
  H69      1.0000 0.50220  0.86630  0.41800  Biso   1.000  H
  C51      1.0000 0.70698  0.91850  0.35899  Biso   1.000  C
  H70      1.0000 0.70250  0.90550  0.39110  Biso   1.000  H
  H71      1.0000 0.70880  0.95950  0.35860  Biso   1.000  H
  H72      1.0000 0.74160  0.90310  0.34590  Biso   1.000  H
  C52      1.0000 0.65751  0.89911  0.33020  Biso   1.000  C
  C53      1.0000 0.59957  0.91509  0.33532  Biso   1.000  C
  C54      1.0000 0.57114  0.88490  0.30064  Biso   1.000  C
  C55      1.0000 0.50890  0.88120  0.28899  Biso   1.000  C
  H73      1.0000 0.49360  0.91910  0.28550  Biso   1.000  H
  H74      1.0000 0.48920  0.86180  0.31410  Biso   1.000  H
  H75      1.0000 0.50400  0.86050  0.25990  Biso   1.000  H
  C56      1.0000 0.28950  0.18116  0.43780  Biso   1.000  C
  H76      1.0000 0.28990  0.21260  0.45970  Biso   1.000  H
  H77      1.0000 0.25140  0.17580  0.42590  Biso   1.000  H
  H78      1.0000 0.31480  0.18920  0.41180  Biso   1.000  H
  C57      1.0000 0.30863  0.12804  0.46260  Biso   1.000  C
  C58      1.0000 0.28043  0.09023  0.49242  Biso   1.000  C
  C59      1.0000 0.32064  0.04799  0.50352  Biso   1.000  C
  C60      1.0000 0.31374  0.99591  0.53334  Biso   1.000  C
  H79      1.0000 0.30930  0.96310  0.51320  Biso   1.000  H
  H80      1.0000 0.28050  0.00000  0.55310  Biso   1.000  H
  H81      1.0000 0.34700  0.99110  0.55290  Biso   1.000  H
  N19      1.0000 0.52654  0.98859  0.43339  Biso   1.000  N
  N20      1.0000 0.54385  0.03233  0.40538  Biso   1.000  N
  H82      1.0000 0.53710  0.06780  0.41140  Biso   1.000  H
  N21      1.0000 0.61081  0.85453  0.27674  Biso   1.000  N
  H83      1.0000 0.60320  0.83280  0.25300  Biso   1.000  H
  N22      1.0000 0.66378  0.86222  0.29442  Biso   1.000  N
  N23      1.0000 0.37055  0.05904  0.48263  Biso   1.000  N
  N24      1.0000 0.36204  0.10811  0.45779  Biso   1.000  N
  H84      1.0000 0.38790  0.12450  0.44090  Biso   1.000  H
  Ag5      1.0000 0.74694  0.30702  0.72347  Biso   1.000  Ag
  C61      1.0000 0.80389  0.15390  0.58128  Biso   1.000  C
  H85      1.0000 0.84020  0.17290  0.58370  Biso   1.000  H
  H86      1.0000 0.78830  0.15980  0.55020  Biso   1.000  H
  H87      1.0000 0.80900  0.11360  0.58670  Biso   1.000  H
  C62      1.0000 0.76410  0.17745  0.61730  Biso   1.000  C
  C63      1.0000 0.70483  0.17589  0.61997  Biso   1.000  C
  C64      1.0000 0.69107  0.20473  0.66181  Biso   1.000  C
  C65      1.0000 0.63322  0.21470  0.68245  Biso   1.000  C
  H88      1.0000 0.63660  0.22070  0.71600  Biso   1.000  H
  H89      1.0000 0.60950  0.18190  0.67660  Biso   1.000  H
  H90      1.0000 0.61630  0.24780  0.66800  Biso   1.000  H
  C66      1.0000 0.66850  0.04302  0.60899  Biso   1.000  C
  H91      1.0000 0.65550  0.04750  0.64110  Biso   1.000  H
  H92      1.0000 0.70950  0.04120  0.60860  Biso   1.000  H
  H93      1.0000 0.65310  0.00840  0.59590  Biso   1.000  H
  C67      1.0000 0.64911  0.09249  0.58020  Biso   1.000  C
  C68      1.0000 0.66509  0.15043  0.58532  Biso   1.000  C
  C69      1.0000 0.63490  0.17886  0.55064  Biso   1.000  C
  C70      1.0000 0.63120  0.24110  0.53899  Biso   1.000  C
  H94      1.0000 0.66910  0.25640  0.53550  Biso   1.000  H
  H95      1.0000 0.61180  0.26080  0.56410  Biso   1.000  H
  H96      1.0000 0.61050  0.24600  0.50990  Biso   1.000  H
  C71      1.0000 0.93116  0.46050  0.68780  Biso   1.000  C
  H97      1.0000 0.96260  0.46010  0.70970  Biso   1.000  H
  H98      1.0000 0.92580  0.49860  0.67590  Biso   1.000  H
  H99      1.0000 0.93920  0.43520  0.66180  Biso   1.000  H
  C72      1.0000 0.87804  0.44137  0.71260  Biso   1.000  C
  C73      1.0000 0.84023  0.46957  0.74242  Biso   1.000  C
  C74      1.0000 0.79799  0.42936  0.75352  Biso   1.000  C
  C75      1.0000 0.74591  0.43626  0.78334  Biso   1.000  C
  H100     1.0000 0.71310  0.44070  0.76320  Biso   1.000  H
  H101     1.0000 0.75000  0.46950  0.80310  Biso   1.000  H
  H102     1.0000 0.74110  0.40300  0.80290  Biso   1.000  H
  N25      1.0000 0.73859  0.22346  0.68339  Biso   1.000  N
  N26      1.0000 0.78233  0.20615  0.65538  Biso   1.000  N
  H103     1.0000 0.81780  0.21290  0.66140  Biso   1.000  H
  N27      1.0000 0.60453  0.13919  0.52674  Biso   1.000  N
  H104     1.0000 0.58280  0.14680  0.50300  Biso   1.000  H
  N28      1.0000 0.61222  0.08622  0.54442  Biso   1.000  N
  N29      1.0000 0.80904  0.37945  0.73263  Biso   1.000  N
  N30      1.0000 0.85811  0.38796  0.70779  Biso   1.000  N
  H105     1.0000 0.87450  0.36210  0.69090  Biso   1.000  H
  Ag6      1.0000 0.24694  0.80702  0.22347  Biso   1.000  Ag
  C76      1.0000 0.30389  0.65390  0.08128  Biso   1.000  C
  H106     1.0000 0.34020  0.67290  0.08370  Biso   1.000  H
  H107     1.0000 0.28830  0.65980  0.05020  Biso   1.000  H
  H108     1.0000 0.30900  0.61360  0.08670  Biso   1.000  H
  C77      1.0000 0.26410  0.67745  0.11730  Biso   1.000  C
  C78      1.0000 0.20483  0.67589  0.11997  Biso   1.000  C
  C79      1.0000 0.19107  0.70473  0.16181  Biso   1.000  C
  C80      1.0000 0.13322  0.71470  0.18245  Biso   1.000  C
  H109     1.0000 0.13660  0.72070  0.21600  Biso   1.000  H
  H110     1.0000 0.10950  0.68190  0.17660  Biso   1.000  H
  H111     1.0000 0.11630  0.74780  0.16800  Biso   1.000  H
  C81      1.0000 0.16850  0.54302  0.10899  Biso   1.000  C
  H112     1.0000 0.15550  0.54750  0.14110  Biso   1.000  H
  H113     1.0000 0.20950  0.54120  0.10860  Biso   1.000  H
  H114     1.0000 0.15310  0.50840  0.09590  Biso   1.000  H
  C82      1.0000 0.14911  0.59249  0.08020  Biso   1.000  C
  C83      1.0000 0.16509  0.65043  0.08532  Biso   1.000  C
  C84      1.0000 0.13490  0.67886  0.05064  Biso   1.000  C
  C85      1.0000 0.13120  0.74110  0.03899  Biso   1.000  C
  H115     1.0000 0.16910  0.75640  0.03550  Biso   1.000  H
  H116     1.0000 0.11180  0.76080  0.06410  Biso   1.000  H
  H117     1.0000 0.11050  0.74600  0.00990  Biso   1.000  H
  C86      1.0000 0.43116  0.96050  0.18780  Biso   1.000  C
  H118     1.0000 0.46260  0.96010  0.20970  Biso   1.000  H
  H119     1.0000 0.42580  0.99860  0.17590  Biso   1.000  H
  H120     1.0000 0.43920  0.93520  0.16180  Biso   1.000  H
  C87      1.0000 0.37804  0.94137  0.21260  Biso   1.000  C
  C88      1.0000 0.34023  0.96957  0.24242  Biso   1.000  C
  C89      1.0000 0.29799  0.92936  0.25352  Biso   1.000  C
  C90      1.0000 0.24591  0.93626  0.28334  Biso   1.000  C
  H121     1.0000 0.21310  0.94070  0.26320  Biso   1.000  H
  H122     1.0000 0.25000  0.96950  0.30310  Biso   1.000  H
  H123     1.0000 0.24110  0.90300  0.30290  Biso   1.000  H
  N31      1.0000 0.23859  0.72346  0.18339  Biso   1.000  N
  N32      1.0000 0.28233  0.70615  0.15538  Biso   1.000  N
  H124     1.0000 0.31780  0.71290  0.16140  Biso   1.000  H
  N33      1.0000 0.10453  0.63919  0.02674  Biso   1.000  N
  H125     1.0000 0.08280  0.64680  0.00300  Biso   1.000  H
  N34      1.0000 0.11222  0.58622  0.04442  Biso   1.000  N
  N35      1.0000 0.30904  0.87945  0.23263  Biso   1.000  N
  N36      1.0000 0.35811  0.88796  0.20779  Biso   1.000  N
  H126     1.0000 0.37450  0.86210  0.19090  Biso   1.000  H
  Ag7      1.0000 0.75306  0.69298  0.22347  Biso   1.000  Ag
  C91      1.0000 0.69611  0.84610  0.08128  Biso   1.000  C
  H127     1.0000 0.65980  0.82710  0.08370  Biso   1.000  H
  H128     1.0000 0.71170  0.84020  0.05020  Biso   1.000  H
  H129     1.0000 0.69100  0.88640  0.08670  Biso   1.000  H
  C92      1.0000 0.73590  0.82255  0.11730  Biso   1.000  C
  C93      1.0000 0.79517  0.82411  0.11997  Biso   1.000  C
  C94      1.0000 0.80893  0.79527  0.16181  Biso   1.000  C
  C95      1.0000 0.86678  0.78530  0.18245  Biso   1.000  C
  H130     1.0000 0.86340  0.77930  0.21600  Biso   1.000  H
  H131     1.0000 0.89050  0.81810  0.17660  Biso   1.000  H
  H132     1.0000 0.88370  0.75220  0.16800  Biso   1.000  H
  C96      1.0000 0.83150  0.95698  0.10899  Biso   1.000  C
  H133     1.0000 0.84450  0.95250  0.14110  Biso   1.000  H
  H134     1.0000 0.79050  0.95880  0.10860  Biso   1.000  H
  H135     1.0000 0.84690  0.99160  0.09590  Biso   1.000  H
  C97      1.0000 0.85089  0.90751  0.08020  Biso   1.000  C
  C98      1.0000 0.83491  0.84957  0.08532  Biso   1.000  C
  C99      1.0000 0.86510  0.82114  0.05064  Biso   1.000  C
  C100     1.0000 0.86880  0.75890  0.03899  Biso   1.000  C
  H136     1.0000 0.83090  0.74360  0.03550  Biso   1.000  H
  H137     1.0000 0.88820  0.73920  0.06410  Biso   1.000  H
  H138     1.0000 0.88950  0.75400  0.00990  Biso   1.000  H
  C101     1.0000 0.56884  0.53950  0.18780  Biso   1.000  C
  H139     1.0000 0.53740  0.53990  0.20970  Biso   1.000  H
  H140     1.0000 0.57420  0.50140  0.17590  Biso   1.000  H
  H141     1.0000 0.56080  0.56480  0.16180  Biso   1.000  H
  C102     1.0000 0.62196  0.55863  0.21260  Biso   1.000  C
  C103     1.0000 0.65977  0.53043  0.24242  Biso   1.000  C
  C104     1.0000 0.70201  0.57064  0.25352  Biso   1.000  C
  C105     1.0000 0.75409  0.56374  0.28334  Biso   1.000  C
  H142     1.0000 0.78690  0.55930  0.26320  Biso   1.000  H
  H143     1.0000 0.75000  0.53050  0.30310  Biso   1.000  H
  H144     1.0000 0.75890  0.59700  0.30290  Biso   1.000  H
  N37      1.0000 0.76141  0.77654  0.18339  Biso   1.000  N
  N38      1.0000 0.71767  0.79385  0.15538  Biso   1.000  N
  H145     1.0000 0.68220  0.78710  0.16140  Biso   1.000  H
  N39      1.0000 0.89547  0.86081  0.02674  Biso   1.000  N
  H146     1.0000 0.91720  0.85320  0.00300  Biso   1.000  H
  N40      1.0000 0.88778  0.91378  0.04442  Biso   1.000  N
  N41      1.0000 0.69096  0.62055  0.23263  Biso   1.000  N
  N42      1.0000 0.64189  0.61204  0.20779  Biso   1.000  N
  H147     1.0000 0.62550  0.63790  0.19090  Biso   1.000  H
  Ag8      1.0000 0.25306  0.19298  0.72347  Biso   1.000  Ag
  C106     1.0000 0.19611  0.34610  0.58128  Biso   1.000  C
  H148     1.0000 0.15980  0.32710  0.58370  Biso   1.000  H
  H149     1.0000 0.21170  0.34020  0.55020  Biso   1.000  H
  H150     1.0000 0.19100  0.38640  0.58670  Biso   1.000  H
  C107     1.0000 0.23590  0.32255  0.61730  Biso   1.000  C
  C108     1.0000 0.29517  0.32411  0.61997  Biso   1.000  C
  C109     1.0000 0.30893  0.29527  0.66181  Biso   1.000  C
  C110     1.0000 0.36678  0.28530  0.68245  Biso   1.000  C
  H151     1.0000 0.36340  0.27930  0.71600  Biso   1.000  H
  H152     1.0000 0.39050  0.31810  0.67660  Biso   1.000  H
  H153     1.0000 0.38370  0.25220  0.66800  Biso   1.000  H
  C111     1.0000 0.33150  0.45698  0.60899  Biso   1.000  C
  H154     1.0000 0.34450  0.45250  0.64110  Biso   1.000  H
  H155     1.0000 0.29050  0.45880  0.60860  Biso   1.000  H
  H156     1.0000 0.34690  0.49160  0.59590  Biso   1.000  H
  C112     1.0000 0.35089  0.40751  0.58020  Biso   1.000  C
  C113     1.0000 0.33491  0.34957  0.58532  Biso   1.000  C
  C114     1.0000 0.36510  0.32114  0.55064  Biso   1.000  C
  C115     1.0000 0.36880  0.25890  0.53899  Biso   1.000  C
  H157     1.0000 0.33090  0.24360  0.53550  Biso   1.000  H
  H158     1.0000 0.38820  0.23920  0.56410  Biso   1.000  H
  H159     1.0000 0.38950  0.25400  0.50990  Biso   1.000  H
  C116     1.0000 0.06884  0.03950  0.68780  Biso   1.000  C
  H160     1.0000 0.03740  0.03990  0.70970  Biso   1.000  H
  H161     1.0000 0.07420  0.00140  0.67590  Biso   1.000  H
  H162     1.0000 0.06080  0.06480  0.66180  Biso   1.000  H
  C117     1.0000 0.12196  0.05863  0.71260  Biso   1.000  C
  C118     1.0000 0.15977  0.03043  0.74242  Biso   1.000  C
  C119     1.0000 0.20201  0.07064  0.75352  Biso   1.000  C
  C120     1.0000 0.25409  0.06374  0.78334  Biso   1.000  C
  H163     1.0000 0.28690  0.05930  0.76320  Biso   1.000  H
  H164     1.0000 0.25000  0.03050  0.80310  Biso   1.000  H
  H165     1.0000 0.25890  0.09700  0.80290  Biso   1.000  H
  N43      1.0000 0.26141  0.27654  0.68339  Biso   1.000  N
  N44      1.0000 0.21767  0.29385  0.65538  Biso   1.000  N
  H166     1.0000 0.18220  0.28710  0.66140  Biso   1.000  H
  N45      1.0000 0.39547  0.36081  0.52674  Biso   1.000  N
  H167     1.0000 0.41720  0.35320  0.50300  Biso   1.000  H
  N46      1.0000 0.38778  0.41378  0.54442  Biso   1.000  N
  N47      1.0000 0.19096  0.12055  0.73263  Biso   1.000  N
  N48      1.0000 0.14189  0.11204  0.70779  Biso   1.000  N
  H168     1.0000 0.12550  0.13790  0.69090  Biso   1.000  H
  Ag9      1.0000 0.94298  0.50306  0.52653  Biso   1.000  Ag
  C121     1.0000 0.09610  0.44611  0.66872  Biso   1.000  C
  H169     1.0000 0.07710  0.40980  0.66630  Biso   1.000  H
  H170     1.0000 0.09020  0.46170  0.69980  Biso   1.000  H
  H171     1.0000 0.13640  0.44100  0.66330  Biso   1.000  H
  C122     1.0000 0.07255  0.48590  0.63270  Biso   1.000  C
  C123     1.0000 0.07411  0.54517  0.63003  Biso   1.000  C
  C124     1.0000 0.04527  0.55893  0.58819  Biso   1.000  C
  C125     1.0000 0.03530  0.61678  0.56755  Biso   1.000  C
  H172     1.0000 0.02930  0.61340  0.53400  Biso   1.000  H
  H173     1.0000 0.06810  0.64050  0.57340  Biso   1.000  H
  H174     1.0000 0.00220  0.63370  0.58200  Biso   1.000  H
  C126     1.0000 0.20698  0.58150  0.64101  Biso   1.000  C
  H175     1.0000 0.20250  0.59450  0.60890  Biso   1.000  H
  H176     1.0000 0.20880  0.54050  0.64140  Biso   1.000  H
  H177     1.0000 0.24160  0.59690  0.65410  Biso   1.000  H
  C127     1.0000 0.15751  0.60089  0.66980  Biso   1.000  C
  C128     1.0000 0.09957  0.58491  0.66468  Biso   1.000  C
  C129     1.0000 0.07114  0.61510  0.69936  Biso   1.000  C
  C130     1.0000 0.00890  0.61880  0.71101  Biso   1.000  C
  H178     1.0000 0.99360  0.58090  0.71450  Biso   1.000  H
  H179     1.0000 0.98920  0.63820  0.68590  Biso   1.000  H
  H180     1.0000 0.00400  0.63950  0.74010  Biso   1.000  H
  C131     1.0000 0.78950  0.31884  0.56220  Biso   1.000  C
  H181     1.0000 0.78990  0.28740  0.54030  Biso   1.000  H
  H182     1.0000 0.75140  0.32420  0.57410  Biso   1.000  H
  H183     1.0000 0.81480  0.31080  0.58820  Biso   1.000  H
  C132     1.0000 0.80863  0.37196  0.53740  Biso   1.000  C
  C133     1.0000 0.78043  0.40977  0.50758  Biso   1.000  C
  C134     1.0000 0.82064  0.45201  0.49648  Biso   1.000  C
  C135     1.0000 0.81374  0.50409  0.46666  Biso   1.000  C
  H184     1.0000 0.80930  0.53690  0.48680  Biso   1.000  H
  H185     1.0000 0.78050  0.50000  0.44690  Biso   1.000  H
  H186     1.0000 0.84700  0.50890  0.44710  Biso   1.000  H
  N49      1.0000 0.02654  0.51141  0.56661  Biso   1.000  N
  N50      1.0000 0.04385  0.46767  0.59462  Biso   1.000  N
  H187     1.0000 0.03710  0.43220  0.58860  Biso   1.000  H
  N51      1.0000 0.11081  0.64547  0.72326  Biso   1.000  N
  H188     1.0000 0.10320  0.66720  0.74700  Biso   1.000  H
  N52      1.0000 0.16378  0.63778  0.70558  Biso   1.000  N
  N53      1.0000 0.87055  0.44096  0.51737  Biso   1.000  N
  N54      1.0000 0.86204  0.39189  0.54221  Biso   1.000  N
  H189     1.0000 0.88790  0.37550  0.55910  Biso   1.000  H
  Ag10     1.0000 0.44298  0.00306  0.02653  Biso   1.000  Ag
  C136     1.0000 0.59610  0.94611  0.16872  Biso   1.000  C
  H190     1.0000 0.57710  0.90980  0.16630  Biso   1.000  H
  H191     1.0000 0.59020  0.96170  0.19980  Biso   1.000  H
  H192     1.0000 0.63640  0.94100  0.16330  Biso   1.000  H
  C137     1.0000 0.57255  0.98590  0.13270  Biso   1.000  C
  C138     1.0000 0.57411  0.04517  0.13003  Biso   1.000  C
  C139     1.0000 0.54527  0.05893  0.08819  Biso   1.000  C
  C140     1.0000 0.53530  0.11678  0.06755  Biso   1.000  C
  H193     1.0000 0.52930  0.11340  0.03400  Biso   1.000  H
  H194     1.0000 0.56810  0.14050  0.07340  Biso   1.000  H
  H195     1.0000 0.50220  0.13370  0.08200  Biso   1.000  H
  C141     1.0000 0.70698  0.08150  0.14101  Biso   1.000  C
  H196     1.0000 0.70250  0.09450  0.10890  Biso   1.000  H
  H197     1.0000 0.70880  0.04050  0.14140  Biso   1.000  H
  H198     1.0000 0.74160  0.09690  0.15410  Biso   1.000  H
  C142     1.0000 0.65751  0.10089  0.16980  Biso   1.000  C
  C143     1.0000 0.59957  0.08491  0.16468  Biso   1.000  C
  C144     1.0000 0.57114  0.11510  0.19936  Biso   1.000  C
  C145     1.0000 0.50890  0.11880  0.21101  Biso   1.000  C
  H199     1.0000 0.49360  0.08090  0.21450  Biso   1.000  H
  H200     1.0000 0.48920  0.13820  0.18590  Biso   1.000  H
  H201     1.0000 0.50400  0.13950  0.24010  Biso   1.000  H
  C146     1.0000 0.28950  0.81884  0.06220  Biso   1.000  C
  H202     1.0000 0.28990  0.78740  0.04030  Biso   1.000  H
  H203     1.0000 0.25140  0.82420  0.07410  Biso   1.000  H
  H204     1.0000 0.31480  0.81080  0.08820  Biso   1.000  H
  C147     1.0000 0.30863  0.87196  0.03740  Biso   1.000  C
  C148     1.0000 0.28043  0.90977  0.00758  Biso   1.000  C
  C149     1.0000 0.32064  0.95201  0.99648  Biso   1.000  C
  C150     1.0000 0.31374  0.00409  0.96666  Biso   1.000  C
  H205     1.0000 0.30930  0.03690  0.98680  Biso   1.000  H
  H206     1.0000 0.28050  0.00000  0.94690  Biso   1.000  H
  H207     1.0000 0.34700  0.00890  0.94710  Biso   1.000  H
  N55      1.0000 0.52654  0.01141  0.06661  Biso   1.000  N
  N56      1.0000 0.54385  0.96767  0.09462  Biso   1.000  N
  H208     1.0000 0.53710  0.93220  0.08860  Biso   1.000  H
  N57      1.0000 0.61081  0.14547  0.22326  Biso   1.000  N
  H209     1.0000 0.60320  0.16720  0.24700  Biso   1.000  H
  N58      1.0000 0.66378  0.13778  0.20558  Biso   1.000  N
  N59      1.0000 0.37055  0.94096  0.01737  Biso   1.000  N
  N60      1.0000 0.36204  0.89189  0.04221  Biso   1.000  N
  H210     1.0000 0.38790  0.87550  0.05910  Biso   1.000  H
  Ag11     1.0000 0.55702  0.49694  0.02653  Biso   1.000  Ag
  C151     1.0000 0.40390  0.55389  0.16872  Biso   1.000  C
  H211     1.0000 0.42290  0.59020  0.16630  Biso   1.000  H
  H212     1.0000 0.40980  0.53830  0.19980  Biso   1.000  H
  H213     1.0000 0.36360  0.55900  0.16330  Biso   1.000  H
  C152     1.0000 0.42745  0.51410  0.13270  Biso   1.000  C
  C153     1.0000 0.42589  0.45483  0.13003  Biso   1.000  C
  C154     1.0000 0.45473  0.44107  0.08819  Biso   1.000  C
  C155     1.0000 0.46470  0.38322  0.06755  Biso   1.000  C
  H214     1.0000 0.47070  0.38660  0.03400  Biso   1.000  H
  H215     1.0000 0.43190  0.35950  0.07340  Biso   1.000  H
  H216     1.0000 0.49780  0.36630  0.08200  Biso   1.000  H
  C156     1.0000 0.29302  0.41850  0.14101  Biso   1.000  C
  H217     1.0000 0.29750  0.40550  0.10890  Biso   1.000  H
  H218     1.0000 0.29120  0.45950  0.14140  Biso   1.000  H
  H219     1.0000 0.25840  0.40310  0.15410  Biso   1.000  H
  C157     1.0000 0.34249  0.39911  0.16980  Biso   1.000  C
  C158     1.0000 0.40043  0.41509  0.16468  Biso   1.000  C
  C159     1.0000 0.42886  0.38490  0.19936  Biso   1.000  C
  C160     1.0000 0.49110  0.38120  0.21101  Biso   1.000  C
  H220     1.0000 0.50640  0.41910  0.21450  Biso   1.000  H
  H221     1.0000 0.51080  0.36180  0.18590  Biso   1.000  H
  H222     1.0000 0.49600  0.36050  0.24010  Biso   1.000  H
  C161     1.0000 0.71050  0.68116  0.06220  Biso   1.000  C
  H223     1.0000 0.71010  0.71260  0.04030  Biso   1.000  H
  H224     1.0000 0.74860  0.67580  0.07410  Biso   1.000  H
  H225     1.0000 0.68520  0.68920  0.08820  Biso   1.000  H
  C162     1.0000 0.69137  0.62804  0.03740  Biso   1.000  C
  C163     1.0000 0.71957  0.59023  0.00758  Biso   1.000  C
  C164     1.0000 0.67936  0.54799  0.99648  Biso   1.000  C
  C165     1.0000 0.68626  0.49591  0.96666  Biso   1.000  C
  H226     1.0000 0.69070  0.46310  0.98680  Biso   1.000  H
  H227     1.0000 0.71950  0.50000  0.94690  Biso   1.000  H
  H228     1.0000 0.65300  0.49110  0.94710  Biso   1.000  H
  N61      1.0000 0.47346  0.48859  0.06661  Biso   1.000  N
  N62      1.0000 0.45615  0.53233  0.09462  Biso   1.000  N
  H229     1.0000 0.46290  0.56780  0.08860  Biso   1.000  H
  N63      1.0000 0.38919  0.35453  0.22326  Biso   1.000  N
  H230     1.0000 0.39680  0.33280  0.24700  Biso   1.000  H
  N64      1.0000 0.33622  0.36222  0.20558  Biso   1.000  N
  N65      1.0000 0.62945  0.55904  0.01737  Biso   1.000  N
  N66      1.0000 0.63796  0.60811  0.04221  Biso   1.000  N
  H231     1.0000 0.61210  0.62450  0.05910  Biso   1.000  H
  Ag12     1.0000 0.05702  0.99694  0.52653  Biso   1.000  Ag
  C166     1.0000 0.90390  0.05389  0.66872  Biso   1.000  C
  H232     1.0000 0.92290  0.09020  0.66630  Biso   1.000  H
  H233     1.0000 0.90980  0.03830  0.69980  Biso   1.000  H
  H234     1.0000 0.86360  0.05900  0.66330  Biso   1.000  H
  C167     1.0000 0.92745  0.01410  0.63270  Biso   1.000  C
  C168     1.0000 0.92589  0.95483  0.63003  Biso   1.000  C
  C169     1.0000 0.95473  0.94107  0.58819  Biso   1.000  C
  C170     1.0000 0.96470  0.88322  0.56755  Biso   1.000  C
  H235     1.0000 0.97070  0.88660  0.53400  Biso   1.000  H
  H236     1.0000 0.93190  0.85950  0.57340  Biso   1.000  H
  H237     1.0000 0.99780  0.86630  0.58200  Biso   1.000  H
  C171     1.0000 0.79302  0.91850  0.64101  Biso   1.000  C
  H238     1.0000 0.79750  0.90550  0.60890  Biso   1.000  H
  H239     1.0000 0.79120  0.95950  0.64140  Biso   1.000  H
  H240     1.0000 0.75840  0.90310  0.65410  Biso   1.000  H
  C172     1.0000 0.84249  0.89911  0.66980  Biso   1.000  C
  C173     1.0000 0.90043  0.91509  0.66468  Biso   1.000  C
  C174     1.0000 0.92886  0.88490  0.69936  Biso   1.000  C
  C175     1.0000 0.99110  0.88120  0.71101  Biso   1.000  C
  H241     1.0000 0.00640  0.91910  0.71450  Biso   1.000  H
  H242     1.0000 0.01080  0.86180  0.68590  Biso   1.000  H
  H243     1.0000 0.99600  0.86050  0.74010  Biso   1.000  H
  C176     1.0000 0.21050  0.18116  0.56220  Biso   1.000  C
  H244     1.0000 0.21010  0.21260  0.54030  Biso   1.000  H
  H245     1.0000 0.24860  0.17580  0.57410  Biso   1.000  H
  H246     1.0000 0.18520  0.18920  0.58820  Biso   1.000  H
  C177     1.0000 0.19137  0.12804  0.53740  Biso   1.000  C
  C178     1.0000 0.21957  0.09023  0.50758  Biso   1.000  C
  C179     1.0000 0.17936  0.04799  0.49648  Biso   1.000  C
  C180     1.0000 0.18626  0.99591  0.46666  Biso   1.000  C
  H247     1.0000 0.19070  0.96310  0.48680  Biso   1.000  H
  H248     1.0000 0.21950  0.00000  0.44690  Biso   1.000  H
  H249     1.0000 0.15300  0.99110  0.44710  Biso   1.000  H
  N67      1.0000 0.97346  0.98859  0.56661  Biso   1.000  N
  N68      1.0000 0.95615  0.03233  0.59462  Biso   1.000  N
  H250     1.0000 0.96290  0.06780  0.58860  Biso   1.000  H
  N69      1.0000 0.88919  0.85453  0.72326  Biso   1.000  N
  H251     1.0000 0.89680  0.83280  0.74700  Biso   1.000  H
  N70      1.0000 0.83622  0.86222  0.70558  Biso   1.000  N
  N71      1.0000 0.12945  0.05904  0.51737  Biso   1.000  N
  N72      1.0000 0.13796  0.10811  0.54221  Biso   1.000  N
  H252     1.0000 0.11210  0.12450  0.55910  Biso   1.000  H
  Ag13     1.0000 0.75306  0.30702  0.27653  Biso   1.000  Ag
  C181     1.0000 0.69611  0.15390  0.41872  Biso   1.000  C
  H253     1.0000 0.65980  0.17290  0.41630  Biso   1.000  H
  H254     1.0000 0.71170  0.15980  0.44980  Biso   1.000  H
  H255     1.0000 0.69100  0.11360  0.41330  Biso   1.000  H
  C182     1.0000 0.73590  0.17745  0.38270  Biso   1.000  C
  C183     1.0000 0.79517  0.17589  0.38003  Biso   1.000  C
  C184     1.0000 0.80893  0.20473  0.33819  Biso   1.000  C
  C185     1.0000 0.86678  0.21470  0.31755  Biso   1.000  C
  H256     1.0000 0.86340  0.22070  0.28400  Biso   1.000  H
  H257     1.0000 0.89050  0.18190  0.32340  Biso   1.000  H
  H258     1.0000 0.88370  0.24780  0.33200  Biso   1.000  H
  C186     1.0000 0.83150  0.04302  0.39101  Biso   1.000  C
  H259     1.0000 0.84450  0.04750  0.35890  Biso   1.000  H
  H260     1.0000 0.79050  0.04120  0.39140  Biso   1.000  H
  H261     1.0000 0.84690  0.00840  0.40410  Biso   1.000  H
  C187     1.0000 0.85089  0.09249  0.41980  Biso   1.000  C
  C188     1.0000 0.83491  0.15043  0.41468  Biso   1.000  C
  C189     1.0000 0.86510  0.17886  0.44936  Biso   1.000  C
  C190     1.0000 0.86880  0.24110  0.46101  Biso   1.000  C
  H262     1.0000 0.83090  0.25640  0.46450  Biso   1.000  H
  H263     1.0000 0.88820  0.26080  0.43590  Biso   1.000  H
  H264     1.0000 0.88950  0.24600  0.49010  Biso   1.000  H
  C191     1.0000 0.56884  0.46050  0.31220  Biso   1.000  C
  H265     1.0000 0.53740  0.46010  0.29030  Biso   1.000  H
  H266     1.0000 0.57420  0.49860  0.32410  Biso   1.000  H
  H267     1.0000 0.56080  0.43520  0.33820  Biso   1.000  H
  C192     1.0000 0.62196  0.44137  0.28740  Biso   1.000  C
  C193     1.0000 0.65977  0.46957  0.25758  Biso   1.000  C
  C194     1.0000 0.70201  0.42936  0.24648  Biso   1.000  C
  C195     1.0000 0.75409  0.43626  0.21666  Biso   1.000  C
  H268     1.0000 0.78690  0.44070  0.23680  Biso   1.000  H
  H269     1.0000 0.75000  0.46950  0.19690  Biso   1.000  H
  H270     1.0000 0.75890  0.40300  0.19710  Biso   1.000  H
  N73      1.0000 0.76141  0.22346  0.31661  Biso   1.000  N
  N74      1.0000 0.71767  0.20615  0.34462  Biso   1.000  N
  H271     1.0000 0.68220  0.21290  0.33860  Biso   1.000  H
  N75      1.0000 0.89547  0.13919  0.47326  Biso   1.000  N
  H272     1.0000 0.91720  0.14680  0.49700  Biso   1.000  H
  N76      1.0000 0.88778  0.08622  0.45558  Biso   1.000  N
  N77      1.0000 0.69096  0.37945  0.26737  Biso   1.000  N
  N78      1.0000 0.64189  0.38796  0.29221  Biso   1.000  N
  H273     1.0000 0.62550  0.36210  0.30910  Biso   1.000  H
  Ag14     1.0000 0.25306  0.80702  0.77653  Biso   1.000  Ag
  C196     1.0000 0.19611  0.65390  0.91872  Biso   1.000  C
  H274     1.0000 0.15980  0.67290  0.91630  Biso   1.000  H
  H275     1.0000 0.21170  0.65980  0.94980  Biso   1.000  H
  H276     1.0000 0.19100  0.61360  0.91330  Biso   1.000  H
  C197     1.0000 0.23590  0.67745  0.88270  Biso   1.000  C
  C198     1.0000 0.29517  0.67589  0.88003  Biso   1.000  C
  C199     1.0000 0.30893  0.70473  0.83819  Biso   1.000  C
  C200     1.0000 0.36678  0.71470  0.81755  Biso   1.000  C
  H277     1.0000 0.36340  0.72070  0.78400  Biso   1.000  H
  H278     1.0000 0.39050  0.68190  0.82340  Biso   1.000  H
  H279     1.0000 0.38370  0.74780  0.83200  Biso   1.000  H
  C201     1.0000 0.33150  0.54302  0.89101  Biso   1.000  C
  H280     1.0000 0.34450  0.54750  0.85890  Biso   1.000  H
  H281     1.0000 0.29050  0.54120  0.89140  Biso   1.000  H
  H282     1.0000 0.34690  0.50840  0.90410  Biso   1.000  H
  C202     1.0000 0.35089  0.59249  0.91980  Biso   1.000  C
  C203     1.0000 0.33491  0.65043  0.91468  Biso   1.000  C
  C204     1.0000 0.36510  0.67886  0.94936  Biso   1.000  C
  C205     1.0000 0.36880  0.74110  0.96101  Biso   1.000  C
  H283     1.0000 0.33090  0.75640  0.96450  Biso   1.000  H
  H284     1.0000 0.38820  0.76080  0.93590  Biso   1.000  H
  H285     1.0000 0.38950  0.74600  0.99010  Biso   1.000  H
  C206     1.0000 0.06884  0.96050  0.81220  Biso   1.000  C
  H286     1.0000 0.03740  0.96010  0.79030  Biso   1.000  H
  H287     1.0000 0.07420  0.99860  0.82410  Biso   1.000  H
  H288     1.0000 0.06080  0.93520  0.83820  Biso   1.000  H
  C207     1.0000 0.12196  0.94137  0.78740  Biso   1.000  C
  C208     1.0000 0.15977  0.96957  0.75758  Biso   1.000  C
  C209     1.0000 0.20201  0.92936  0.74648  Biso   1.000  C
  C210     1.0000 0.25409  0.93626  0.71666  Biso   1.000  C
  H289     1.0000 0.28690  0.94070  0.73680  Biso   1.000  H
  H290     1.0000 0.25000  0.96950  0.69690  Biso   1.000  H
  H291     1.0000 0.25890  0.90300  0.69710  Biso   1.000  H
  N79      1.0000 0.26141  0.72346  0.81661  Biso   1.000  N
  N80      1.0000 0.21767  0.70615  0.84462  Biso   1.000  N
  H292     1.0000 0.18220  0.71290  0.83860  Biso   1.000  H
  N81      1.0000 0.39547  0.63919  0.97326  Biso   1.000  N
  H293     1.0000 0.41720  0.64680  0.99700  Biso   1.000  H
  N82      1.0000 0.38778  0.58622  0.95558  Biso   1.000  N
  N83      1.0000 0.19096  0.87945  0.76737  Biso   1.000  N
  N84      1.0000 0.14189  0.88796  0.79221  Biso   1.000  N
  H294     1.0000 0.12550  0.86210  0.80910  Biso   1.000  H
  Ag15     1.0000 0.74694  0.69298  0.77653  Biso   1.000  Ag
  C211     1.0000 0.80389  0.84610  0.91872  Biso   1.000  C
  H295     1.0000 0.84020  0.82710  0.91630  Biso   1.000  H
  H296     1.0000 0.78830  0.84020  0.94980  Biso   1.000  H
  H297     1.0000 0.80900  0.88640  0.91330  Biso   1.000  H
  C212     1.0000 0.76410  0.82255  0.88270  Biso   1.000  C
  C213     1.0000 0.70483  0.82411  0.88003  Biso   1.000  C
  C214     1.0000 0.69107  0.79527  0.83819  Biso   1.000  C
  C215     1.0000 0.63322  0.78530  0.81755  Biso   1.000  C
  H298     1.0000 0.63660  0.77930  0.78400  Biso   1.000  H
  H299     1.0000 0.60950  0.81810  0.82340  Biso   1.000  H
  H300     1.0000 0.61630  0.75220  0.83200  Biso   1.000  H
  C216     1.0000 0.66850  0.95698  0.89101  Biso   1.000  C
  H301     1.0000 0.65550  0.95250  0.85890  Biso   1.000  H
  H302     1.0000 0.70950  0.95880  0.89140  Biso   1.000  H
  H303     1.0000 0.65310  0.99160  0.90410  Biso   1.000  H
  C217     1.0000 0.64911  0.90751  0.91980  Biso   1.000  C
  C218     1.0000 0.66509  0.84957  0.91468  Biso   1.000  C
  C219     1.0000 0.63490  0.82114  0.94936  Biso   1.000  C
  C220     1.0000 0.63120  0.75890  0.96101  Biso   1.000  C
  H304     1.0000 0.66910  0.74360  0.96450  Biso   1.000  H
  H305     1.0000 0.61180  0.73920  0.93590  Biso   1.000  H
  H306     1.0000 0.61050  0.75400  0.99010  Biso   1.000  H
  C221     1.0000 0.93116  0.53950  0.81220  Biso   1.000  C
  H307     1.0000 0.96260  0.53990  0.79030  Biso   1.000  H
  H308     1.0000 0.92580  0.50140  0.82410  Biso   1.000  H
  H309     1.0000 0.93920  0.56480  0.83820  Biso   1.000  H
  C222     1.0000 0.87804  0.55863  0.78740  Biso   1.000  C
  C223     1.0000 0.84023  0.53043  0.75758  Biso   1.000  C
  C224     1.0000 0.79799  0.57064  0.74648  Biso   1.000  C
  C225     1.0000 0.74591  0.56374  0.71666  Biso   1.000  C
  H310     1.0000 0.71310  0.55930  0.73680  Biso   1.000  H
  H311     1.0000 0.75000  0.53050  0.69690  Biso   1.000  H
  H312     1.0000 0.74110  0.59700  0.69710  Biso   1.000  H
  N85      1.0000 0.73859  0.77654  0.81661  Biso   1.000  N
  N86      1.0000 0.78233  0.79385  0.84462  Biso   1.000  N
  H313     1.0000 0.81780  0.78710  0.83860  Biso   1.000  H
  N87      1.0000 0.60453  0.86081  0.97326  Biso   1.000  N
  H314     1.0000 0.58280  0.85320  0.99700  Biso   1.000  H
  N88      1.0000 0.61222  0.91378  0.95558  Biso   1.000  N
  N89      1.0000 0.80904  0.62055  0.76737  Biso   1.000  N
  N90      1.0000 0.85811  0.61204  0.79221  Biso   1.000  N
  H315     1.0000 0.87450  0.63790  0.80910  Biso   1.000  H
  Ag16     1.0000 0.24694  0.19298  0.27653  Biso   1.000  Ag
  C226     1.0000 0.30389  0.34610  0.41872  Biso   1.000  C
  H316     1.0000 0.34020  0.32710  0.41630  Biso   1.000  H
  H317     1.0000 0.28830  0.34020  0.44980  Biso   1.000  H
  H318     1.0000 0.30900  0.38640  0.41330  Biso   1.000  H
  C227     1.0000 0.26410  0.32255  0.38270  Biso   1.000  C
  C228     1.0000 0.20483  0.32411  0.38003  Biso   1.000  C
  C229     1.0000 0.19107  0.29527  0.33819  Biso   1.000  C
  C230     1.0000 0.13322  0.28530  0.31755  Biso   1.000  C
  H319     1.0000 0.13660  0.27930  0.28400  Biso   1.000  H
  H320     1.0000 0.10950  0.31810  0.32340  Biso   1.000  H
  H321     1.0000 0.11630  0.25220  0.33200  Biso   1.000  H
  C231     1.0000 0.16850  0.45698  0.39101  Biso   1.000  C
  H322     1.0000 0.15550  0.45250  0.35890  Biso   1.000  H
  H323     1.0000 0.20950  0.45880  0.39140  Biso   1.000  H
  H324     1.0000 0.15310  0.49160  0.40410  Biso   1.000  H
  C232     1.0000 0.14911  0.40751  0.41980  Biso   1.000  C
  C233     1.0000 0.16509  0.34957  0.41468  Biso   1.000  C
  C234     1.0000 0.13490  0.32114  0.44936  Biso   1.000  C
  C235     1.0000 0.13120  0.25890  0.46101  Biso   1.000  C
  H325     1.0000 0.16910  0.24360  0.46450  Biso   1.000  H
  H326     1.0000 0.11180  0.23920  0.43590  Biso   1.000  H
  H327     1.0000 0.11050  0.25400  0.49010  Biso   1.000  H
  C236     1.0000 0.43116  0.03950  0.31220  Biso   1.000  C
  H328     1.0000 0.46260  0.03990  0.29030  Biso   1.000  H
  H329     1.0000 0.42580  0.00140  0.32410  Biso   1.000  H
  H330     1.0000 0.43920  0.06480  0.33820  Biso   1.000  H
  C237     1.0000 0.37804  0.05863  0.28740  Biso   1.000  C
  C238     1.0000 0.34023  0.03043  0.25758  Biso   1.000  C
  C239     1.0000 0.29799  0.07064  0.24648  Biso   1.000  C
  C240     1.0000 0.24591  0.06374  0.21666  Biso   1.000  C
  H331     1.0000 0.21310  0.05930  0.23680  Biso   1.000  H
  H332     1.0000 0.25000  0.03050  0.19690  Biso   1.000  H
  H333     1.0000 0.24110  0.09700  0.19710  Biso   1.000  H
  N91      1.0000 0.23859  0.27654  0.31661  Biso   1.000  N
  N92      1.0000 0.28233  0.29385  0.34462  Biso   1.000  N
  H334     1.0000 0.31780  0.28710  0.33860  Biso   1.000  H
  N93      1.0000 0.10453  0.36081  0.47326  Biso   1.000  N
  H335     1.0000 0.08280  0.35320  0.49700  Biso   1.000  H
  N94      1.0000 0.11222  0.41378  0.45558  Biso   1.000  N
  N95      1.0000 0.30904  0.12055  0.26737  Biso   1.000  N
  N96      1.0000 0.35811  0.11204  0.29221  Biso   1.000  N
  H336     1.0000 0.37450  0.13790  0.30910  Biso   1.000  H
  Ag17     1.0000 0.44298  0.49694  0.52653  Biso   1.000  Ag
  C241     1.0000 0.59610  0.55389  0.66872  Biso   1.000  C
  H337     1.0000 0.57710  0.59020  0.66630  Biso   1.000  H
  H338     1.0000 0.59020  0.53830  0.69980  Biso   1.000  H
  H339     1.0000 0.63640  0.55900  0.66330  Biso   1.000  H
  C242     1.0000 0.57255  0.51410  0.63270  Biso   1.000  C
  C243     1.0000 0.57411  0.45483  0.63003  Biso   1.000  C
  C244     1.0000 0.54527  0.44107  0.58819  Biso   1.000  C
  C245     1.0000 0.53530  0.38322  0.56755  Biso   1.000  C
  H340     1.0000 0.52930  0.38660  0.53400  Biso   1.000  H
  H341     1.0000 0.56810  0.35950  0.57340  Biso   1.000  H
  H342     1.0000 0.50220  0.36630  0.58200  Biso   1.000  H
  C246     1.0000 0.70698  0.41850  0.64101  Biso   1.000  C
  H343     1.0000 0.70250  0.40550  0.60890  Biso   1.000  H
  H344     1.0000 0.70880  0.45950  0.64140  Biso   1.000  H
  H345     1.0000 0.74160  0.40310  0.65410  Biso   1.000  H
  C247     1.0000 0.65751  0.39911  0.66980  Biso   1.000  C
  C248     1.0000 0.59957  0.41509  0.66468  Biso   1.000  C
  C249     1.0000 0.57114  0.38490  0.69936  Biso   1.000  C
  C250     1.0000 0.50890  0.38120  0.71101  Biso   1.000  C
  H346     1.0000 0.49360  0.41910  0.71450  Biso   1.000  H
  H347     1.0000 0.48920  0.36180  0.68590  Biso   1.000  H
  H348     1.0000 0.50400  0.36050  0.74010  Biso   1.000  H
  C251     1.0000 0.28950  0.68116  0.56220  Biso   1.000  C
  H349     1.0000 0.28990  0.71260  0.54030  Biso   1.000  H
  H350     1.0000 0.25140  0.67580  0.57410  Biso   1.000  H
  H351     1.0000 0.31480  0.68920  0.58820  Biso   1.000  H
  C252     1.0000 0.30863  0.62804  0.53740  Biso   1.000  C
  C253     1.0000 0.28043  0.59023  0.50758  Biso   1.000  C
  C254     1.0000 0.32064  0.54799  0.49648  Biso   1.000  C
  C255     1.0000 0.31374  0.49591  0.46666  Biso   1.000  C
  H352     1.0000 0.30930  0.46310  0.48680  Biso   1.000  H
  H353     1.0000 0.28050  0.50000  0.44690  Biso   1.000  H
  H354     1.0000 0.34700  0.49110  0.44710  Biso   1.000  H
  N97      1.0000 0.52654  0.48859  0.56661  Biso   1.000  N
  N98      1.0000 0.54385  0.53233  0.59462  Biso   1.000  N
  H355     1.0000 0.53710  0.56780  0.58860  Biso   1.000  H
  N99      1.0000 0.61081  0.35453  0.72326  Biso   1.000  N
  H356     1.0000 0.60320  0.33280  0.74700  Biso   1.000  H
  N100     1.0000 0.66378  0.36222  0.70558  Biso   1.000  N
  N101     1.0000 0.37055  0.55904  0.51737  Biso   1.000  N
  N102     1.0000 0.36204  0.60811  0.54221  Biso   1.000  N
  H357     1.0000 0.38790  0.62450  0.55910  Biso   1.000  H
  Ag18     1.0000 0.94298  0.99694  0.02653  Biso   1.000  Ag
  C256     1.0000 0.09610  0.05389  0.16872  Biso   1.000  C
  H358     1.0000 0.07710  0.09020  0.16630  Biso   1.000  H
  H359     1.0000 0.09020  0.03830  0.19980  Biso   1.000  H
  H360     1.0000 0.13640  0.05900  0.16330  Biso   1.000  H
  C257     1.0000 0.07255  0.01410  0.13270  Biso   1.000  C
  C258     1.0000 0.07411  0.95483  0.13003  Biso   1.000  C
  C259     1.0000 0.04527  0.94107  0.08819  Biso   1.000  C
  C260     1.0000 0.03530  0.88322  0.06755  Biso   1.000  C
  H361     1.0000 0.02930  0.88660  0.03400  Biso   1.000  H
  H362     1.0000 0.06810  0.85950  0.07340  Biso   1.000  H
  H363     1.0000 0.00220  0.86630  0.08200  Biso   1.000  H
  C261     1.0000 0.20698  0.91850  0.14101  Biso   1.000  C
  H364     1.0000 0.20250  0.90550  0.10890  Biso   1.000  H
  H365     1.0000 0.20880  0.95950  0.14140  Biso   1.000  H
  H366     1.0000 0.24160  0.90310  0.15410  Biso   1.000  H
  C262     1.0000 0.15751  0.89911  0.16980  Biso   1.000  C
  C263     1.0000 0.09957  0.91509  0.16468  Biso   1.000  C
  C264     1.0000 0.07114  0.88490  0.19936  Biso   1.000  C
  C265     1.0000 0.00890  0.88120  0.21101  Biso   1.000  C
  H367     1.0000 0.99360  0.91910  0.21450  Biso   1.000  H
  H368     1.0000 0.98920  0.86180  0.18590  Biso   1.000  H
  H369     1.0000 0.00400  0.86050  0.24010  Biso   1.000  H
  C266     1.0000 0.78950  0.18116  0.06220  Biso   1.000  C
  H370     1.0000 0.78990  0.21260  0.04030  Biso   1.000  H
  H371     1.0000 0.75140  0.17580  0.07410  Biso   1.000  H
  H372     1.0000 0.81480  0.18920  0.08820  Biso   1.000  H
  C267     1.0000 0.80863  0.12804  0.03740  Biso   1.000  C
  C268     1.0000 0.78043  0.09023  0.00758  Biso   1.000  C
  C269     1.0000 0.82064  0.04799  0.99648  Biso   1.000  C
  C270     1.0000 0.81374  0.99591  0.96666  Biso   1.000  C
  H373     1.0000 0.80930  0.96310  0.98680  Biso   1.000  H
  H374     1.0000 0.78050  0.00000  0.94690  Biso   1.000  H
  H375     1.0000 0.84700  0.99110  0.94710  Biso   1.000  H
  N103     1.0000 0.02654  0.98859  0.06661  Biso   1.000  N
  N104     1.0000 0.04385  0.03233  0.09462  Biso   1.000  N
  H376     1.0000 0.03710  0.06780  0.08860  Biso   1.000  H
  N105     1.0000 0.11081  0.85453  0.22326  Biso   1.000  N
  H377     1.0000 0.10320  0.83280  0.24700  Biso   1.000  H
  N106     1.0000 0.16378  0.86222  0.20558  Biso   1.000  N
  N107     1.0000 0.87055  0.05904  0.01737  Biso   1.000  N
  N108     1.0000 0.86204  0.10811  0.04221  Biso   1.000  N
  H378     1.0000 0.88790  0.12450  0.05910  Biso   1.000  H
  Ag19     1.0000 0.05702  0.50306  0.02653  Biso   1.000  Ag
  C271     1.0000 0.90390  0.44611  0.16872  Biso   1.000  C
  H379     1.0000 0.92290  0.40980  0.16630  Biso   1.000  H
  H380     1.0000 0.90980  0.46170  0.19980  Biso   1.000  H
  H381     1.0000 0.86360  0.44100  0.16330  Biso   1.000  H
  C272     1.0000 0.92745  0.48590  0.13270  Biso   1.000  C
  C273     1.0000 0.92589  0.54517  0.13003  Biso   1.000  C
  C274     1.0000 0.95473  0.55893  0.08819  Biso   1.000  C
  C275     1.0000 0.96470  0.61678  0.06755  Biso   1.000  C
  H382     1.0000 0.97070  0.61340  0.03400  Biso   1.000  H
  H383     1.0000 0.93190  0.64050  0.07340  Biso   1.000  H
  H384     1.0000 0.99780  0.63370  0.08200  Biso   1.000  H
  C276     1.0000 0.79302  0.58150  0.14101  Biso   1.000  C
  H385     1.0000 0.79750  0.59450  0.10890  Biso   1.000  H
  H386     1.0000 0.79120  0.54050  0.14140  Biso   1.000  H
  H387     1.0000 0.75840  0.59690  0.15410  Biso   1.000  H
  C277     1.0000 0.84249  0.60089  0.16980  Biso   1.000  C
  C278     1.0000 0.90043  0.58491  0.16468  Biso   1.000  C
  C279     1.0000 0.92886  0.61510  0.19936  Biso   1.000  C
  C280     1.0000 0.99110  0.61880  0.21101  Biso   1.000  C
  H388     1.0000 0.00640  0.58090  0.21450  Biso   1.000  H
  H389     1.0000 0.01080  0.63820  0.18590  Biso   1.000  H
  H390     1.0000 0.99600  0.63950  0.24010  Biso   1.000  H
  C281     1.0000 0.21050  0.31884  0.06220  Biso   1.000  C
  H391     1.0000 0.21010  0.28740  0.04030  Biso   1.000  H
  H392     1.0000 0.24860  0.32420  0.07410  Biso   1.000  H
  H393     1.0000 0.18520  0.31080  0.08820  Biso   1.000  H
  C282     1.0000 0.19137  0.37196  0.03740  Biso   1.000  C
  C283     1.0000 0.21957  0.40977  0.00758  Biso   1.000  C
  C284     1.0000 0.17936  0.45201  0.99648  Biso   1.000  C
  C285     1.0000 0.18626  0.50409  0.96666  Biso   1.000  C
  H394     1.0000 0.19070  0.53690  0.98680  Biso   1.000  H
  H395     1.0000 0.21950  0.50000  0.94690  Biso   1.000  H
  H396     1.0000 0.15300  0.50890  0.94710  Biso   1.000  H
  N109     1.0000 0.97346  0.51141  0.06661  Biso   1.000  N
  N110     1.0000 0.95615  0.46767  0.09462  Biso   1.000  N
  H397     1.0000 0.96290  0.43220  0.08860  Biso   1.000  H
  N111     1.0000 0.88919  0.64547  0.22326  Biso   1.000  N
  H398     1.0000 0.89680  0.66720  0.24700  Biso   1.000  H
  N112     1.0000 0.83622  0.63778  0.20558  Biso   1.000  N
  N113     1.0000 0.12945  0.44096  0.01737  Biso   1.000  N
  N114     1.0000 0.13796  0.39189  0.04221  Biso   1.000  N
  H399     1.0000 0.11210  0.37550  0.05910  Biso   1.000  H
  Ag20     1.0000 0.55702  0.00306  0.52653  Biso   1.000  Ag
  C286     1.0000 0.40390  0.94611  0.66872  Biso   1.000  C
  H400     1.0000 0.42290  0.90980  0.66630  Biso   1.000  H
  H401     1.0000 0.40980  0.96170  0.69980  Biso   1.000  H
  H402     1.0000 0.36360  0.94100  0.66330  Biso   1.000  H
  C287     1.0000 0.42745  0.98590  0.63270  Biso   1.000  C
  C288     1.0000 0.42589  0.04517  0.63003  Biso   1.000  C
  C289     1.0000 0.45473  0.05893  0.58819  Biso   1.000  C
  C290     1.0000 0.46470  0.11678  0.56755  Biso   1.000  C
  H403     1.0000 0.47070  0.11340  0.53400  Biso   1.000  H
  H404     1.0000 0.43190  0.14050  0.57340  Biso   1.000  H
  H405     1.0000 0.49780  0.13370  0.58200  Biso   1.000  H
  C291     1.0000 0.29302  0.08150  0.64101  Biso   1.000  C
  H406     1.0000 0.29750  0.09450  0.60890  Biso   1.000  H
  H407     1.0000 0.29120  0.04050  0.64140  Biso   1.000  H
  H408     1.0000 0.25840  0.09690  0.65410  Biso   1.000  H
  C292     1.0000 0.34249  0.10089  0.66980  Biso   1.000  C
  C293     1.0000 0.40043  0.08491  0.66468  Biso   1.000  C
  C294     1.0000 0.42886  0.11510  0.69936  Biso   1.000  C
  C295     1.0000 0.49110  0.11880  0.71101  Biso   1.000  C
  H409     1.0000 0.50640  0.08090  0.71450  Biso   1.000  H
  H410     1.0000 0.51080  0.13820  0.68590  Biso   1.000  H
  H411     1.0000 0.49600  0.13950  0.74010  Biso   1.000  H
  C296     1.0000 0.71050  0.81884  0.56220  Biso   1.000  C
  H412     1.0000 0.71010  0.78740  0.54030  Biso   1.000  H
  H413     1.0000 0.74860  0.82420  0.57410  Biso   1.000  H
  H414     1.0000 0.68520  0.81080  0.58820  Biso   1.000  H
  C297     1.0000 0.69137  0.87196  0.53740  Biso   1.000  C
  C298     1.0000 0.71957  0.90977  0.50758  Biso   1.000  C
  C299     1.0000 0.67936  0.95201  0.49648  Biso   1.000  C
  C300     1.0000 0.68626  0.00409  0.46666  Biso   1.000  C
  H415     1.0000 0.69070  0.03690  0.48680  Biso   1.000  H
  H416     1.0000 0.71950  0.00000  0.44690  Biso   1.000  H
  H417     1.0000 0.65300  0.00890  0.44710  Biso   1.000  H
  N115     1.0000 0.47346  0.01141  0.56661  Biso   1.000  N
  N116     1.0000 0.45615  0.96767  0.59462  Biso   1.000  N
  H418     1.0000 0.46290  0.93220  0.58860  Biso   1.000  H
  N117     1.0000 0.38919  0.14547  0.72326  Biso   1.000  N
  H419     1.0000 0.39680  0.16720  0.74700  Biso   1.000  H
  N118     1.0000 0.33622  0.13778  0.70558  Biso   1.000  N
  N119     1.0000 0.62945  0.94096  0.51737  Biso   1.000  N
  N120     1.0000 0.63796  0.89189  0.54221  Biso   1.000  N
  H420     1.0000 0.61210  0.87550  0.55910  Biso   1.000  H
  Ag21     1.0000 0.25306  0.69298  0.27653  Biso   1.000  Ag
  C301     1.0000 0.19611  0.84610  0.41872  Biso   1.000  C
  H421     1.0000 0.15980  0.82710  0.41630  Biso   1.000  H
  H422     1.0000 0.21170  0.84020  0.44980  Biso   1.000  H
  H423     1.0000 0.19100  0.88640  0.41330  Biso   1.000  H
  C302     1.0000 0.23590  0.82255  0.38270  Biso   1.000  C
  C303     1.0000 0.29517  0.82411  0.38003  Biso   1.000  C
  C304     1.0000 0.30893  0.79527  0.33819  Biso   1.000  C
  C305     1.0000 0.36678  0.78530  0.31755  Biso   1.000  C
  H424     1.0000 0.36340  0.77930  0.28400  Biso   1.000  H
  H425     1.0000 0.39050  0.81810  0.32340  Biso   1.000  H
  H426     1.0000 0.38370  0.75220  0.33200  Biso   1.000  H
  C306     1.0000 0.33150  0.95698  0.39101  Biso   1.000  C
  H427     1.0000 0.34450  0.95250  0.35890  Biso   1.000  H
  H428     1.0000 0.29050  0.95880  0.39140  Biso   1.000  H
  H429     1.0000 0.34690  0.99160  0.40410  Biso   1.000  H
  C307     1.0000 0.35089  0.90751  0.41980  Biso   1.000  C
  C308     1.0000 0.33491  0.84957  0.41468  Biso   1.000  C
  C309     1.0000 0.36510  0.82114  0.44936  Biso   1.000  C
  C310     1.0000 0.36880  0.75890  0.46101  Biso   1.000  C
  H430     1.0000 0.33090  0.74360  0.46450  Biso   1.000  H
  H431     1.0000 0.38820  0.73920  0.43590  Biso   1.000  H
  H432     1.0000 0.38950  0.75400  0.49010  Biso   1.000  H
  C311     1.0000 0.06884  0.53950  0.31220  Biso   1.000  C
  H433     1.0000 0.03740  0.53990  0.29030  Biso   1.000  H
  H434     1.0000 0.07420  0.50140  0.32410  Biso   1.000  H
  H435     1.0000 0.06080  0.56480  0.33820  Biso   1.000  H
  C312     1.0000 0.12196  0.55863  0.28740  Biso   1.000  C
  C313     1.0000 0.15977  0.53043  0.25758  Biso   1.000  C
  C314     1.0000 0.20201  0.57064  0.24648  Biso   1.000  C
  C315     1.0000 0.25409  0.56374  0.21666  Biso   1.000  C
  H436     1.0000 0.28690  0.55930  0.23680  Biso   1.000  H
  H437     1.0000 0.25000  0.53050  0.19690  Biso   1.000  H
  H438     1.0000 0.25890  0.59700  0.19710  Biso   1.000  H
  N121     1.0000 0.26141  0.77654  0.31661  Biso   1.000  N
  N122     1.0000 0.21767  0.79385  0.34462  Biso   1.000  N
  H439     1.0000 0.18220  0.78710  0.33860  Biso   1.000  H
  N123     1.0000 0.39547  0.86081  0.47326  Biso   1.000  N
  H440     1.0000 0.41720  0.85320  0.49700  Biso   1.000  H
  N124     1.0000 0.38778  0.91378  0.45558  Biso   1.000  N
  N125     1.0000 0.19096  0.62055  0.26737  Biso   1.000  N
  N126     1.0000 0.14189  0.61204  0.29221  Biso   1.000  N
  H441     1.0000 0.12550  0.63790  0.30910  Biso   1.000  H
  Ag22     1.0000 0.75306  0.19298  0.77653  Biso   1.000  Ag
  C316     1.0000 0.69611  0.34610  0.91872  Biso   1.000  C
  H442     1.0000 0.65980  0.32710  0.91630  Biso   1.000  H
  H443     1.0000 0.71170  0.34020  0.94980  Biso   1.000  H
  H444     1.0000 0.69100  0.38640  0.91330  Biso   1.000  H
  C317     1.0000 0.73590  0.32255  0.88270  Biso   1.000  C
  C318     1.0000 0.79517  0.32411  0.88003  Biso   1.000  C
  C319     1.0000 0.80893  0.29527  0.83819  Biso   1.000  C
  C320     1.0000 0.86678  0.28530  0.81755  Biso   1.000  C
  H445     1.0000 0.86340  0.27930  0.78400  Biso   1.000  H
  H446     1.0000 0.89050  0.31810  0.82340  Biso   1.000  H
  H447     1.0000 0.88370  0.25220  0.83200  Biso   1.000  H
  C321     1.0000 0.83150  0.45698  0.89101  Biso   1.000  C
  H448     1.0000 0.84450  0.45250  0.85890  Biso   1.000  H
  H449     1.0000 0.79050  0.45880  0.89140  Biso   1.000  H
  H450     1.0000 0.84690  0.49160  0.90410  Biso   1.000  H
  C322     1.0000 0.85089  0.40751  0.91980  Biso   1.000  C
  C323     1.0000 0.83491  0.34957  0.91468  Biso   1.000  C
  C324     1.0000 0.86510  0.32114  0.94936  Biso   1.000  C
  C325     1.0000 0.86880  0.25890  0.96101  Biso   1.000  C
  H451     1.0000 0.83090  0.24360  0.96450  Biso   1.000  H
  H452     1.0000 0.88820  0.23920  0.93590  Biso   1.000  H
  H453     1.0000 0.88950  0.25400  0.99010  Biso   1.000  H
  C326     1.0000 0.56884  0.03950  0.81220  Biso   1.000  C
  H454     1.0000 0.53740  0.03990  0.79030  Biso   1.000  H
  H455     1.0000 0.57420  0.00140  0.82410  Biso   1.000  H
  H456     1.0000 0.56080  0.06480  0.83820  Biso   1.000  H
  C327     1.0000 0.62196  0.05863  0.78740  Biso   1.000  C
  C328     1.0000 0.65977  0.03043  0.75758  Biso   1.000  C
  C329     1.0000 0.70201  0.07064  0.74648  Biso   1.000  C
  C330     1.0000 0.75409  0.06374  0.71666  Biso   1.000  C
  H457     1.0000 0.78690  0.05930  0.73680  Biso   1.000  H
  H458     1.0000 0.75000  0.03050  0.69690  Biso   1.000  H
  H459     1.0000 0.75890  0.09700  0.69710  Biso   1.000  H
  N127     1.0000 0.76141  0.27654  0.81661  Biso   1.000  N
  N128     1.0000 0.71767  0.29385  0.84462  Biso   1.000  N
  H460     1.0000 0.68220  0.28710  0.83860  Biso   1.000  H
  N129     1.0000 0.89547  0.36081  0.97326  Biso   1.000  N
  H461     1.0000 0.91720  0.35320  0.99700  Biso   1.000  H
  N130     1.0000 0.88778  0.41378  0.95558  Biso   1.000  N
  N131     1.0000 0.69096  0.12055  0.76737  Biso   1.000  N
  N132     1.0000 0.64189  0.11204  0.79221  Biso   1.000  N
  H462     1.0000 0.62550  0.13790  0.80910  Biso   1.000  H
  Ag23     1.0000 0.24694  0.30702  0.77653  Biso   1.000  Ag
  C331     1.0000 0.30389  0.15390  0.91872  Biso   1.000  C
  H463     1.0000 0.34020  0.17290  0.91630  Biso   1.000  H
  H464     1.0000 0.28830  0.15980  0.94980  Biso   1.000  H
  H465     1.0000 0.30900  0.11360  0.91330  Biso   1.000  H
  C332     1.0000 0.26410  0.17745  0.88270  Biso   1.000  C
  C333     1.0000 0.20483  0.17589  0.88003  Biso   1.000  C
  C334     1.0000 0.19107  0.20473  0.83819  Biso   1.000  C
  C335     1.0000 0.13322  0.21470  0.81755  Biso   1.000  C
  H466     1.0000 0.13660  0.22070  0.78400  Biso   1.000  H
  H467     1.0000 0.10950  0.18190  0.82340  Biso   1.000  H
  H468     1.0000 0.11630  0.24780  0.83200  Biso   1.000  H
  C336     1.0000 0.16850  0.04302  0.89101  Biso   1.000  C
  H469     1.0000 0.15550  0.04750  0.85890  Biso   1.000  H
  H470     1.0000 0.20950  0.04120  0.89140  Biso   1.000  H
  H471     1.0000 0.15310  0.00840  0.90410  Biso   1.000  H
  C337     1.0000 0.14911  0.09249  0.91980  Biso   1.000  C
  C338     1.0000 0.16509  0.15043  0.91468  Biso   1.000  C
  C339     1.0000 0.13490  0.17886  0.94936  Biso   1.000  C
  C340     1.0000 0.13120  0.24110  0.96101  Biso   1.000  C
  H472     1.0000 0.16910  0.25640  0.96450  Biso   1.000  H
  H473     1.0000 0.11180  0.26080  0.93590  Biso   1.000  H
  H474     1.0000 0.11050  0.24600  0.99010  Biso   1.000  H
  C341     1.0000 0.43116  0.46050  0.81220  Biso   1.000  C
  H475     1.0000 0.46260  0.46010  0.79030  Biso   1.000  H
  H476     1.0000 0.42580  0.49860  0.82410  Biso   1.000  H
  H477     1.0000 0.43920  0.43520  0.83820  Biso   1.000  H
  C342     1.0000 0.37804  0.44137  0.78740  Biso   1.000  C
  C343     1.0000 0.34023  0.46957  0.75758  Biso   1.000  C
  C344     1.0000 0.29799  0.42936  0.74648  Biso   1.000  C
  C345     1.0000 0.24591  0.43626  0.71666  Biso   1.000  C
  H478     1.0000 0.21310  0.44070  0.73680  Biso   1.000  H
  H479     1.0000 0.25000  0.46950  0.69690  Biso   1.000  H
  H480     1.0000 0.24110  0.40300  0.69710  Biso   1.000  H
  N133     1.0000 0.23859  0.22346  0.81661  Biso   1.000  N
  N134     1.0000 0.28233  0.20615  0.84462  Biso   1.000  N
  H481     1.0000 0.31780  0.21290  0.83860  Biso   1.000  H
  N135     1.0000 0.10453  0.13919  0.97326  Biso   1.000  N
  H482     1.0000 0.08280  0.14680  0.99700  Biso   1.000  H
  N136     1.0000 0.11222  0.08622  0.95558  Biso   1.000  N
  N137     1.0000 0.30904  0.37945  0.76737  Biso   1.000  N
  N138     1.0000 0.35811  0.38796  0.79221  Biso   1.000  N
  H483     1.0000 0.37450  0.36210  0.80910  Biso   1.000  H
  Ag24     1.0000 0.74694  0.80702  0.27653  Biso   1.000  Ag
  C346     1.0000 0.80389  0.65390  0.41872  Biso   1.000  C
  H484     1.0000 0.84020  0.67290  0.41630  Biso   1.000  H
  H485     1.0000 0.78830  0.65980  0.44980  Biso   1.000  H
  H486     1.0000 0.80900  0.61360  0.41330  Biso   1.000  H
  C347     1.0000 0.76410  0.67745  0.38270  Biso   1.000  C
  C348     1.0000 0.70483  0.67589  0.38003  Biso   1.000  C
  C349     1.0000 0.69107  0.70473  0.33819  Biso   1.000  C
  C350     1.0000 0.63322  0.71470  0.31755  Biso   1.000  C
  H487     1.0000 0.63660  0.72070  0.28400  Biso   1.000  H
  H488     1.0000 0.60950  0.68190  0.32340  Biso   1.000  H
  H489     1.0000 0.61630  0.74780  0.33200  Biso   1.000  H
  C351     1.0000 0.66850  0.54302  0.39101  Biso   1.000  C
  H490     1.0000 0.65550  0.54750  0.35890  Biso   1.000  H
  H491     1.0000 0.70950  0.54120  0.39140  Biso   1.000  H
  H492     1.0000 0.65310  0.50840  0.40410  Biso   1.000  H
  C352     1.0000 0.64911  0.59249  0.41980  Biso   1.000  C
  C353     1.0000 0.66509  0.65043  0.41468  Biso   1.000  C
  C354     1.0000 0.63490  0.67886  0.44936  Biso   1.000  C
  C355     1.0000 0.63120  0.74110  0.46101  Biso   1.000  C
  H493     1.0000 0.66910  0.75640  0.46450  Biso   1.000  H
  H494     1.0000 0.61180  0.76080  0.43590  Biso   1.000  H
  H495     1.0000 0.61050  0.74600  0.49010  Biso   1.000  H
  C356     1.0000 0.93116  0.96050  0.31220  Biso   1.000  C
  H496     1.0000 0.96260  0.96010  0.29030  Biso   1.000  H
  H497     1.0000 0.92580  0.99860  0.32410  Biso   1.000  H
  H498     1.0000 0.93920  0.93520  0.33820  Biso   1.000  H
  C357     1.0000 0.87804  0.94137  0.28740  Biso   1.000  C
  C358     1.0000 0.84023  0.96957  0.25758  Biso   1.000  C
  C359     1.0000 0.79799  0.92936  0.24648  Biso   1.000  C
  C360     1.0000 0.74591  0.93626  0.21666  Biso   1.000  C
  H499     1.0000 0.71310  0.94070  0.23680  Biso   1.000  H
  H500     1.0000 0.75000  0.96950  0.19690  Biso   1.000  H
  H501     1.0000 0.74110  0.90300  0.19710  Biso   1.000  H
  N139     1.0000 0.73859  0.72346  0.31661  Biso   1.000  N
  N140     1.0000 0.78233  0.70615  0.34462  Biso   1.000  N
  H502     1.0000 0.81780  0.71290  0.33860  Biso   1.000  H
  N141     1.0000 0.60453  0.63919  0.47326  Biso   1.000  N
  H503     1.0000 0.58280  0.64680  0.49700  Biso   1.000  H
  N142     1.0000 0.61222  0.58622  0.45558  Biso   1.000  N
  N143     1.0000 0.80904  0.87945  0.26737  Biso   1.000  N
  N144     1.0000 0.85811  0.88796  0.29221  Biso   1.000  N
  H504     1.0000 0.87450  0.86210  0.30910  Biso   1.000  H
  Ag25     1.0000 0.05702  0.49694  0.47347  Biso   1.000  Ag
  C361     1.0000 0.90390  0.55389  0.33128  Biso   1.000  C
  H505     1.0000 0.92290  0.59020  0.33370  Biso   1.000  H
  H506     1.0000 0.90980  0.53830  0.30020  Biso   1.000  H
  H507     1.0000 0.86360  0.55900  0.33670  Biso   1.000  H
  C362     1.0000 0.92745  0.51410  0.36730  Biso   1.000  C
  C363     1.0000 0.92589  0.45483  0.36997  Biso   1.000  C
  C364     1.0000 0.95473  0.44107  0.41181  Biso   1.000  C
  C365     1.0000 0.96470  0.38322  0.43245  Biso   1.000  C
  H508     1.0000 0.97070  0.38660  0.46600  Biso   1.000  H
  H509     1.0000 0.93190  0.35950  0.42660  Biso   1.000  H
  H510     1.0000 0.99780  0.36630  0.41800  Biso   1.000  H
  C366     1.0000 0.79302  0.41850  0.35899  Biso   1.000  C
  H511     1.0000 0.79750  0.40550  0.39110  Biso   1.000  H
  H512     1.0000 0.79120  0.45950  0.35860  Biso   1.000  H
  H513     1.0000 0.75840  0.40310  0.34590  Biso   1.000  H
  C367     1.0000 0.84249  0.39911  0.33020  Biso   1.000  C
  C368     1.0000 0.90043  0.41509  0.33532  Biso   1.000  C
  C369     1.0000 0.92886  0.38490  0.30064  Biso   1.000  C
  C370     1.0000 0.99110  0.38120  0.28899  Biso   1.000  C
  H514     1.0000 0.00640  0.41910  0.28550  Biso   1.000  H
  H515     1.0000 0.01080  0.36180  0.31410  Biso   1.000  H
  H516     1.0000 0.99600  0.36050  0.25990  Biso   1.000  H
  C371     1.0000 0.21050  0.68116  0.43780  Biso   1.000  C
  H517     1.0000 0.21010  0.71260  0.45970  Biso   1.000  H
  H518     1.0000 0.24860  0.67580  0.42590  Biso   1.000  H
  H519     1.0000 0.18520  0.68920  0.41180  Biso   1.000  H
  C372     1.0000 0.19137  0.62804  0.46260  Biso   1.000  C
  C373     1.0000 0.21957  0.59023  0.49242  Biso   1.000  C
  C374     1.0000 0.17936  0.54799  0.50352  Biso   1.000  C
  C375     1.0000 0.18626  0.49591  0.53334  Biso   1.000  C
  H520     1.0000 0.19070  0.46310  0.51320  Biso   1.000  H
  H521     1.0000 0.21950  0.50000  0.55310  Biso   1.000  H
  H522     1.0000 0.15300  0.49110  0.55290  Biso   1.000  H
  N145     1.0000 0.97346  0.48859  0.43339  Biso   1.000  N
  N146     1.0000 0.95615  0.53233  0.40538  Biso   1.000  N
  H523     1.0000 0.96290  0.56780  0.41140  Biso   1.000  H
  N147     1.0000 0.88919  0.35453  0.27674  Biso   1.000  N
  H524     1.0000 0.89680  0.33280  0.25300  Biso   1.000  H
  N148     1.0000 0.83622  0.36222  0.29442  Biso   1.000  N
  N149     1.0000 0.12945  0.55904  0.48263  Biso   1.000  N
  N150     1.0000 0.13796  0.60811  0.45779  Biso   1.000  N
  H525     1.0000 0.11210  0.62450  0.44090  Biso   1.000  H
  Ag26     1.0000 0.55702  0.99694  0.97347  Biso   1.000  Ag
  C376     1.0000 0.40390  0.05389  0.83128  Biso   1.000  C
  H526     1.0000 0.42290  0.09020  0.83370  Biso   1.000  H
  H527     1.0000 0.40980  0.03830  0.80020  Biso   1.000  H
  H528     1.0000 0.36360  0.05900  0.83670  Biso   1.000  H
  C377     1.0000 0.42745  0.01410  0.86730  Biso   1.000  C
  C378     1.0000 0.42589  0.95483  0.86997  Biso   1.000  C
  C379     1.0000 0.45473  0.94107  0.91181  Biso   1.000  C
  C380     1.0000 0.46470  0.88322  0.93245  Biso   1.000  C
  H529     1.0000 0.47070  0.88660  0.96600  Biso   1.000  H
  H530     1.0000 0.43190  0.85950  0.92660  Biso   1.000  H
  H531     1.0000 0.49780  0.86630  0.91800  Biso   1.000  H
  C381     1.0000 0.29302  0.91850  0.85899  Biso   1.000  C
  H532     1.0000 0.29750  0.90550  0.89110  Biso   1.000  H
  H533     1.0000 0.29120  0.95950  0.85860  Biso   1.000  H
  H534     1.0000 0.25840  0.90310  0.84590  Biso   1.000  H
  C382     1.0000 0.34249  0.89911  0.83020  Biso   1.000  C
  C383     1.0000 0.40043  0.91509  0.83532  Biso   1.000  C
  C384     1.0000 0.42886  0.88490  0.80064  Biso   1.000  C
  C385     1.0000 0.49110  0.88120  0.78899  Biso   1.000  C
  H535     1.0000 0.50640  0.91910  0.78550  Biso   1.000  H
  H536     1.0000 0.51080  0.86180  0.81410  Biso   1.000  H
  H537     1.0000 0.49600  0.86050  0.75990  Biso   1.000  H
  C386     1.0000 0.71050  0.18116  0.93780  Biso   1.000  C
  H538     1.0000 0.71010  0.21260  0.95970  Biso   1.000  H
  H539     1.0000 0.74860  0.17580  0.92590  Biso   1.000  H
  H540     1.0000 0.68520  0.18920  0.91180  Biso   1.000  H
  C387     1.0000 0.69137  0.12804  0.96260  Biso   1.000  C
  C388     1.0000 0.71957  0.09023  0.99242  Biso   1.000  C
  C389     1.0000 0.67936  0.04799  0.00352  Biso   1.000  C
  C390     1.0000 0.68626  0.99591  0.03334  Biso   1.000  C
  H541     1.0000 0.69070  0.96310  0.01320  Biso   1.000  H
  H542     1.0000 0.71950  0.00000  0.05310  Biso   1.000  H
  H543     1.0000 0.65300  0.99110  0.05290  Biso   1.000  H
  N151     1.0000 0.47346  0.98859  0.93339  Biso   1.000  N
  N152     1.0000 0.45615  0.03233  0.90538  Biso   1.000  N
  H544     1.0000 0.46290  0.06780  0.91140  Biso   1.000  H
  N153     1.0000 0.38919  0.85453  0.77674  Biso   1.000  N
  H545     1.0000 0.39680  0.83280  0.75300  Biso   1.000  H
  N154     1.0000 0.33622  0.86222  0.79442  Biso   1.000  N
  N155     1.0000 0.62945  0.05904  0.98263  Biso   1.000  N
  N156     1.0000 0.63796  0.10811  0.95779  Biso   1.000  N
  H546     1.0000 0.61210  0.12450  0.94090  Biso   1.000  H
  Ag27     1.0000 0.44298  0.50306  0.97347  Biso   1.000  Ag
  C391     1.0000 0.59610  0.44611  0.83128  Biso   1.000  C
  H547     1.0000 0.57710  0.40980  0.83370  Biso   1.000  H
  H548     1.0000 0.59020  0.46170  0.80020  Biso   1.000  H
  H549     1.0000 0.63640  0.44100  0.83670  Biso   1.000  H
  C392     1.0000 0.57255  0.48590  0.86730  Biso   1.000  C
  C393     1.0000 0.57411  0.54517  0.86997  Biso   1.000  C
  C394     1.0000 0.54527  0.55893  0.91181  Biso   1.000  C
  C395     1.0000 0.53530  0.61678  0.93245  Biso   1.000  C
  H550     1.0000 0.52930  0.61340  0.96600  Biso   1.000  H
  H551     1.0000 0.56810  0.64050  0.92660  Biso   1.000  H
  H552     1.0000 0.50220  0.63370  0.91800  Biso   1.000  H
  C396     1.0000 0.70698  0.58150  0.85899  Biso   1.000  C
  H553     1.0000 0.70250  0.59450  0.89110  Biso   1.000  H
  H554     1.0000 0.70880  0.54050  0.85860  Biso   1.000  H
  H555     1.0000 0.74160  0.59690  0.84590  Biso   1.000  H
  C397     1.0000 0.65751  0.60089  0.83020  Biso   1.000  C
  C398     1.0000 0.59957  0.58491  0.83532  Biso   1.000  C
  C399     1.0000 0.57114  0.61510  0.80064  Biso   1.000  C
  C400     1.0000 0.50890  0.61880  0.78899  Biso   1.000  C
  H556     1.0000 0.49360  0.58090  0.78550  Biso   1.000  H
  H557     1.0000 0.48920  0.63820  0.81410  Biso   1.000  H
  H558     1.0000 0.50400  0.63950  0.75990  Biso   1.000  H
  C401     1.0000 0.28950  0.31884  0.93780  Biso   1.000  C
  H559     1.0000 0.28990  0.28740  0.95970  Biso   1.000  H
  H560     1.0000 0.25140  0.32420  0.92590  Biso   1.000  H
  H561     1.0000 0.31480  0.31080  0.91180  Biso   1.000  H
  C402     1.0000 0.30863  0.37196  0.96260  Biso   1.000  C
  C403     1.0000 0.28043  0.40977  0.99242  Biso   1.000  C
  C404     1.0000 0.32064  0.45201  0.00352  Biso   1.000  C
  C405     1.0000 0.31374  0.50409  0.03334  Biso   1.000  C
  H562     1.0000 0.30930  0.53690  0.01320  Biso   1.000  H
  H563     1.0000 0.28050  0.50000  0.05310  Biso   1.000  H
  H564     1.0000 0.34700  0.50890  0.05290  Biso   1.000  H
  N157     1.0000 0.52654  0.51141  0.93339  Biso   1.000  N
  N158     1.0000 0.54385  0.46767  0.90538  Biso   1.000  N
  H565     1.0000 0.53710  0.43220  0.91140  Biso   1.000  H
  N159     1.0000 0.61081  0.64547  0.77674  Biso   1.000  N
  H566     1.0000 0.60320  0.66720  0.75300  Biso   1.000  H
  N160     1.0000 0.66378  0.63778  0.79442  Biso   1.000  N
  N161     1.0000 0.37055  0.44096  0.98263  Biso   1.000  N
  N162     1.0000 0.36204  0.39189  0.95779  Biso   1.000  N
  H567     1.0000 0.38790  0.37550  0.94090  Biso   1.000  H
  Ag28     1.0000 0.94298  0.00306  0.47347  Biso   1.000  Ag
  C406     1.0000 0.09610  0.94611  0.33128  Biso   1.000  C
  H568     1.0000 0.07710  0.90980  0.33370  Biso   1.000  H
  H569     1.0000 0.09020  0.96170  0.30020  Biso   1.000  H
  H570     1.0000 0.13640  0.94100  0.33670  Biso   1.000  H
  C407     1.0000 0.07255  0.98590  0.36730  Biso   1.000  C
  C408     1.0000 0.07411  0.04517  0.36997  Biso   1.000  C
  C409     1.0000 0.04527  0.05893  0.41181  Biso   1.000  C
  C410     1.0000 0.03530  0.11678  0.43245  Biso   1.000  C
  H571     1.0000 0.02930  0.11340  0.46600  Biso   1.000  H
  H572     1.0000 0.06810  0.14050  0.42660  Biso   1.000  H
  H573     1.0000 0.00220  0.13370  0.41800  Biso   1.000  H
  C411     1.0000 0.20698  0.08150  0.35899  Biso   1.000  C
  H574     1.0000 0.20250  0.09450  0.39110  Biso   1.000  H
  H575     1.0000 0.20880  0.04050  0.35860  Biso   1.000  H
  H576     1.0000 0.24160  0.09690  0.34590  Biso   1.000  H
  C412     1.0000 0.15751  0.10089  0.33020  Biso   1.000  C
  C413     1.0000 0.09957  0.08491  0.33532  Biso   1.000  C
  C414     1.0000 0.07114  0.11510  0.30064  Biso   1.000  C
  C415     1.0000 0.00890  0.11880  0.28899  Biso   1.000  C
  H577     1.0000 0.99360  0.08090  0.28550  Biso   1.000  H
  H578     1.0000 0.98920  0.13820  0.31410  Biso   1.000  H
  H579     1.0000 0.00400  0.13950  0.25990  Biso   1.000  H
  C416     1.0000 0.78950  0.81884  0.43780  Biso   1.000  C
  H580     1.0000 0.78990  0.78740  0.45970  Biso   1.000  H
  H581     1.0000 0.75140  0.82420  0.42590  Biso   1.000  H
  H582     1.0000 0.81480  0.81080  0.41180  Biso   1.000  H
  C417     1.0000 0.80863  0.87196  0.46260  Biso   1.000  C
  C418     1.0000 0.78043  0.90977  0.49242  Biso   1.000  C
  C419     1.0000 0.82064  0.95201  0.50352  Biso   1.000  C
  C420     1.0000 0.81374  0.00409  0.53334  Biso   1.000  C
  H583     1.0000 0.80930  0.03690  0.51320  Biso   1.000  H
  H584     1.0000 0.78050  0.00000  0.55310  Biso   1.000  H
  H585     1.0000 0.84700  0.00890  0.55290  Biso   1.000  H
  N163     1.0000 0.02654  0.01141  0.43339  Biso   1.000  N
  N164     1.0000 0.04385  0.96767  0.40538  Biso   1.000  N
  H586     1.0000 0.03710  0.93220  0.41140  Biso   1.000  H
  N165     1.0000 0.11081  0.14547  0.27674  Biso   1.000  N
  H587     1.0000 0.10320  0.16720  0.25300  Biso   1.000  H
  N166     1.0000 0.16378  0.13778  0.29442  Biso   1.000  N
  N167     1.0000 0.87055  0.94096  0.48263  Biso   1.000  N
  N168     1.0000 0.86204  0.89189  0.45779  Biso   1.000  N
  H588     1.0000 0.88790  0.87550  0.44090  Biso   1.000  H
  Ag29     1.0000 0.24694  0.69298  0.72347  Biso   1.000  Ag
  C421     1.0000 0.30389  0.84610  0.58128  Biso   1.000  C
  H589     1.0000 0.34020  0.82710  0.58370  Biso   1.000  H
  H590     1.0000 0.28830  0.84020  0.55020  Biso   1.000  H
  H591     1.0000 0.30900  0.88640  0.58670  Biso   1.000  H
  C422     1.0000 0.26410  0.82255  0.61730  Biso   1.000  C
  C423     1.0000 0.20483  0.82411  0.61997  Biso   1.000  C
  C424     1.0000 0.19107  0.79527  0.66181  Biso   1.000  C
  C425     1.0000 0.13322  0.78530  0.68245  Biso   1.000  C
  H592     1.0000 0.13660  0.77930  0.71600  Biso   1.000  H
  H593     1.0000 0.10950  0.81810  0.67660  Biso   1.000  H
  H594     1.0000 0.11630  0.75220  0.66800  Biso   1.000  H
  C426     1.0000 0.16850  0.95698  0.60899  Biso   1.000  C
  H595     1.0000 0.15550  0.95250  0.64110  Biso   1.000  H
  H596     1.0000 0.20950  0.95880  0.60860  Biso   1.000  H
  H597     1.0000 0.15310  0.99160  0.59590  Biso   1.000  H
  C427     1.0000 0.14911  0.90751  0.58020  Biso   1.000  C
  C428     1.0000 0.16509  0.84957  0.58532  Biso   1.000  C
  C429     1.0000 0.13490  0.82114  0.55064  Biso   1.000  C
  C430     1.0000 0.13120  0.75890  0.53899  Biso   1.000  C
  H598     1.0000 0.16910  0.74360  0.53550  Biso   1.000  H
  H599     1.0000 0.11180  0.73920  0.56410  Biso   1.000  H
  H600     1.0000 0.11050  0.75400  0.50990  Biso   1.000  H
  C431     1.0000 0.43116  0.53950  0.68780  Biso   1.000  C
  H601     1.0000 0.46260  0.53990  0.70970  Biso   1.000  H
  H602     1.0000 0.42580  0.50140  0.67590  Biso   1.000  H
  H603     1.0000 0.43920  0.56480  0.66180  Biso   1.000  H
  C432     1.0000 0.37804  0.55863  0.71260  Biso   1.000  C
  C433     1.0000 0.34023  0.53043  0.74242  Biso   1.000  C
  C434     1.0000 0.29799  0.57064  0.75352  Biso   1.000  C
  C435     1.0000 0.24591  0.56374  0.78334  Biso   1.000  C
  H604     1.0000 0.21310  0.55930  0.76320  Biso   1.000  H
  H605     1.0000 0.25000  0.53050  0.80310  Biso   1.000  H
  H606     1.0000 0.24110  0.59700  0.80290  Biso   1.000  H
  N169     1.0000 0.23859  0.77654  0.68339  Biso   1.000  N
  N170     1.0000 0.28233  0.79385  0.65538  Biso   1.000  N
  H607     1.0000 0.31780  0.78710  0.66140  Biso   1.000  H
  N171     1.0000 0.10453  0.86081  0.52674  Biso   1.000  N
  H608     1.0000 0.08280  0.85320  0.50300  Biso   1.000  H
  N172     1.0000 0.11222  0.91378  0.54442  Biso   1.000  N
  N173     1.0000 0.30904  0.62055  0.73263  Biso   1.000  N
  N174     1.0000 0.35811  0.61204  0.70779  Biso   1.000  N
  H609     1.0000 0.37450  0.63790  0.69090  Biso   1.000  H
  Ag30     1.0000 0.74694  0.19298  0.22347  Biso   1.000  Ag
  C436     1.0000 0.80389  0.34610  0.08128  Biso   1.000  C
  H610     1.0000 0.84020  0.32710  0.08370  Biso   1.000  H
  H611     1.0000 0.78830  0.34020  0.05020  Biso   1.000  H
  H612     1.0000 0.80900  0.38640  0.08670  Biso   1.000  H
  C437     1.0000 0.76410  0.32255  0.11730  Biso   1.000  C
  C438     1.0000 0.70483  0.32411  0.11997  Biso   1.000  C
  C439     1.0000 0.69107  0.29527  0.16181  Biso   1.000  C
  C440     1.0000 0.63322  0.28530  0.18245  Biso   1.000  C
  H613     1.0000 0.63660  0.27930  0.21600  Biso   1.000  H
  H614     1.0000 0.60950  0.31810  0.17660  Biso   1.000  H
  H615     1.0000 0.61630  0.25220  0.16800  Biso   1.000  H
  C441     1.0000 0.66850  0.45698  0.10899  Biso   1.000  C
  H616     1.0000 0.65550  0.45250  0.14110  Biso   1.000  H
  H617     1.0000 0.70950  0.45880  0.10860  Biso   1.000  H
  H618     1.0000 0.65310  0.49160  0.09590  Biso   1.000  H
  C442     1.0000 0.64911  0.40751  0.08020  Biso   1.000  C
  C443     1.0000 0.66509  0.34957  0.08532  Biso   1.000  C
  C444     1.0000 0.63490  0.32114  0.05064  Biso   1.000  C
  C445     1.0000 0.63120  0.25890  0.03899  Biso   1.000  C
  H619     1.0000 0.66910  0.24360  0.03550  Biso   1.000  H
  H620     1.0000 0.61180  0.23920  0.06410  Biso   1.000  H
  H621     1.0000 0.61050  0.25400  0.00990  Biso   1.000  H
  C446     1.0000 0.93116  0.03950  0.18780  Biso   1.000  C
  H622     1.0000 0.96260  0.03990  0.20970  Biso   1.000  H
  H623     1.0000 0.92580  0.00140  0.17590  Biso   1.000  H
  H624     1.0000 0.93920  0.06480  0.16180  Biso   1.000  H
  C447     1.0000 0.87804  0.05863  0.21260  Biso   1.000  C
  C448     1.0000 0.84023  0.03043  0.24242  Biso   1.000  C
  C449     1.0000 0.79799  0.07064  0.25352  Biso   1.000  C
  C450     1.0000 0.74591  0.06374  0.28334  Biso   1.000  C
  H625     1.0000 0.71310  0.05930  0.26320  Biso   1.000  H
  H626     1.0000 0.75000  0.03050  0.30310  Biso   1.000  H
  H627     1.0000 0.74110  0.09700  0.30290  Biso   1.000  H
  N175     1.0000 0.73859  0.27654  0.18339  Biso   1.000  N
  N176     1.0000 0.78233  0.29385  0.15538  Biso   1.000  N
  H628     1.0000 0.81780  0.28710  0.16140  Biso   1.000  H
  N177     1.0000 0.60453  0.36081  0.02674  Biso   1.000  N
  H629     1.0000 0.58280  0.35320  0.00300  Biso   1.000  H
  N178     1.0000 0.61222  0.41378  0.04442  Biso   1.000  N
  N179     1.0000 0.80904  0.12055  0.23263  Biso   1.000  N
  N180     1.0000 0.85811  0.11204  0.20779  Biso   1.000  N
  H630     1.0000 0.87450  0.13790  0.19090  Biso   1.000  H
  Ag31     1.0000 0.25306  0.30702  0.22347  Biso   1.000  Ag
  C451     1.0000 0.19611  0.15390  0.08128  Biso   1.000  C
  H631     1.0000 0.15980  0.17290  0.08370  Biso   1.000  H
  H632     1.0000 0.21170  0.15980  0.05020  Biso   1.000  H
  H633     1.0000 0.19100  0.11360  0.08670  Biso   1.000  H
  C452     1.0000 0.23590  0.17745  0.11730  Biso   1.000  C
  C453     1.0000 0.29517  0.17589  0.11997  Biso   1.000  C
  C454     1.0000 0.30893  0.20473  0.16181  Biso   1.000  C
  C455     1.0000 0.36678  0.21470  0.18245  Biso   1.000  C
  H634     1.0000 0.36340  0.22070  0.21600  Biso   1.000  H
  H635     1.0000 0.39050  0.18190  0.17660  Biso   1.000  H
  H636     1.0000 0.38370  0.24780  0.16800  Biso   1.000  H
  C456     1.0000 0.33150  0.04302  0.10899  Biso   1.000  C
  H637     1.0000 0.34450  0.04750  0.14110  Biso   1.000  H
  H638     1.0000 0.29050  0.04120  0.10860  Biso   1.000  H
  H639     1.0000 0.34690  0.00840  0.09590  Biso   1.000  H
  C457     1.0000 0.35089  0.09249  0.08020  Biso   1.000  C
  C458     1.0000 0.33491  0.15043  0.08532  Biso   1.000  C
  C459     1.0000 0.36510  0.17886  0.05064  Biso   1.000  C
  C460     1.0000 0.36880  0.24110  0.03899  Biso   1.000  C
  H640     1.0000 0.33090  0.25640  0.03550  Biso   1.000  H
  H641     1.0000 0.38820  0.26080  0.06410  Biso   1.000  H
  H642     1.0000 0.38950  0.24600  0.00990  Biso   1.000  H
  C461     1.0000 0.06884  0.46050  0.18780  Biso   1.000  C
  H643     1.0000 0.03740  0.46010  0.20970  Biso   1.000  H
  H644     1.0000 0.07420  0.49860  0.17590  Biso   1.000  H
  H645     1.0000 0.06080  0.43520  0.16180  Biso   1.000  H
  C462     1.0000 0.12196  0.44137  0.21260  Biso   1.000  C
  C463     1.0000 0.15977  0.46957  0.24242  Biso   1.000  C
  C464     1.0000 0.20201  0.42936  0.25352  Biso   1.000  C
  C465     1.0000 0.25409  0.43626  0.28334  Biso   1.000  C
  H646     1.0000 0.28690  0.44070  0.26320  Biso   1.000  H
  H647     1.0000 0.25000  0.46950  0.30310  Biso   1.000  H
  H648     1.0000 0.25890  0.40300  0.30290  Biso   1.000  H
  N181     1.0000 0.26141  0.22346  0.18339  Biso   1.000  N
  N182     1.0000 0.21767  0.20615  0.15538  Biso   1.000  N
  H649     1.0000 0.18220  0.21290  0.16140  Biso   1.000  H
  N183     1.0000 0.39547  0.13919  0.02674  Biso   1.000  N
  H650     1.0000 0.41720  0.14680  0.00300  Biso   1.000  H
  N184     1.0000 0.38778  0.08622  0.04442  Biso   1.000  N
  N185     1.0000 0.19096  0.37945  0.23263  Biso   1.000  N
  N186     1.0000 0.14189  0.38796  0.20779  Biso   1.000  N
  H651     1.0000 0.12550  0.36210  0.19090  Biso   1.000  H
  Ag32     1.0000 0.75306  0.80702  0.72347  Biso   1.000  Ag
  C466     1.0000 0.69611  0.65390  0.58128  Biso   1.000  C
  H652     1.0000 0.65980  0.67290  0.58370  Biso   1.000  H
  H653     1.0000 0.71170  0.65980  0.55020  Biso   1.000  H
  H654     1.0000 0.69100  0.61360  0.58670  Biso   1.000  H
  C467     1.0000 0.73590  0.67745  0.61730  Biso   1.000  C
  C468     1.0000 0.79517  0.67589  0.61997  Biso   1.000  C
  C469     1.0000 0.80893  0.70473  0.66181  Biso   1.000  C
  C470     1.0000 0.86678  0.71470  0.68245  Biso   1.000  C
  H655     1.0000 0.86340  0.72070  0.71600  Biso   1.000  H
  H656     1.0000 0.89050  0.68190  0.67660  Biso   1.000  H
  H657     1.0000 0.88370  0.74780  0.66800  Biso   1.000  H
  C471     1.0000 0.83150  0.54302  0.60899  Biso   1.000  C
  H658     1.0000 0.84450  0.54750  0.64110  Biso   1.000  H
  H659     1.0000 0.79050  0.54120  0.60860  Biso   1.000  H
  H660     1.0000 0.84690  0.50840  0.59590  Biso   1.000  H
  C472     1.0000 0.85089  0.59249  0.58020  Biso   1.000  C
  C473     1.0000 0.83491  0.65043  0.58532  Biso   1.000  C
  C474     1.0000 0.86510  0.67886  0.55064  Biso   1.000  C
  C475     1.0000 0.86880  0.74110  0.53899  Biso   1.000  C
  H661     1.0000 0.83090  0.75640  0.53550  Biso   1.000  H
  H662     1.0000 0.88820  0.76080  0.56410  Biso   1.000  H
  H663     1.0000 0.88950  0.74600  0.50990  Biso   1.000  H
  C476     1.0000 0.56884  0.96050  0.68780  Biso   1.000  C
  H664     1.0000 0.53740  0.96010  0.70970  Biso   1.000  H
  H665     1.0000 0.57420  0.99860  0.67590  Biso   1.000  H
  H666     1.0000 0.56080  0.93520  0.66180  Biso   1.000  H
  C477     1.0000 0.62196  0.94137  0.71260  Biso   1.000  C
  C478     1.0000 0.65977  0.96957  0.74242  Biso   1.000  C
  C479     1.0000 0.70201  0.92936  0.75352  Biso   1.000  C
  C480     1.0000 0.75409  0.93626  0.78334  Biso   1.000  C
  H667     1.0000 0.78690  0.94070  0.76320  Biso   1.000  H
  H668     1.0000 0.75000  0.96950  0.80310  Biso   1.000  H
  H669     1.0000 0.75890  0.90300  0.80290  Biso   1.000  H
  N187     1.0000 0.76141  0.72346  0.68339  Biso   1.000  N
  N188     1.0000 0.71767  0.70615  0.65538  Biso   1.000  N
  H670     1.0000 0.68220  0.71290  0.66140  Biso   1.000  H
  N189     1.0000 0.89547  0.63919  0.52674  Biso   1.000  N
  H671     1.0000 0.91720  0.64680  0.50300  Biso   1.000  H
  N190     1.0000 0.88778  0.58622  0.54442  Biso   1.000  N
  N191     1.0000 0.69096  0.87945  0.73263  Biso   1.000  N
  N192     1.0000 0.64189  0.88796  0.70779  Biso   1.000  N
  H672     1.0000 0.62550  0.86210  0.69090  Biso   1.000  H
