data_image0
_cell_length_a       20.4029
_cell_length_b       17.331
_cell_length_c       38.6793
_cell_angle_alpha    90
_cell_angle_beta     91.038
_cell_angle_gamma    90

_symmetry_space_group_name_H-M    "P 1"
_symmetry_int_tables_number       1

loop_
  _symmetry_equiv_pos_as_xyz
  'x, y, z'

loop_
  _atom_site_label
  _atom_site_occupancy
  _atom_site_fract_x
  _atom_site_fract_y
  _atom_site_fract_z
  _atom_site_thermal_displace_type
  _atom_site_B_iso_or_equiv
  _atom_site_type_symbol
  Br1      1.0000 0.57316  0.34690  0.60709  Biso   1.000  Br
  Br2      1.0000 0.43298  0.67064  0.64985  Biso   1.000  Br
  Br3      1.0000 0.58235  0.62621  0.68045  Biso   1.000  Br
  Br4      1.0000 0.95296  0.31562  0.62378  Biso   1.000  Br
  Br5      1.0000 0.05093  0.67333  0.62129  Biso   1.000  Br
  Br6      1.0000 0.11161  0.35849  0.62752  Biso   1.000  Br
  Br7      1.0000 0.89141  0.63080  0.62441  Biso   1.000  Br
  Br8      1.0000 0.42580  0.39326  0.57555  Biso   1.000  Br
  Co1      1.0000 0.25287  0.57651  0.58626  Biso   1.000  Co
  Co2      1.0000 0.75027  0.43134  0.67051  Biso   1.000  Co
  N1       1.0000 0.24690  0.68900  0.59910  Biso   1.000  N
  N2       1.0000 0.75560  0.18470  0.82500  Biso   1.000  N
  O1       1.0000 0.63260  0.42940  0.68208  Biso   1.000  O
  N3       1.0000 0.23250  0.04670  0.52030  Biso   1.000  N
  O2       1.0000 0.16540  0.53160  0.59431  Biso   1.000  O
  O3       1.0000 0.68520  0.48700  0.64023  Biso   1.000  O
  O4       1.0000 0.32550  0.52630  0.61206  Biso   1.000  O
  O5       1.0000 0.83090  0.44740  0.59980  Biso   1.000  O
  O6       1.0000 0.37610  0.59700  0.57356  Biso   1.000  O
  C1       1.0000 0.95550  0.55270  0.62370  Biso   1.000  C
  C2       1.0000 0.11360  0.84750  0.56430  Biso   1.000  C
  H1       1.0000 0.12420  0.79870  0.57270  Biso   1.000  H
  C3       1.0000 0.04770  0.43700  0.62550  Biso   1.000  C
  N4       1.0000 0.73540  0.51130  0.77130  Biso   1.000  N
  O7       1.0000 0.16980  0.54730  0.65140  Biso   1.000  O
  C4       1.0000 0.02200  0.56980  0.62350  Biso   1.000  C
  C5       1.0000 0.37690  0.55390  0.59780  Biso   1.000  C
  N5       1.0000 0.25570  0.05910  0.46520  Biso   1.000  N
  O8       1.0000 0.84030  0.45490  0.65697  Biso   1.000  O
  C6       1.0000 0.98120  0.41950  0.62520  Biso   1.000  C
  C7       1.0000 0.25020  0.74720  0.57740  Biso   1.000  C
  H2       1.0000 0.25900  0.74200  0.55400  Biso   1.000  H
  C8       1.0000 0.23200  0.89040  0.57640  Biso   1.000  C
  H3       1.0000 0.26120  0.89340  0.55690  Biso   1.000  H
  H4       1.0000 0.24460  0.93040  0.59280  Biso   1.000  H
  C9       1.0000 0.93460  0.47730  0.62520  Biso   1.000  C
  C10      1.0000 0.05210  0.86210  0.55290  Biso   1.000  C
  H5       1.0000 0.02050  0.82350  0.55370  Biso   1.000  H
  C11      1.0000 0.53820  0.56110  0.64900  Biso   1.000  C
  C12      1.0000 0.47560  0.57890  0.63600  Biso   1.000  C
  C13      1.0000 0.47290  0.46110  0.60510  Biso   1.000  C
  C14      1.0000 0.63250  0.46730  0.65540  Biso   1.000  C
  N6       1.0000 0.23910  0.81490  0.59300  Biso   1.000  N
  C15      1.0000 0.63980  0.47550  0.80600  Biso   1.000  C
  N7       1.0000 0.73610  0.30940  0.82970  Biso   1.000  N
  C16      1.0000 0.56800  0.49200  0.63990  Biso   1.000  C
  C17      1.0000 0.52680  0.44430  0.79280  Biso   1.000  C
  H6       1.0000 0.48650  0.45700  0.78270  Biso   1.000  H
  N8       1.0000 0.75980  0.47460  0.71900  Biso   1.000  N
  C18      1.0000 0.59400  0.35560  0.82380  Biso   1.000  C
  H7       1.0000 0.59900  0.30770  0.83430  Biso   1.000  H
  C19      1.0000 0.06870  0.51210  0.62440  Biso   1.000  C
  C20      1.0000 0.03550  0.93480  0.54010  Biso   1.000  C
  H8       1.0000 0.99310  0.94460  0.53190  Biso   1.000  H
  C21      1.0000 0.44230  0.53070  0.61400  Biso   1.000  C
  C22      1.0000 0.14430  0.97860  0.55160  Biso   1.000  C
  C23      1.0000 0.20880  0.06100  0.48870  Biso   1.000  C
  H9       1.0000 0.16500  0.07110  0.48360  Biso   1.000  H
  C24      1.0000 0.16200  0.90500  0.56370  Biso   1.000  C
  C25      1.0000 0.69540  0.53230  0.80150  Biso   1.000  C
  H10      1.0000 0.67750  0.58380  0.79820  Biso   1.000  H
  H11      1.0000 0.72290  0.53280  0.82220  Biso   1.000  H
  C26      1.0000 0.14140  0.53120  0.62390  Biso   1.000  C
  C27      1.0000 0.53440  0.44370  0.61800  Biso   1.000  C
  C28      1.0000 0.80100  0.51850  0.76850  Biso   1.000  C
  H12      1.0000 0.83040  0.53600  0.78540  Biso   1.000  H
  C29      1.0000 0.22710  0.79830  0.62640  Biso   1.000  C
  H13      1.0000 0.21710  0.83370  0.64360  Biso   1.000  H
  C30      1.0000 0.72820  0.23970  0.84290  Biso   1.000  C
  H14      1.0000 0.70520  0.23060  0.86300  Biso   1.000  H
  C31      1.0000 0.31150  0.04180  0.48340  Biso   1.000  C
  H15      1.0000 0.35270  0.03540  0.47400  Biso   1.000  H
  C32      1.0000 0.71050  0.38350  0.84150  Biso   1.000  C
  H16      1.0000 0.70210  0.38050  0.86600  Biso   1.000  H
  H17      1.0000 0.74340  0.42310  0.83810  Biso   1.000  H
  C33      1.0000 0.19330  0.04470  0.55160  Biso   1.000  C
  H18      1.0000 0.16990  0.09310  0.55370  Biso   1.000  H
  H19      1.0000 0.22240  0.03980  0.57160  Biso   1.000  H
  C34      1.0000 0.08200  0.99180  0.53960  Biso   1.000  C
  H20      1.0000 0.07090  0.04030  0.53100  Biso   1.000  H
  C35      1.0000 0.23220  0.72230  0.63030  Biso   1.000  C
  H21      1.0000 0.22660  0.69580  0.65090  Biso   1.000  H
  C36      1.0000 0.64750  0.40690  0.82230  Biso   1.000  C
  C37      1.0000 0.57850  0.49290  0.79110  Biso   1.000  C
  H22      1.0000 0.57310  0.53960  0.77960  Biso   1.000  H
  C38      1.0000 0.71210  0.48510  0.74140  Biso   1.000  C
  H23      1.0000 0.66810  0.47520  0.73670  Biso   1.000  H
  C39      1.0000 0.53550  0.37630  0.80980  Biso   1.000  C
  H24      1.0000 0.50010  0.34300  0.81180  Biso   1.000  H
  C40      1.0000 0.81560  0.49470  0.73560  Biso   1.000  C
  H25      1.0000 0.85730  0.49280  0.72630  Biso   1.000  H
  C41      1.0000 0.86110  0.45760  0.62660  Biso   1.000  C
  C42      1.0000 0.78250  0.22240  0.79720  Biso   1.000  C
  H26      1.0000 0.80480  0.19830  0.77950  Biso   1.000  H
  C43      1.0000 0.77200  0.29970  0.79940  Biso   1.000  C
  H27      1.0000 0.78560  0.33780  0.78420  Biso   1.000  H
  C44      1.0000 0.29750  0.03520  0.51770  Biso   1.000  C
  H28      1.0000 0.32710  0.02490  0.53560  Biso   1.000  H
  Br9      1.0000 0.92684  0.84690  0.39291  Biso   1.000  Br
  Br10     1.0000 0.06702  0.17064  0.35015  Biso   1.000  Br
  Br11     1.0000 0.91765  0.12621  0.31955  Biso   1.000  Br
  Br12     1.0000 0.54704  0.81562  0.37622  Biso   1.000  Br
  Br13     1.0000 0.44907  0.17333  0.37871  Biso   1.000  Br
  Br14     1.0000 0.38839  0.85849  0.37248  Biso   1.000  Br
  Br15     1.0000 0.60859  0.13080  0.37559  Biso   1.000  Br
  Br16     1.0000 0.07420  0.89326  0.42445  Biso   1.000  Br
  Co3      1.0000 0.24713  0.07651  0.41374  Biso   1.000  Co
  Co4      1.0000 0.74973  0.93134  0.32949  Biso   1.000  Co
  N9       1.0000 0.25310  0.18900  0.40090  Biso   1.000  N
  N10      1.0000 0.74440  0.68470  0.17500  Biso   1.000  N
  O9       1.0000 0.86740  0.92940  0.31792  Biso   1.000  O
  N11      1.0000 0.26750  0.54670  0.47970  Biso   1.000  N
  O10      1.0000 0.33460  0.03160  0.40569  Biso   1.000  O
  O11      1.0000 0.81480  0.98700  0.35977  Biso   1.000  O
  O12      1.0000 0.17450  0.02630  0.38794  Biso   1.000  O
  O13      1.0000 0.66910  0.94740  0.40020  Biso   1.000  O
  O14      1.0000 0.12390  0.09700  0.42644  Biso   1.000  O
  C45      1.0000 0.54450  0.05270  0.37630  Biso   1.000  C
  C46      1.0000 0.38640  0.34750  0.43570  Biso   1.000  C
  H29      1.0000 0.37580  0.29870  0.42730  Biso   1.000  H
  C47      1.0000 0.45230  0.93700  0.37450  Biso   1.000  C
  N12      1.0000 0.76460  0.01130  0.22870  Biso   1.000  N
  O15      1.0000 0.33020  0.04730  0.34860  Biso   1.000  O
  C48      1.0000 0.47800  0.06980  0.37650  Biso   1.000  C
  C49      1.0000 0.12310  0.05390  0.40220  Biso   1.000  C
  N13      1.0000 0.24430  0.55910  0.53480  Biso   1.000  N
  O16      1.0000 0.65970  0.95490  0.34303  Biso   1.000  O
  C50      1.0000 0.51880  0.91950  0.37480  Biso   1.000  C
  C51      1.0000 0.24980  0.24720  0.42260  Biso   1.000  C
  H30      1.0000 0.24100  0.24200  0.44600  Biso   1.000  H
  C52      1.0000 0.26800  0.39040  0.42360  Biso   1.000  C
  H31      1.0000 0.23880  0.39340  0.44310  Biso   1.000  H
  H32      1.0000 0.25540  0.43040  0.40720  Biso   1.000  H
  C53      1.0000 0.56540  0.97730  0.37480  Biso   1.000  C
  C54      1.0000 0.44790  0.36210  0.44710  Biso   1.000  C
  H33      1.0000 0.47950  0.32350  0.44630  Biso   1.000  H
  C55      1.0000 0.96180  0.06110  0.35100  Biso   1.000  C
  C56      1.0000 0.02440  0.07890  0.36400  Biso   1.000  C
  C57      1.0000 0.02710  0.96110  0.39490  Biso   1.000  C
  C58      1.0000 0.86750  0.96730  0.34460  Biso   1.000  C
  N14      1.0000 0.26090  0.31490  0.40700  Biso   1.000  N
  C59      1.0000 0.86020  0.97550  0.19400  Biso   1.000  C
  N15      1.0000 0.76390  0.80940  0.17030  Biso   1.000  N
  C60      1.0000 0.93200  0.99200  0.36010  Biso   1.000  C
  C61      1.0000 0.97320  0.94430  0.20720  Biso   1.000  C
  H34      1.0000 0.01350  0.95700  0.21730  Biso   1.000  H
  N16      1.0000 0.74020  0.97460  0.28100  Biso   1.000  N
  C62      1.0000 0.90600  0.85560  0.17620  Biso   1.000  C
  H35      1.0000 0.90100  0.80770  0.16570  Biso   1.000  H
  C63      1.0000 0.43130  0.01210  0.37560  Biso   1.000  C
  C64      1.0000 0.46450  0.43480  0.45990  Biso   1.000  C
  H36      1.0000 0.50690  0.44460  0.46810  Biso   1.000  H
  C65      1.0000 0.05770  0.03070  0.38600  Biso   1.000  C
  C66      1.0000 0.35570  0.47860  0.44840  Biso   1.000  C
  C67      1.0000 0.29120  0.56100  0.51130  Biso   1.000  C
  H37      1.0000 0.33500  0.57110  0.51640  Biso   1.000  H
  C68      1.0000 0.33800  0.40500  0.43630  Biso   1.000  C
  C69      1.0000 0.80460  0.03230  0.19850  Biso   1.000  C
  H38      1.0000 0.82250  0.08380  0.20180  Biso   1.000  H
  H39      1.0000 0.77710  0.03280  0.17780  Biso   1.000  H
  C70      1.0000 0.35860  0.03120  0.37610  Biso   1.000  C
  C71      1.0000 0.96560  0.94370  0.38200  Biso   1.000  C
  C72      1.0000 0.69900  0.01850  0.23150  Biso   1.000  C
  H40      1.0000 0.66960  0.03600  0.21460  Biso   1.000  H
  C73      1.0000 0.27290  0.29830  0.37360  Biso   1.000  C
  H41      1.0000 0.28290  0.33370  0.35640  Biso   1.000  H
  C74      1.0000 0.77180  0.73970  0.15710  Biso   1.000  C
  H42      1.0000 0.79480  0.73060  0.13700  Biso   1.000  H
  C75      1.0000 0.18850  0.54180  0.51660  Biso   1.000  C
  H43      1.0000 0.14730  0.53540  0.52600  Biso   1.000  H
  C76      1.0000 0.78950  0.88350  0.15850  Biso   1.000  C
  H44      1.0000 0.79790  0.88050  0.13400  Biso   1.000  H
  H45      1.0000 0.75660  0.92310  0.16190  Biso   1.000  H
  C77      1.0000 0.30670  0.54470  0.44840  Biso   1.000  C
  H46      1.0000 0.33010  0.59310  0.44630  Biso   1.000  H
  H47      1.0000 0.27760  0.53980  0.42840  Biso   1.000  H
  C78      1.0000 0.41800  0.49180  0.46040  Biso   1.000  C
  H48      1.0000 0.42910  0.54030  0.46900  Biso   1.000  H
  C79      1.0000 0.26780  0.22230  0.36970  Biso   1.000  C
  H49      1.0000 0.27340  0.19580  0.34910  Biso   1.000  H
  C80      1.0000 0.85250  0.90690  0.17770  Biso   1.000  C
  C81      1.0000 0.92150  0.99290  0.20890  Biso   1.000  C
  H50      1.0000 0.92690  0.03960  0.22040  Biso   1.000  H
  C82      1.0000 0.78790  0.98510  0.25860  Biso   1.000  C
  H51      1.0000 0.83190  0.97520  0.26330  Biso   1.000  H
  C83      1.0000 0.96450  0.87630  0.19020  Biso   1.000  C
  H52      1.0000 0.99990  0.84300  0.18820  Biso   1.000  H
  C84      1.0000 0.68440  0.99470  0.26440  Biso   1.000  C
  H53      1.0000 0.64270  0.99280  0.27370  Biso   1.000  H
  C85      1.0000 0.63890  0.95760  0.37340  Biso   1.000  C
  C86      1.0000 0.71750  0.72240  0.20280  Biso   1.000  C
  H54      1.0000 0.69520  0.69830  0.22050  Biso   1.000  H
  C87      1.0000 0.72800  0.79970  0.20060  Biso   1.000  C
  H55      1.0000 0.71440  0.83780  0.21580  Biso   1.000  H
  C88      1.0000 0.20250  0.53520  0.48230  Biso   1.000  C
  H56      1.0000 0.17290  0.52490  0.46440  Biso   1.000  H
  Br17     1.0000 0.92684  0.15310  0.89291  Biso   1.000  Br
  Br18     1.0000 0.06702  0.82936  0.85015  Biso   1.000  Br
  Br19     1.0000 0.91765  0.87379  0.81955  Biso   1.000  Br
  Br20     1.0000 0.54704  0.18438  0.87622  Biso   1.000  Br
  Br21     1.0000 0.44907  0.82667  0.87871  Biso   1.000  Br
  Br22     1.0000 0.38839  0.14151  0.87248  Biso   1.000  Br
  Br23     1.0000 0.60859  0.86920  0.87559  Biso   1.000  Br
  Br24     1.0000 0.07420  0.10674  0.92445  Biso   1.000  Br
  Co5      1.0000 0.24713  0.92349  0.91374  Biso   1.000  Co
  Co6      1.0000 0.74973  0.06866  0.82949  Biso   1.000  Co
  N17      1.0000 0.25310  0.81100  0.90090  Biso   1.000  N
  N18      1.0000 0.74440  0.31530  0.67500  Biso   1.000  N
  O17      1.0000 0.86740  0.07060  0.81792  Biso   1.000  O
  N19      1.0000 0.26750  0.45330  0.97970  Biso   1.000  N
  O18      1.0000 0.33460  0.96840  0.90569  Biso   1.000  O
  O19      1.0000 0.81480  0.01300  0.85977  Biso   1.000  O
  O20      1.0000 0.17450  0.97370  0.88794  Biso   1.000  O
  O21      1.0000 0.66910  0.05260  0.90020  Biso   1.000  O
  O22      1.0000 0.12390  0.90300  0.92644  Biso   1.000  O
  C89      1.0000 0.54450  0.94730  0.87630  Biso   1.000  C
  C90      1.0000 0.38640  0.65250  0.93570  Biso   1.000  C
  H57      1.0000 0.37580  0.70130  0.92730  Biso   1.000  H
  C91      1.0000 0.45230  0.06300  0.87450  Biso   1.000  C
  N20      1.0000 0.76460  0.98870  0.72870  Biso   1.000  N
  O23      1.0000 0.33020  0.95270  0.84860  Biso   1.000  O
  C92      1.0000 0.47800  0.93020  0.87650  Biso   1.000  C
  C93      1.0000 0.12310  0.94610  0.90220  Biso   1.000  C
  N21      1.0000 0.24430  0.44090  0.03480  Biso   1.000  N
  O24      1.0000 0.65970  0.04510  0.84303  Biso   1.000  O
  C94      1.0000 0.51880  0.08050  0.87480  Biso   1.000  C
  C95      1.0000 0.24980  0.75280  0.92260  Biso   1.000  C
  H58      1.0000 0.24100  0.75800  0.94600  Biso   1.000  H
  C96      1.0000 0.26800  0.60960  0.92360  Biso   1.000  C
  H59      1.0000 0.23880  0.60660  0.94310  Biso   1.000  H
  H60      1.0000 0.25540  0.56960  0.90720  Biso   1.000  H
  C97      1.0000 0.56540  0.02270  0.87480  Biso   1.000  C
  C98      1.0000 0.44790  0.63790  0.94710  Biso   1.000  C
  H61      1.0000 0.47950  0.67650  0.94630  Biso   1.000  H
  C99      1.0000 0.96180  0.93890  0.85100  Biso   1.000  C
  C100     1.0000 0.02440  0.92110  0.86400  Biso   1.000  C
  C101     1.0000 0.02710  0.03890  0.89490  Biso   1.000  C
  C102     1.0000 0.86750  0.03270  0.84460  Biso   1.000  C
  N22      1.0000 0.26090  0.68510  0.90700  Biso   1.000  N
  C103     1.0000 0.86020  0.02450  0.69400  Biso   1.000  C
  N23      1.0000 0.76390  0.19060  0.67030  Biso   1.000  N
  C104     1.0000 0.93200  0.00800  0.86010  Biso   1.000  C
  C105     1.0000 0.97320  0.05570  0.70720  Biso   1.000  C
  H62      1.0000 0.01350  0.04300  0.71730  Biso   1.000  H
  N24      1.0000 0.74020  0.02540  0.78100  Biso   1.000  N
  C106     1.0000 0.90600  0.14440  0.67620  Biso   1.000  C
  H63      1.0000 0.90100  0.19230  0.66570  Biso   1.000  H
  C107     1.0000 0.43130  0.98790  0.87560  Biso   1.000  C
  C108     1.0000 0.46450  0.56520  0.95990  Biso   1.000  C
  H64      1.0000 0.50690  0.55540  0.96810  Biso   1.000  H
  C109     1.0000 0.05770  0.96930  0.88600  Biso   1.000  C
  C110     1.0000 0.35570  0.52140  0.94840  Biso   1.000  C
  C111     1.0000 0.29120  0.43900  0.01130  Biso   1.000  C
  H65      1.0000 0.33500  0.42890  0.01640  Biso   1.000  H
  C112     1.0000 0.33800  0.59500  0.93630  Biso   1.000  C
  C113     1.0000 0.80460  0.96770  0.69850  Biso   1.000  C
  H66      1.0000 0.82250  0.91620  0.70180  Biso   1.000  H
  H67      1.0000 0.77710  0.96720  0.67780  Biso   1.000  H
  C114     1.0000 0.35860  0.96880  0.87610  Biso   1.000  C
  C115     1.0000 0.96560  0.05630  0.88200  Biso   1.000  C
  C116     1.0000 0.69900  0.98150  0.73150  Biso   1.000  C
  H68      1.0000 0.66960  0.96400  0.71460  Biso   1.000  H
  C117     1.0000 0.27290  0.70170  0.87360  Biso   1.000  C
  H69      1.0000 0.28290  0.66630  0.85640  Biso   1.000  H
  C118     1.0000 0.77180  0.26030  0.65710  Biso   1.000  C
  H70      1.0000 0.79480  0.26940  0.63700  Biso   1.000  H
  C119     1.0000 0.18850  0.45820  0.01660  Biso   1.000  C
  H71      1.0000 0.14730  0.46460  0.02600  Biso   1.000  H
  C120     1.0000 0.78950  0.11650  0.65850  Biso   1.000  C
  H72      1.0000 0.79790  0.11950  0.63400  Biso   1.000  H
  H73      1.0000 0.75660  0.07690  0.66190  Biso   1.000  H
  C121     1.0000 0.30670  0.45530  0.94840  Biso   1.000  C
  H74      1.0000 0.33010  0.40690  0.94630  Biso   1.000  H
  H75      1.0000 0.27760  0.46020  0.92840  Biso   1.000  H
  C122     1.0000 0.41800  0.50820  0.96040  Biso   1.000  C
  H76      1.0000 0.42910  0.45970  0.96900  Biso   1.000  H
  C123     1.0000 0.26780  0.77770  0.86970  Biso   1.000  C
  H77      1.0000 0.27340  0.80420  0.84910  Biso   1.000  H
  C124     1.0000 0.85250  0.09310  0.67770  Biso   1.000  C
  C125     1.0000 0.92150  0.00710  0.70890  Biso   1.000  C
  H78      1.0000 0.92690  0.96040  0.72040  Biso   1.000  H
  C126     1.0000 0.78790  0.01490  0.75860  Biso   1.000  C
  H79      1.0000 0.83190  0.02480  0.76330  Biso   1.000  H
  C127     1.0000 0.96450  0.12370  0.69020  Biso   1.000  C
  H80      1.0000 0.99990  0.15700  0.68820  Biso   1.000  H
  C128     1.0000 0.68440  0.00530  0.76440  Biso   1.000  C
  H81      1.0000 0.64270  0.00720  0.77370  Biso   1.000  H
  C129     1.0000 0.63890  0.04240  0.87340  Biso   1.000  C
  C130     1.0000 0.71750  0.27760  0.70280  Biso   1.000  C
  H82      1.0000 0.69520  0.30170  0.72050  Biso   1.000  H
  C131     1.0000 0.72800  0.20030  0.70060  Biso   1.000  C
  H83      1.0000 0.71440  0.16220  0.71580  Biso   1.000  H
  C132     1.0000 0.20250  0.46480  0.98230  Biso   1.000  C
  H84      1.0000 0.17290  0.47510  0.96440  Biso   1.000  H
  Br25     1.0000 0.57316  0.65310  0.10709  Biso   1.000  Br
  Br26     1.0000 0.43298  0.32936  0.14985  Biso   1.000  Br
  Br27     1.0000 0.58235  0.37379  0.18045  Biso   1.000  Br
  Br28     1.0000 0.95296  0.68438  0.12378  Biso   1.000  Br
  Br29     1.0000 0.05093  0.32667  0.12129  Biso   1.000  Br
  Br30     1.0000 0.11161  0.64151  0.12752  Biso   1.000  Br
  Br31     1.0000 0.89141  0.36920  0.12441  Biso   1.000  Br
  Br32     1.0000 0.42580  0.60674  0.07555  Biso   1.000  Br
  Co7      1.0000 0.25287  0.42349  0.08626  Biso   1.000  Co
  Co8      1.0000 0.75027  0.56866  0.17051  Biso   1.000  Co
  N25      1.0000 0.24690  0.31100  0.09910  Biso   1.000  N
  N26      1.0000 0.75560  0.81530  0.32500  Biso   1.000  N
  O25      1.0000 0.63260  0.57060  0.18208  Biso   1.000  O
  N27      1.0000 0.23250  0.95330  0.02030  Biso   1.000  N
  O26      1.0000 0.16540  0.46840  0.09431  Biso   1.000  O
  O27      1.0000 0.68520  0.51300  0.14023  Biso   1.000  O
  O28      1.0000 0.32550  0.47370  0.11206  Biso   1.000  O
  O29      1.0000 0.83090  0.55260  0.09980  Biso   1.000  O
  O30      1.0000 0.37610  0.40300  0.07356  Biso   1.000  O
  C133     1.0000 0.95550  0.44730  0.12370  Biso   1.000  C
  C134     1.0000 0.11360  0.15250  0.06430  Biso   1.000  C
  H85      1.0000 0.12420  0.20130  0.07270  Biso   1.000  H
  C135     1.0000 0.04770  0.56300  0.12550  Biso   1.000  C
  N28      1.0000 0.73540  0.48870  0.27130  Biso   1.000  N
  O31      1.0000 0.16980  0.45270  0.15140  Biso   1.000  O
  C136     1.0000 0.02200  0.43020  0.12350  Biso   1.000  C
  C137     1.0000 0.37690  0.44610  0.09780  Biso   1.000  C
  N29      1.0000 0.25570  0.94090  0.96520  Biso   1.000  N
  O32      1.0000 0.84030  0.54510  0.15697  Biso   1.000  O
  C138     1.0000 0.98120  0.58050  0.12520  Biso   1.000  C
  C139     1.0000 0.25020  0.25280  0.07740  Biso   1.000  C
  H86      1.0000 0.25900  0.25800  0.05400  Biso   1.000  H
  C140     1.0000 0.23200  0.10960  0.07640  Biso   1.000  C
  H87      1.0000 0.26120  0.10660  0.05690  Biso   1.000  H
  H88      1.0000 0.24460  0.06960  0.09280  Biso   1.000  H
  C141     1.0000 0.93460  0.52270  0.12520  Biso   1.000  C
  C142     1.0000 0.05210  0.13790  0.05290  Biso   1.000  C
  H89      1.0000 0.02050  0.17650  0.05370  Biso   1.000  H
  C143     1.0000 0.53820  0.43890  0.14900  Biso   1.000  C
  C144     1.0000 0.47560  0.42110  0.13600  Biso   1.000  C
  C145     1.0000 0.47290  0.53890  0.10510  Biso   1.000  C
  C146     1.0000 0.63250  0.53270  0.15540  Biso   1.000  C
  N30      1.0000 0.23910  0.18510  0.09300  Biso   1.000  N
  C147     1.0000 0.63980  0.52450  0.30600  Biso   1.000  C
  N31      1.0000 0.73610  0.69060  0.32970  Biso   1.000  N
  C148     1.0000 0.56800  0.50800  0.13990  Biso   1.000  C
  C149     1.0000 0.52680  0.55570  0.29280  Biso   1.000  C
  H90      1.0000 0.48650  0.54300  0.28270  Biso   1.000  H
  N32      1.0000 0.75980  0.52540  0.21900  Biso   1.000  N
  C150     1.0000 0.59400  0.64440  0.32380  Biso   1.000  C
  H91      1.0000 0.59900  0.69230  0.33430  Biso   1.000  H
  C151     1.0000 0.06870  0.48790  0.12440  Biso   1.000  C
  C152     1.0000 0.03550  0.06520  0.04010  Biso   1.000  C
  H92      1.0000 0.99310  0.05540  0.03190  Biso   1.000  H
  C153     1.0000 0.44230  0.46930  0.11400  Biso   1.000  C
  C154     1.0000 0.14430  0.02140  0.05160  Biso   1.000  C
  C155     1.0000 0.20880  0.93900  0.98870  Biso   1.000  C
  H93      1.0000 0.16500  0.92890  0.98360  Biso   1.000  H
  C156     1.0000 0.16200  0.09500  0.06370  Biso   1.000  C
  C157     1.0000 0.69540  0.46770  0.30150  Biso   1.000  C
  H94      1.0000 0.67750  0.41620  0.29820  Biso   1.000  H
  H95      1.0000 0.72290  0.46720  0.32220  Biso   1.000  H
  C158     1.0000 0.14140  0.46880  0.12390  Biso   1.000  C
  C159     1.0000 0.53440  0.55630  0.11800  Biso   1.000  C
  C160     1.0000 0.80100  0.48150  0.26850  Biso   1.000  C
  H96      1.0000 0.83040  0.46400  0.28540  Biso   1.000  H
  C161     1.0000 0.22710  0.20170  0.12640  Biso   1.000  C
  H97      1.0000 0.21710  0.16630  0.14360  Biso   1.000  H
  C162     1.0000 0.72820  0.76030  0.34290  Biso   1.000  C
  H98      1.0000 0.70520  0.76940  0.36300  Biso   1.000  H
  C163     1.0000 0.31150  0.95820  0.98340  Biso   1.000  C
  H99      1.0000 0.35270  0.96460  0.97400  Biso   1.000  H
  C164     1.0000 0.71050  0.61650  0.34150  Biso   1.000  C
  H100     1.0000 0.70210  0.61950  0.36600  Biso   1.000  H
  H101     1.0000 0.74340  0.57690  0.33810  Biso   1.000  H
  C165     1.0000 0.19330  0.95530  0.05160  Biso   1.000  C
  H102     1.0000 0.16990  0.90690  0.05370  Biso   1.000  H
  H103     1.0000 0.22240  0.96020  0.07160  Biso   1.000  H
  C166     1.0000 0.08200  0.00820  0.03960  Biso   1.000  C
  H104     1.0000 0.07090  0.95970  0.03100  Biso   1.000  H
  C167     1.0000 0.23220  0.27770  0.13030  Biso   1.000  C
  H105     1.0000 0.22660  0.30420  0.15090  Biso   1.000  H
  C168     1.0000 0.64750  0.59310  0.32230  Biso   1.000  C
  C169     1.0000 0.57850  0.50710  0.29110  Biso   1.000  C
  H106     1.0000 0.57310  0.46040  0.27960  Biso   1.000  H
  C170     1.0000 0.71210  0.51490  0.24140  Biso   1.000  C
  H107     1.0000 0.66810  0.52480  0.23670  Biso   1.000  H
  C171     1.0000 0.53550  0.62370  0.30980  Biso   1.000  C
  H108     1.0000 0.50010  0.65700  0.31180  Biso   1.000  H
  C172     1.0000 0.81560  0.50530  0.23560  Biso   1.000  C
  H109     1.0000 0.85730  0.50720  0.22630  Biso   1.000  H
  C173     1.0000 0.86110  0.54240  0.12660  Biso   1.000  C
  C174     1.0000 0.78250  0.77760  0.29720  Biso   1.000  C
  H110     1.0000 0.80480  0.80170  0.27950  Biso   1.000  H
  C175     1.0000 0.77200  0.70030  0.29940  Biso   1.000  C
  H111     1.0000 0.78560  0.66220  0.28420  Biso   1.000  H
  C176     1.0000 0.29750  0.96480  0.01770  Biso   1.000  C
  H112     1.0000 0.32710  0.97510  0.03560  Biso   1.000  H
  Br33     1.0000 0.07316  0.84690  0.10709  Biso   1.000  Br
  Br34     1.0000 0.93298  0.17064  0.14985  Biso   1.000  Br
  Br35     1.0000 0.08235  0.12621  0.18045  Biso   1.000  Br
  Br36     1.0000 0.45296  0.81562  0.12378  Biso   1.000  Br
  Br37     1.0000 0.55093  0.17333  0.12129  Biso   1.000  Br
  Br38     1.0000 0.61161  0.85849  0.12752  Biso   1.000  Br
  Br39     1.0000 0.39141  0.13080  0.12441  Biso   1.000  Br
  Br40     1.0000 0.92580  0.89326  0.07555  Biso   1.000  Br
  Co9      1.0000 0.75287  0.07651  0.08626  Biso   1.000  Co
  Co10     1.0000 0.25027  0.93134  0.17051  Biso   1.000  Co
  N33      1.0000 0.74690  0.18900  0.09910  Biso   1.000  N
  N34      1.0000 0.25560  0.68470  0.32500  Biso   1.000  N
  O33      1.0000 0.13260  0.92940  0.18208  Biso   1.000  O
  N35      1.0000 0.73250  0.54670  0.02030  Biso   1.000  N
  O34      1.0000 0.66540  0.03160  0.09431  Biso   1.000  O
  O35      1.0000 0.18520  0.98700  0.14023  Biso   1.000  O
  O36      1.0000 0.82550  0.02630  0.11206  Biso   1.000  O
  O37      1.0000 0.33090  0.94740  0.09980  Biso   1.000  O
  O38      1.0000 0.87610  0.09700  0.07356  Biso   1.000  O
  C177     1.0000 0.45550  0.05270  0.12370  Biso   1.000  C
  C178     1.0000 0.61360  0.34750  0.06430  Biso   1.000  C
  H113     1.0000 0.62420  0.29870  0.07270  Biso   1.000  H
  C179     1.0000 0.54770  0.93700  0.12550  Biso   1.000  C
  N36      1.0000 0.23540  0.01130  0.27130  Biso   1.000  N
  O39      1.0000 0.66980  0.04730  0.15140  Biso   1.000  O
  C180     1.0000 0.52200  0.06980  0.12350  Biso   1.000  C
  C181     1.0000 0.87690  0.05390  0.09780  Biso   1.000  C
  N37      1.0000 0.75570  0.55910  0.96520  Biso   1.000  N
  O40      1.0000 0.34030  0.95490  0.15697  Biso   1.000  O
  C182     1.0000 0.48120  0.91950  0.12520  Biso   1.000  C
  C183     1.0000 0.75020  0.24720  0.07740  Biso   1.000  C
  H114     1.0000 0.75900  0.24200  0.05400  Biso   1.000  H
  C184     1.0000 0.73200  0.39040  0.07640  Biso   1.000  C
  H115     1.0000 0.76120  0.39340  0.05690  Biso   1.000  H
  H116     1.0000 0.74460  0.43040  0.09280  Biso   1.000  H
  C185     1.0000 0.43460  0.97730  0.12520  Biso   1.000  C
  C186     1.0000 0.55210  0.36210  0.05290  Biso   1.000  C
  H117     1.0000 0.52050  0.32350  0.05370  Biso   1.000  H
  C187     1.0000 0.03820  0.06110  0.14900  Biso   1.000  C
  C188     1.0000 0.97560  0.07890  0.13600  Biso   1.000  C
  C189     1.0000 0.97290  0.96110  0.10510  Biso   1.000  C
  C190     1.0000 0.13250  0.96730  0.15540  Biso   1.000  C
  N38      1.0000 0.73910  0.31490  0.09300  Biso   1.000  N
  C191     1.0000 0.13980  0.97550  0.30600  Biso   1.000  C
  N39      1.0000 0.23610  0.80940  0.32970  Biso   1.000  N
  C192     1.0000 0.06800  0.99200  0.13990  Biso   1.000  C
  C193     1.0000 0.02680  0.94430  0.29280  Biso   1.000  C
  H118     1.0000 0.98650  0.95700  0.28270  Biso   1.000  H
  N40      1.0000 0.25980  0.97460  0.21900  Biso   1.000  N
  C194     1.0000 0.09400  0.85560  0.32380  Biso   1.000  C
  H119     1.0000 0.09900  0.80770  0.33430  Biso   1.000  H
  C195     1.0000 0.56870  0.01210  0.12440  Biso   1.000  C
  C196     1.0000 0.53550  0.43480  0.04010  Biso   1.000  C
  H120     1.0000 0.49310  0.44460  0.03190  Biso   1.000  H
  C197     1.0000 0.94230  0.03070  0.11400  Biso   1.000  C
  C198     1.0000 0.64430  0.47860  0.05160  Biso   1.000  C
  C199     1.0000 0.70880  0.56100  0.98870  Biso   1.000  C
  H121     1.0000 0.66500  0.57110  0.98360  Biso   1.000  H
  C200     1.0000 0.66200  0.40500  0.06370  Biso   1.000  C
  C201     1.0000 0.19540  0.03230  0.30150  Biso   1.000  C
  H122     1.0000 0.17750  0.08380  0.29820  Biso   1.000  H
  H123     1.0000 0.22290  0.03280  0.32220  Biso   1.000  H
  C202     1.0000 0.64140  0.03120  0.12390  Biso   1.000  C
  C203     1.0000 0.03440  0.94370  0.11800  Biso   1.000  C
  C204     1.0000 0.30100  0.01850  0.26850  Biso   1.000  C
  H124     1.0000 0.33040  0.03600  0.28540  Biso   1.000  H
  C205     1.0000 0.72710  0.29830  0.12640  Biso   1.000  C
  H125     1.0000 0.71710  0.33370  0.14360  Biso   1.000  H
  C206     1.0000 0.22820  0.73970  0.34290  Biso   1.000  C
  H126     1.0000 0.20520  0.73060  0.36300  Biso   1.000  H
  C207     1.0000 0.81150  0.54180  0.98340  Biso   1.000  C
  H127     1.0000 0.85270  0.53540  0.97400  Biso   1.000  H
  C208     1.0000 0.21050  0.88350  0.34150  Biso   1.000  C
  H128     1.0000 0.20210  0.88050  0.36600  Biso   1.000  H
  H129     1.0000 0.24340  0.92310  0.33810  Biso   1.000  H
  C209     1.0000 0.69330  0.54470  0.05160  Biso   1.000  C
  H130     1.0000 0.66990  0.59310  0.05370  Biso   1.000  H
  H131     1.0000 0.72240  0.53980  0.07160  Biso   1.000  H
  C210     1.0000 0.58200  0.49180  0.03960  Biso   1.000  C
  H132     1.0000 0.57090  0.54030  0.03100  Biso   1.000  H
  C211     1.0000 0.73220  0.22230  0.13030  Biso   1.000  C
  H133     1.0000 0.72660  0.19580  0.15090  Biso   1.000  H
  C212     1.0000 0.14750  0.90690  0.32230  Biso   1.000  C
  C213     1.0000 0.07850  0.99290  0.29110  Biso   1.000  C
  H134     1.0000 0.07310  0.03960  0.27960  Biso   1.000  H
  C214     1.0000 0.21210  0.98510  0.24140  Biso   1.000  C
  H135     1.0000 0.16810  0.97520  0.23670  Biso   1.000  H
  C215     1.0000 0.03550  0.87630  0.30980  Biso   1.000  C
  H136     1.0000 0.00010  0.84300  0.31180  Biso   1.000  H
  C216     1.0000 0.31560  0.99470  0.23560  Biso   1.000  C
  H137     1.0000 0.35730  0.99280  0.22630  Biso   1.000  H
  C217     1.0000 0.36110  0.95760  0.12660  Biso   1.000  C
  C218     1.0000 0.28250  0.72240  0.29720  Biso   1.000  C
  H138     1.0000 0.30480  0.69830  0.27950  Biso   1.000  H
  C219     1.0000 0.27200  0.79970  0.29940  Biso   1.000  C
  H139     1.0000 0.28560  0.83780  0.28420  Biso   1.000  H
  C220     1.0000 0.79750  0.53520  0.01770  Biso   1.000  C
  H140     1.0000 0.82710  0.52490  0.03560  Biso   1.000  H
  Br41     1.0000 0.42684  0.34690  0.89291  Biso   1.000  Br
  Br42     1.0000 0.56702  0.67064  0.85015  Biso   1.000  Br
  Br43     1.0000 0.41765  0.62621  0.81955  Biso   1.000  Br
  Br44     1.0000 0.04704  0.31562  0.87622  Biso   1.000  Br
  Br45     1.0000 0.94907  0.67333  0.87871  Biso   1.000  Br
  Br46     1.0000 0.88839  0.35849  0.87248  Biso   1.000  Br
  Br47     1.0000 0.10859  0.63080  0.87559  Biso   1.000  Br
  Br48     1.0000 0.57420  0.39326  0.92445  Biso   1.000  Br
  Co11     1.0000 0.74713  0.57651  0.91374  Biso   1.000  Co
  Co12     1.0000 0.24973  0.43134  0.82949  Biso   1.000  Co
  N41      1.0000 0.75310  0.68900  0.90090  Biso   1.000  N
  N42      1.0000 0.24440  0.18470  0.67500  Biso   1.000  N
  O41      1.0000 0.36740  0.42940  0.81792  Biso   1.000  O
  N43      1.0000 0.76750  0.04670  0.97970  Biso   1.000  N
  O42      1.0000 0.83460  0.53160  0.90569  Biso   1.000  O
  O43      1.0000 0.31480  0.48700  0.85977  Biso   1.000  O
  O44      1.0000 0.67450  0.52630  0.88794  Biso   1.000  O
  O45      1.0000 0.16910  0.44740  0.90020  Biso   1.000  O
  O46      1.0000 0.62390  0.59700  0.92644  Biso   1.000  O
  C221     1.0000 0.04450  0.55270  0.87630  Biso   1.000  C
  C222     1.0000 0.88640  0.84750  0.93570  Biso   1.000  C
  H141     1.0000 0.87580  0.79870  0.92730  Biso   1.000  H
  C223     1.0000 0.95230  0.43700  0.87450  Biso   1.000  C
  N44      1.0000 0.26460  0.51130  0.72870  Biso   1.000  N
  O47      1.0000 0.83020  0.54730  0.84860  Biso   1.000  O
  C224     1.0000 0.97800  0.56980  0.87650  Biso   1.000  C
  C225     1.0000 0.62310  0.55390  0.90220  Biso   1.000  C
  N45      1.0000 0.74430  0.05910  0.03480  Biso   1.000  N
  O48      1.0000 0.15970  0.45490  0.84303  Biso   1.000  O
  C226     1.0000 0.01880  0.41950  0.87480  Biso   1.000  C
  C227     1.0000 0.74980  0.74720  0.92260  Biso   1.000  C
  H142     1.0000 0.74100  0.74200  0.94600  Biso   1.000  H
  C228     1.0000 0.76800  0.89040  0.92360  Biso   1.000  C
  H143     1.0000 0.73880  0.89340  0.94310  Biso   1.000  H
  H144     1.0000 0.75540  0.93040  0.90720  Biso   1.000  H
  C229     1.0000 0.06540  0.47730  0.87480  Biso   1.000  C
  C230     1.0000 0.94790  0.86210  0.94710  Biso   1.000  C
  H145     1.0000 0.97950  0.82350  0.94630  Biso   1.000  H
  C231     1.0000 0.46180  0.56110  0.85100  Biso   1.000  C
  C232     1.0000 0.52440  0.57890  0.86400  Biso   1.000  C
  C233     1.0000 0.52710  0.46110  0.89490  Biso   1.000  C
  C234     1.0000 0.36750  0.46730  0.84460  Biso   1.000  C
  N46      1.0000 0.76090  0.81490  0.90700  Biso   1.000  N
  C235     1.0000 0.36020  0.47550  0.69400  Biso   1.000  C
  N47      1.0000 0.26390  0.30940  0.67030  Biso   1.000  N
  C236     1.0000 0.43200  0.49200  0.86010  Biso   1.000  C
  C237     1.0000 0.47320  0.44430  0.70720  Biso   1.000  C
  H146     1.0000 0.51350  0.45700  0.71730  Biso   1.000  H
  N48      1.0000 0.24020  0.47460  0.78100  Biso   1.000  N
  C238     1.0000 0.40600  0.35560  0.67620  Biso   1.000  C
  H147     1.0000 0.40100  0.30770  0.66570  Biso   1.000  H
  C239     1.0000 0.93130  0.51210  0.87560  Biso   1.000  C
  C240     1.0000 0.96450  0.93480  0.95990  Biso   1.000  C
  H148     1.0000 0.00690  0.94460  0.96810  Biso   1.000  H
  C241     1.0000 0.55770  0.53070  0.88600  Biso   1.000  C
  C242     1.0000 0.85570  0.97860  0.94840  Biso   1.000  C
  C243     1.0000 0.79120  0.06100  0.01130  Biso   1.000  C
  H149     1.0000 0.83500  0.07110  0.01640  Biso   1.000  H
  C244     1.0000 0.83800  0.90500  0.93630  Biso   1.000  C
  C245     1.0000 0.30460  0.53230  0.69850  Biso   1.000  C
  H150     1.0000 0.32250  0.58380  0.70180  Biso   1.000  H
  H151     1.0000 0.27710  0.53280  0.67780  Biso   1.000  H
  C246     1.0000 0.85860  0.53120  0.87610  Biso   1.000  C
  C247     1.0000 0.46560  0.44370  0.88200  Biso   1.000  C
  C248     1.0000 0.19900  0.51850  0.73150  Biso   1.000  C
  H152     1.0000 0.16960  0.53600  0.71460  Biso   1.000  H
  C249     1.0000 0.77290  0.79830  0.87360  Biso   1.000  C
  H153     1.0000 0.78290  0.83370  0.85640  Biso   1.000  H
  C250     1.0000 0.27180  0.23970  0.65710  Biso   1.000  C
  H154     1.0000 0.29480  0.23060  0.63700  Biso   1.000  H
  C251     1.0000 0.68850  0.04180  0.01660  Biso   1.000  C
  H155     1.0000 0.64730  0.03540  0.02600  Biso   1.000  H
  C252     1.0000 0.28950  0.38350  0.65850  Biso   1.000  C
  H156     1.0000 0.29790  0.38050  0.63400  Biso   1.000  H
  H157     1.0000 0.25660  0.42310  0.66190  Biso   1.000  H
  C253     1.0000 0.80670  0.04470  0.94840  Biso   1.000  C
  H158     1.0000 0.83010  0.09310  0.94630  Biso   1.000  H
  H159     1.0000 0.77760  0.03980  0.92840  Biso   1.000  H
  C254     1.0000 0.91800  0.99180  0.96040  Biso   1.000  C
  H160     1.0000 0.92910  0.04030  0.96900  Biso   1.000  H
  C255     1.0000 0.76780  0.72230  0.86970  Biso   1.000  C
  H161     1.0000 0.77340  0.69580  0.84910  Biso   1.000  H
  C256     1.0000 0.35250  0.40690  0.67770  Biso   1.000  C
  C257     1.0000 0.42150  0.49290  0.70890  Biso   1.000  C
  H162     1.0000 0.42690  0.53960  0.72040  Biso   1.000  H
  C258     1.0000 0.28790  0.48510  0.75860  Biso   1.000  C
  H163     1.0000 0.33190  0.47520  0.76330  Biso   1.000  H
  C259     1.0000 0.46450  0.37630  0.69020  Biso   1.000  C
  H164     1.0000 0.49990  0.34300  0.68820  Biso   1.000  H
  C260     1.0000 0.18440  0.49470  0.76440  Biso   1.000  C
  H165     1.0000 0.14270  0.49280  0.77370  Biso   1.000  H
  C261     1.0000 0.13890  0.45760  0.87340  Biso   1.000  C
  C262     1.0000 0.21750  0.22240  0.70280  Biso   1.000  C
  H166     1.0000 0.19520  0.19830  0.72050  Biso   1.000  H
  C263     1.0000 0.22800  0.29970  0.70060  Biso   1.000  C
  H167     1.0000 0.21440  0.33780  0.71580  Biso   1.000  H
  C264     1.0000 0.70250  0.03520  0.98230  Biso   1.000  C
  H168     1.0000 0.67290  0.02490  0.96440  Biso   1.000  H
  Br49     1.0000 0.42684  0.65310  0.39291  Biso   1.000  Br
  Br50     1.0000 0.56702  0.32936  0.35015  Biso   1.000  Br
  Br51     1.0000 0.41765  0.37379  0.31955  Biso   1.000  Br
  Br52     1.0000 0.04704  0.68438  0.37622  Biso   1.000  Br
  Br53     1.0000 0.94907  0.32667  0.37871  Biso   1.000  Br
  Br54     1.0000 0.88839  0.64151  0.37248  Biso   1.000  Br
  Br55     1.0000 0.10859  0.36920  0.37559  Biso   1.000  Br
  Br56     1.0000 0.57420  0.60674  0.42445  Biso   1.000  Br
  Co13     1.0000 0.74713  0.42349  0.41374  Biso   1.000  Co
  Co14     1.0000 0.24973  0.56866  0.32949  Biso   1.000  Co
  N49      1.0000 0.75310  0.31100  0.40090  Biso   1.000  N
  N50      1.0000 0.24440  0.81530  0.17500  Biso   1.000  N
  O49      1.0000 0.36740  0.57060  0.31792  Biso   1.000  O
  N51      1.0000 0.76750  0.95330  0.47970  Biso   1.000  N
  O50      1.0000 0.83460  0.46840  0.40569  Biso   1.000  O
  O51      1.0000 0.31480  0.51300  0.35977  Biso   1.000  O
  O52      1.0000 0.67450  0.47370  0.38794  Biso   1.000  O
  O53      1.0000 0.16910  0.55260  0.40020  Biso   1.000  O
  O54      1.0000 0.62390  0.40300  0.42644  Biso   1.000  O
  C265     1.0000 0.04450  0.44730  0.37630  Biso   1.000  C
  C266     1.0000 0.88640  0.15250  0.43570  Biso   1.000  C
  H169     1.0000 0.87580  0.20130  0.42730  Biso   1.000  H
  C267     1.0000 0.95230  0.56300  0.37450  Biso   1.000  C
  N52      1.0000 0.26460  0.48870  0.22870  Biso   1.000  N
  O55      1.0000 0.83020  0.45270  0.34860  Biso   1.000  O
  C268     1.0000 0.97800  0.43020  0.37650  Biso   1.000  C
  C269     1.0000 0.62310  0.44610  0.40220  Biso   1.000  C
  N53      1.0000 0.74430  0.94090  0.53480  Biso   1.000  N
  O56      1.0000 0.15970  0.54510  0.34303  Biso   1.000  O
  C270     1.0000 0.01880  0.58050  0.37480  Biso   1.000  C
  C271     1.0000 0.74980  0.25280  0.42260  Biso   1.000  C
  H170     1.0000 0.74100  0.25800  0.44600  Biso   1.000  H
  C272     1.0000 0.76800  0.10960  0.42360  Biso   1.000  C
  H171     1.0000 0.73880  0.10660  0.44310  Biso   1.000  H
  H172     1.0000 0.75540  0.06960  0.40720  Biso   1.000  H
  C273     1.0000 0.06540  0.52270  0.37480  Biso   1.000  C
  C274     1.0000 0.94790  0.13790  0.44710  Biso   1.000  C
  H173     1.0000 0.97950  0.17650  0.44630  Biso   1.000  H
  C275     1.0000 0.46180  0.43890  0.35100  Biso   1.000  C
  C276     1.0000 0.52440  0.42110  0.36400  Biso   1.000  C
  C277     1.0000 0.52710  0.53890  0.39490  Biso   1.000  C
  C278     1.0000 0.36750  0.53270  0.34460  Biso   1.000  C
  N54      1.0000 0.76090  0.18510  0.40700  Biso   1.000  N
  C279     1.0000 0.36020  0.52450  0.19400  Biso   1.000  C
  N55      1.0000 0.26390  0.69060  0.17030  Biso   1.000  N
  C280     1.0000 0.43200  0.50800  0.36010  Biso   1.000  C
  C281     1.0000 0.47320  0.55570  0.20720  Biso   1.000  C
  H174     1.0000 0.51350  0.54300  0.21730  Biso   1.000  H
  N56      1.0000 0.24020  0.52540  0.28100  Biso   1.000  N
  C282     1.0000 0.40600  0.64440  0.17620  Biso   1.000  C
  H175     1.0000 0.40100  0.69230  0.16570  Biso   1.000  H
  C283     1.0000 0.93130  0.48790  0.37560  Biso   1.000  C
  C284     1.0000 0.96450  0.06520  0.45990  Biso   1.000  C
  H176     1.0000 0.00690  0.05540  0.46810  Biso   1.000  H
  C285     1.0000 0.55770  0.46930  0.38600  Biso   1.000  C
  C286     1.0000 0.85570  0.02140  0.44840  Biso   1.000  C
  C287     1.0000 0.79120  0.93900  0.51130  Biso   1.000  C
  H177     1.0000 0.83500  0.92890  0.51640  Biso   1.000  H
  C288     1.0000 0.83800  0.09500  0.43630  Biso   1.000  C
  C289     1.0000 0.30460  0.46770  0.19850  Biso   1.000  C
  H178     1.0000 0.32250  0.41620  0.20180  Biso   1.000  H
  H179     1.0000 0.27710  0.46720  0.17780  Biso   1.000  H
  C290     1.0000 0.85860  0.46880  0.37610  Biso   1.000  C
  C291     1.0000 0.46560  0.55630  0.38200  Biso   1.000  C
  C292     1.0000 0.19900  0.48150  0.23150  Biso   1.000  C
  H180     1.0000 0.16960  0.46400  0.21460  Biso   1.000  H
  C293     1.0000 0.77290  0.20170  0.37360  Biso   1.000  C
  H181     1.0000 0.78290  0.16630  0.35640  Biso   1.000  H
  C294     1.0000 0.27180  0.76030  0.15710  Biso   1.000  C
  H182     1.0000 0.29480  0.76940  0.13700  Biso   1.000  H
  C295     1.0000 0.68850  0.95820  0.51660  Biso   1.000  C
  H183     1.0000 0.64730  0.96460  0.52600  Biso   1.000  H
  C296     1.0000 0.28950  0.61650  0.15850  Biso   1.000  C
  H184     1.0000 0.29790  0.61950  0.13400  Biso   1.000  H
  H185     1.0000 0.25660  0.57690  0.16190  Biso   1.000  H
  C297     1.0000 0.80670  0.95530  0.44840  Biso   1.000  C
  H186     1.0000 0.83010  0.90690  0.44630  Biso   1.000  H
  H187     1.0000 0.77760  0.96020  0.42840  Biso   1.000  H
  C298     1.0000 0.91800  0.00820  0.46040  Biso   1.000  C
  H188     1.0000 0.92910  0.95970  0.46900  Biso   1.000  H
  C299     1.0000 0.76780  0.27770  0.36970  Biso   1.000  C
  H189     1.0000 0.77340  0.30420  0.34910  Biso   1.000  H
  C300     1.0000 0.35250  0.59310  0.17770  Biso   1.000  C
  C301     1.0000 0.42150  0.50710  0.20890  Biso   1.000  C
  H190     1.0000 0.42690  0.46040  0.22040  Biso   1.000  H
  C302     1.0000 0.28790  0.51490  0.25860  Biso   1.000  C
  H191     1.0000 0.33190  0.52480  0.26330  Biso   1.000  H
  C303     1.0000 0.46450  0.62370  0.19020  Biso   1.000  C
  H192     1.0000 0.49990  0.65700  0.18820  Biso   1.000  H
  C304     1.0000 0.18440  0.50530  0.26440  Biso   1.000  C
  H193     1.0000 0.14270  0.50720  0.27370  Biso   1.000  H
  C305     1.0000 0.13890  0.54240  0.37340  Biso   1.000  C
  C306     1.0000 0.21750  0.77760  0.20280  Biso   1.000  C
  H194     1.0000 0.19520  0.80170  0.22050  Biso   1.000  H
  C307     1.0000 0.22800  0.70030  0.20060  Biso   1.000  C
  H195     1.0000 0.21440  0.66220  0.21580  Biso   1.000  H
  C308     1.0000 0.70250  0.96480  0.48230  Biso   1.000  C
  H196     1.0000 0.67290  0.97510  0.46440  Biso   1.000  H
  Br57     1.0000 0.07316  0.15310  0.60709  Biso   1.000  Br
  Br58     1.0000 0.93298  0.82936  0.64985  Biso   1.000  Br
  Br59     1.0000 0.08235  0.87379  0.68045  Biso   1.000  Br
  Br60     1.0000 0.45296  0.18438  0.62378  Biso   1.000  Br
  Br61     1.0000 0.55093  0.82667  0.62129  Biso   1.000  Br
  Br62     1.0000 0.61161  0.14151  0.62752  Biso   1.000  Br
  Br63     1.0000 0.39141  0.86920  0.62441  Biso   1.000  Br
  Br64     1.0000 0.92580  0.10674  0.57555  Biso   1.000  Br
  Co15     1.0000 0.75287  0.92349  0.58626  Biso   1.000  Co
  Co16     1.0000 0.25027  0.06866  0.67051  Biso   1.000  Co
  N57      1.0000 0.74690  0.81100  0.59910  Biso   1.000  N
  N58      1.0000 0.25560  0.31530  0.82500  Biso   1.000  N
  O57      1.0000 0.13260  0.07060  0.68208  Biso   1.000  O
  N59      1.0000 0.73250  0.45330  0.52030  Biso   1.000  N
  O58      1.0000 0.66540  0.96840  0.59431  Biso   1.000  O
  O59      1.0000 0.18520  0.01300  0.64023  Biso   1.000  O
  O60      1.0000 0.82550  0.97370  0.61206  Biso   1.000  O
  O61      1.0000 0.33090  0.05260  0.59980  Biso   1.000  O
  O62      1.0000 0.87610  0.90300  0.57356  Biso   1.000  O
  C309     1.0000 0.45550  0.94730  0.62370  Biso   1.000  C
  C310     1.0000 0.61360  0.65250  0.56430  Biso   1.000  C
  H197     1.0000 0.62420  0.70130  0.57270  Biso   1.000  H
  C311     1.0000 0.54770  0.06300  0.62550  Biso   1.000  C
  N60      1.0000 0.23540  0.98870  0.77130  Biso   1.000  N
  O63      1.0000 0.66980  0.95270  0.65140  Biso   1.000  O
  C312     1.0000 0.52200  0.93020  0.62350  Biso   1.000  C
  C313     1.0000 0.87690  0.94610  0.59780  Biso   1.000  C
  N61      1.0000 0.75570  0.44090  0.46520  Biso   1.000  N
  O64      1.0000 0.34030  0.04510  0.65697  Biso   1.000  O
  C314     1.0000 0.48120  0.08050  0.62520  Biso   1.000  C
  C315     1.0000 0.75020  0.75280  0.57740  Biso   1.000  C
  H198     1.0000 0.75900  0.75800  0.55400  Biso   1.000  H
  C316     1.0000 0.73200  0.60960  0.57640  Biso   1.000  C
  H199     1.0000 0.76120  0.60660  0.55690  Biso   1.000  H
  H200     1.0000 0.74460  0.56960  0.59280  Biso   1.000  H
  C317     1.0000 0.43460  0.02270  0.62520  Biso   1.000  C
  C318     1.0000 0.55210  0.63790  0.55290  Biso   1.000  C
  H201     1.0000 0.52050  0.67650  0.55370  Biso   1.000  H
  C319     1.0000 0.03820  0.93890  0.64900  Biso   1.000  C
  C320     1.0000 0.97560  0.92110  0.63600  Biso   1.000  C
  C321     1.0000 0.97290  0.03890  0.60510  Biso   1.000  C
  C322     1.0000 0.13250  0.03270  0.65540  Biso   1.000  C
  N62      1.0000 0.73910  0.68510  0.59300  Biso   1.000  N
  C323     1.0000 0.13980  0.02450  0.80600  Biso   1.000  C
  N63      1.0000 0.23610  0.19060  0.82970  Biso   1.000  N
  C324     1.0000 0.06800  0.00800  0.63990  Biso   1.000  C
  C325     1.0000 0.02680  0.05570  0.79280  Biso   1.000  C
  H202     1.0000 0.98650  0.04300  0.78270  Biso   1.000  H
  N64      1.0000 0.25980  0.02540  0.71900  Biso   1.000  N
  C326     1.0000 0.09400  0.14440  0.82380  Biso   1.000  C
  H203     1.0000 0.09900  0.19230  0.83430  Biso   1.000  H
  C327     1.0000 0.56870  0.98790  0.62440  Biso   1.000  C
  C328     1.0000 0.53550  0.56520  0.54010  Biso   1.000  C
  H204     1.0000 0.49310  0.55540  0.53190  Biso   1.000  H
  C329     1.0000 0.94230  0.96930  0.61400  Biso   1.000  C
  C330     1.0000 0.64430  0.52140  0.55160  Biso   1.000  C
  C331     1.0000 0.70880  0.43900  0.48870  Biso   1.000  C
  H205     1.0000 0.66500  0.42890  0.48360  Biso   1.000  H
  C332     1.0000 0.66200  0.59500  0.56370  Biso   1.000  C
  C333     1.0000 0.19540  0.96770  0.80150  Biso   1.000  C
  H206     1.0000 0.17750  0.91620  0.79820  Biso   1.000  H
  H207     1.0000 0.22290  0.96720  0.82220  Biso   1.000  H
  C334     1.0000 0.64140  0.96880  0.62390  Biso   1.000  C
  C335     1.0000 0.03440  0.05630  0.61800  Biso   1.000  C
  C336     1.0000 0.30100  0.98150  0.76850  Biso   1.000  C
  H208     1.0000 0.33040  0.96400  0.78540  Biso   1.000  H
  C337     1.0000 0.72710  0.70170  0.62640  Biso   1.000  C
  H209     1.0000 0.71710  0.66630  0.64360  Biso   1.000  H
  C338     1.0000 0.22820  0.26030  0.84290  Biso   1.000  C
  H210     1.0000 0.20520  0.26940  0.86300  Biso   1.000  H
  C339     1.0000 0.81150  0.45820  0.48340  Biso   1.000  C
  H211     1.0000 0.85270  0.46460  0.47400  Biso   1.000  H
  C340     1.0000 0.21050  0.11650  0.84150  Biso   1.000  C
  H212     1.0000 0.20210  0.11950  0.86600  Biso   1.000  H
  H213     1.0000 0.24340  0.07690  0.83810  Biso   1.000  H
  C341     1.0000 0.69330  0.45530  0.55160  Biso   1.000  C
  H214     1.0000 0.66990  0.40690  0.55370  Biso   1.000  H
  H215     1.0000 0.72240  0.46020  0.57160  Biso   1.000  H
  C342     1.0000 0.58200  0.50820  0.53960  Biso   1.000  C
  H216     1.0000 0.57090  0.45970  0.53100  Biso   1.000  H
  C343     1.0000 0.73220  0.77770  0.63030  Biso   1.000  C
  H217     1.0000 0.72660  0.80420  0.65090  Biso   1.000  H
  C344     1.0000 0.14750  0.09310  0.82230  Biso   1.000  C
  C345     1.0000 0.07850  0.00710  0.79110  Biso   1.000  C
  H218     1.0000 0.07310  0.96040  0.77960  Biso   1.000  H
  C346     1.0000 0.21210  0.01490  0.74140  Biso   1.000  C
  H219     1.0000 0.16810  0.02480  0.73670  Biso   1.000  H
  C347     1.0000 0.03550  0.12370  0.80980  Biso   1.000  C
  H220     1.0000 0.00010  0.15700  0.81180  Biso   1.000  H
  C348     1.0000 0.31560  0.00530  0.73560  Biso   1.000  C
  H221     1.0000 0.35730  0.00720  0.72630  Biso   1.000  H
  C349     1.0000 0.36110  0.04240  0.62660  Biso   1.000  C
  C350     1.0000 0.28250  0.27760  0.79720  Biso   1.000  C
  H222     1.0000 0.30480  0.30170  0.77950  Biso   1.000  H
  C351     1.0000 0.27200  0.20030  0.79940  Biso   1.000  C
  H223     1.0000 0.28560  0.16220  0.78420  Biso   1.000  H
  C352     1.0000 0.79750  0.46480  0.51770  Biso   1.000  C
  H224     1.0000 0.82710  0.47510  0.53560  Biso   1.000  H
