data_image0
_cell_length_a       27.165
_cell_length_b       13.745
_cell_length_c       46.162
_cell_angle_alpha    90
_cell_angle_beta     90
_cell_angle_gamma    90

_symmetry_space_group_name_H-M    "P 1"
_symmetry_int_tables_number       1

loop_
  _symmetry_equiv_pos_as_xyz
  'x, y, z'

loop_
  _atom_site_label
  _atom_site_occupancy
  _atom_site_fract_x
  _atom_site_fract_y
  _atom_site_fract_z
  _atom_site_thermal_displace_type
  _atom_site_B_iso_or_equiv
  _atom_site_type_symbol
  Zn1      1.0000 0.75044  0.14559  0.19256  Biso   1.000  Zn
  Zn2      1.0000 0.46429  0.84555  0.40430  Biso   1.000  Zn
  Zn3      1.0000 0.95086  0.85653  0.43566  Biso   1.000  Zn
  I1       1.0000 0.69729  0.29735  0.20088  Biso   1.000  I
  I2       1.0000 0.84194  0.16188  0.18123  Biso   1.000  I
  I3       1.0000 0.47429  0.75766  0.45262  Biso   1.000  I
  I4       1.0000 0.41986  0.77142  0.36105  Biso   1.000  I
  I5       1.0000 0.01784  0.94634  0.40815  Biso   1.000  I
  I6       1.0000 0.95903  0.67950  0.45157  Biso   1.000  I
  C1       1.0000 0.69850  0.05680  0.24182  Biso   1.000  C
  H1       1.0000 0.67080  0.07960  0.23130  Biso   1.000  H
  C2       1.0000 0.69120  0.01950  0.26916  Biso   1.000  C
  H2       1.0000 0.65910  0.01530  0.27710  Biso   1.000  H
  C3       1.0000 0.73180  0.98790  0.28489  Biso   1.000  C
  C4       1.0000 0.77790  0.99130  0.27175  Biso   1.000  C
  H3       1.0000 0.80620  0.96820  0.28170  Biso   1.000  H
  C5       1.0000 0.78180  0.02850  0.24424  Biso   1.000  C
  H4       1.0000 0.81330  0.03020  0.23530  Biso   1.000  H
  C6       1.0000 0.57250  0.88530  0.40570  Biso   1.000  C
  H5       1.0000 0.56760  0.87780  0.42600  Biso   1.000  H
  C7       1.0000 0.61990  0.89780  0.39561  Biso   1.000  C
  H6       1.0000 0.64700  0.89840  0.40860  Biso   1.000  H
  C8       1.0000 0.62710  0.90930  0.36605  Biso   1.000  C
  C9       1.0000 0.58650  0.91050  0.34776  Biso   1.000  C
  H7       1.0000 0.59030  0.92130  0.32760  Biso   1.000  H
  C10      1.0000 0.54030  0.89570  0.35968  Biso   1.000  C
  H8       1.0000 0.51260  0.89420  0.34710  Biso   1.000  H
  C11      1.0000 0.89140  0.89870  0.38258  Biso   1.000  C
  H9       1.0000 0.92320  0.90500  0.37430  Biso   1.000  H
  C12      1.0000 0.85080  0.91300  0.36509  Biso   1.000  C
  H10      1.0000 0.85480  0.92840  0.34520  Biso   1.000  H
  C13      1.0000 0.80400  0.90460  0.37702  Biso   1.000  C
  C14      1.0000 0.80000  0.88150  0.40594  Biso   1.000  C
  H11      1.0000 0.76850  0.87570  0.41470  Biso   1.000  H
  C15      1.0000 0.84220  0.86680  0.42208  Biso   1.000  C
  H12      1.0000 0.83910  0.84950  0.44190  Biso   1.000  H
  C16      1.0000 0.72610  0.95630  0.31553  Biso   1.000  C
  C17      1.0000 0.67760  0.92260  0.35386  Biso   1.000  C
  C18      1.0000 0.75980  0.91910  0.35861  Biso   1.000  C
  C19      1.0000 0.60130  0.10540  0.99129  Biso   1.000  C
  H13      1.0000 0.61210  0.17030  0.98820  Biso   1.000  H
  C20      1.0000 0.61950  0.05480  0.01496  Biso   1.000  C
  H14      1.0000 0.64250  0.08420  0.02770  Biso   1.000  H
  C21      1.0000 0.60330  0.95960  0.01964  Biso   1.000  C
  C22      1.0000 0.56950  0.91960  0.00059  Biso   1.000  C
  H15      1.0000 0.55780  0.85520  0.00340  Biso   1.000  H
  C23      1.0000 0.55310  0.97480  0.97726  Biso   1.000  C
  H16      1.0000 0.52990  0.94720  0.96420  Biso   1.000  H
  C24      1.0000 0.71310  0.97000  0.16159  Biso   1.000  C
  H17      1.0000 0.72650  0.93720  0.17790  Biso   1.000  H
  C25      1.0000 0.69240  0.91520  0.13939  Biso   1.000  C
  H18      1.0000 0.69170  0.84620  0.14050  Biso   1.000  H
  C26      1.0000 0.67270  0.96300  0.11558  Biso   1.000  C
  C27      1.0000 0.67340  0.06440  0.11515  Biso   1.000  C
  H19      1.0000 0.65960  0.09910  0.09930  Biso   1.000  H
  C28      1.0000 0.69470  0.11380  0.13818  Biso   1.000  C
  H20      1.0000 0.69500  0.18290  0.13790  Biso   1.000  H
  C29      1.0000 0.57610  0.51210  0.06066  Biso   1.000  C
  H21      1.0000 0.57160  0.46860  0.04490  Biso   1.000  H
  C30      1.0000 0.59300  0.60630  0.05496  Biso   1.000  C
  H22      1.0000 0.59880  0.62730  0.03560  Biso   1.000  H
  C31      1.0000 0.60110  0.66860  0.07827  Biso   1.000  C
  C32      1.0000 0.59160  0.63520  0.10601  Biso   1.000  C
  H23      1.0000 0.59720  0.67600  0.12230  Biso   1.000  H
  C33      1.0000 0.57420  0.54260  0.10965  Biso   1.000  C
  H24      1.0000 0.56740  0.52050  0.12870  Biso   1.000  H
  C34      1.0000 0.62010  0.90540  0.04580  Biso   1.000  C
  C35      1.0000 0.65020  0.90780  0.09118  Biso   1.000  C
  C36      1.0000 0.61730  0.77030  0.07351  Biso   1.000  C
  N1       1.0000 0.74310  0.06240  0.22945  Biso   1.000  N
  N2       1.0000 0.53290  0.88330  0.38820  Biso   1.000  N
  N3       1.0000 0.88773  0.87620  0.41066  Biso   1.000  N
  N4       1.0000 0.68040  0.94700  0.32578  Biso   1.000  N
  N5       1.0000 0.71570  0.90790  0.37133  Biso   1.000  N
  N6       1.0000 0.76726  0.94230  0.33087  Biso   1.000  N
  N7       1.0000 0.56905  0.06630  0.97261  Biso   1.000  N
  N8       1.0000 0.71480  0.06750  0.16079  Biso   1.000  N
  N9       1.0000 0.56620  0.48120  0.08736  Biso   1.000  N
  N10      1.0000 0.64290  0.95690  0.06646  Biso   1.000  N
  N11      1.0000 0.63820  0.81560  0.09597  Biso   1.000  N
  N12      1.0000 0.60810  0.81070  0.04746  Biso   1.000  N
  Zn4      1.0000 0.74956  0.85441  0.69256  Biso   1.000  Zn
  Zn5      1.0000 0.03571  0.15445  0.90430  Biso   1.000  Zn
  Zn6      1.0000 0.54914  0.14347  0.93566  Biso   1.000  Zn
  I7       1.0000 0.80271  0.70265  0.70088  Biso   1.000  I
  I8       1.0000 0.65806  0.83812  0.68123  Biso   1.000  I
  I9       1.0000 0.02571  0.24234  0.95262  Biso   1.000  I
  I10      1.0000 0.08014  0.22858  0.86105  Biso   1.000  I
  I11      1.0000 0.48216  0.05366  0.90815  Biso   1.000  I
  I12      1.0000 0.54097  0.32050  0.95157  Biso   1.000  I
  C37      1.0000 0.80150  0.94320  0.74182  Biso   1.000  C
  H25      1.0000 0.82920  0.92040  0.73130  Biso   1.000  H
  C38      1.0000 0.80880  0.98050  0.76916  Biso   1.000  C
  H26      1.0000 0.84090  0.98470  0.77710  Biso   1.000  H
  C39      1.0000 0.76820  0.01210  0.78489  Biso   1.000  C
  C40      1.0000 0.72210  0.00870  0.77175  Biso   1.000  C
  H27      1.0000 0.69380  0.03180  0.78170  Biso   1.000  H
  C41      1.0000 0.71820  0.97150  0.74424  Biso   1.000  C
  H28      1.0000 0.68670  0.96980  0.73530  Biso   1.000  H
  C42      1.0000 0.92750  0.11470  0.90570  Biso   1.000  C
  H29      1.0000 0.93240  0.12220  0.92600  Biso   1.000  H
  C43      1.0000 0.88010  0.10220  0.89561  Biso   1.000  C
  H30      1.0000 0.85300  0.10160  0.90860  Biso   1.000  H
  C44      1.0000 0.87290  0.09070  0.86605  Biso   1.000  C
  C45      1.0000 0.91350  0.08950  0.84776  Biso   1.000  C
  H31      1.0000 0.90970  0.07870  0.82760  Biso   1.000  H
  C46      1.0000 0.95970  0.10430  0.85968  Biso   1.000  C
  H32      1.0000 0.98740  0.10580  0.84710  Biso   1.000  H
  C47      1.0000 0.60860  0.10130  0.88258  Biso   1.000  C
  H33      1.0000 0.57680  0.09500  0.87430  Biso   1.000  H
  C48      1.0000 0.64920  0.08700  0.86509  Biso   1.000  C
  H34      1.0000 0.64520  0.07160  0.84520  Biso   1.000  H
  C49      1.0000 0.69600  0.09540  0.87702  Biso   1.000  C
  C50      1.0000 0.70000  0.11850  0.90594  Biso   1.000  C
  H35      1.0000 0.73150  0.12430  0.91470  Biso   1.000  H
  C51      1.0000 0.65780  0.13320  0.92208  Biso   1.000  C
  H36      1.0000 0.66090  0.15050  0.94190  Biso   1.000  H
  C52      1.0000 0.77390  0.04370  0.81553  Biso   1.000  C
  C53      1.0000 0.82240  0.07740  0.85386  Biso   1.000  C
  C54      1.0000 0.74020  0.08090  0.85861  Biso   1.000  C
  C55      1.0000 0.89870  0.89460  0.49129  Biso   1.000  C
  H37      1.0000 0.88790  0.82970  0.48820  Biso   1.000  H
  C56      1.0000 0.88050  0.94520  0.51496  Biso   1.000  C
  H38      1.0000 0.85750  0.91580  0.52770  Biso   1.000  H
  C57      1.0000 0.89670  0.04040  0.51964  Biso   1.000  C
  C58      1.0000 0.93050  0.08040  0.50059  Biso   1.000  C
  H39      1.0000 0.94220  0.14480  0.50340  Biso   1.000  H
  C59      1.0000 0.94690  0.02520  0.47726  Biso   1.000  C
  H40      1.0000 0.97010  0.05280  0.46420  Biso   1.000  H
  C60      1.0000 0.78690  0.03000  0.66159  Biso   1.000  C
  H41      1.0000 0.77350  0.06280  0.67790  Biso   1.000  H
  C61      1.0000 0.80760  0.08480  0.63939  Biso   1.000  C
  H42      1.0000 0.80830  0.15380  0.64050  Biso   1.000  H
  C62      1.0000 0.82730  0.03700  0.61558  Biso   1.000  C
  C63      1.0000 0.82660  0.93560  0.61515  Biso   1.000  C
  H43      1.0000 0.84040  0.90090  0.59930  Biso   1.000  H
  C64      1.0000 0.80530  0.88620  0.63818  Biso   1.000  C
  H44      1.0000 0.80500  0.81710  0.63790  Biso   1.000  H
  C65      1.0000 0.92390  0.48790  0.56066  Biso   1.000  C
  H45      1.0000 0.92840  0.53140  0.54490  Biso   1.000  H
  C66      1.0000 0.90700  0.39370  0.55496  Biso   1.000  C
  H46      1.0000 0.90120  0.37270  0.53560  Biso   1.000  H
  C67      1.0000 0.89890  0.33140  0.57827  Biso   1.000  C
  C68      1.0000 0.90840  0.36480  0.60601  Biso   1.000  C
  H47      1.0000 0.90280  0.32400  0.62230  Biso   1.000  H
  C69      1.0000 0.92580  0.45740  0.60965  Biso   1.000  C
  H48      1.0000 0.93260  0.47950  0.62870  Biso   1.000  H
  C70      1.0000 0.87990  0.09460  0.54580  Biso   1.000  C
  C71      1.0000 0.84980  0.09220  0.59118  Biso   1.000  C
  C72      1.0000 0.88270  0.22970  0.57351  Biso   1.000  C
  N13      1.0000 0.75690  0.93760  0.72945  Biso   1.000  N
  N14      1.0000 0.96710  0.11670  0.88820  Biso   1.000  N
  N15      1.0000 0.61227  0.12380  0.91066  Biso   1.000  N
  N16      1.0000 0.81960  0.05300  0.82578  Biso   1.000  N
  N17      1.0000 0.78430  0.09210  0.87133  Biso   1.000  N
  N18      1.0000 0.73274  0.05770  0.83087  Biso   1.000  N
  N19      1.0000 0.93095  0.93370  0.47261  Biso   1.000  N
  N20      1.0000 0.78520  0.93250  0.66079  Biso   1.000  N
  N21      1.0000 0.93380  0.51880  0.58736  Biso   1.000  N
  N22      1.0000 0.85710  0.04310  0.56646  Biso   1.000  N
  N23      1.0000 0.86180  0.18440  0.59597  Biso   1.000  N
  N24      1.0000 0.89190  0.18930  0.54746  Biso   1.000  N
  Zn7      1.0000 0.24956  0.64559  0.30744  Biso   1.000  Zn
  Zn8      1.0000 0.53571  0.34555  0.09570  Biso   1.000  Zn
  Zn9      1.0000 0.04914  0.35653  0.06434  Biso   1.000  Zn
  I13      1.0000 0.30271  0.79735  0.29912  Biso   1.000  I
  I14      1.0000 0.15806  0.66188  0.31877  Biso   1.000  I
  I15      1.0000 0.52571  0.25766  0.04738  Biso   1.000  I
  I16      1.0000 0.58014  0.27142  0.13895  Biso   1.000  I
  I17      1.0000 0.98216  0.44634  0.09185  Biso   1.000  I
  I18      1.0000 0.04097  0.17950  0.04843  Biso   1.000  I
  C73      1.0000 0.30150  0.55680  0.25818  Biso   1.000  C
  H49      1.0000 0.32920  0.57960  0.26870  Biso   1.000  H
  C74      1.0000 0.30880  0.51950  0.23084  Biso   1.000  C
  H50      1.0000 0.34090  0.51530  0.22290  Biso   1.000  H
  C75      1.0000 0.26820  0.48790  0.21511  Biso   1.000  C
  C76      1.0000 0.22210  0.49130  0.22825  Biso   1.000  C
  H51      1.0000 0.19380  0.46820  0.21830  Biso   1.000  H
  C77      1.0000 0.21820  0.52850  0.25576  Biso   1.000  C
  H52      1.0000 0.18670  0.53020  0.26470  Biso   1.000  H
  C78      1.0000 0.42750  0.38530  0.09430  Biso   1.000  C
  H53      1.0000 0.43240  0.37780  0.07400  Biso   1.000  H
  C79      1.0000 0.38010  0.39780  0.10439  Biso   1.000  C
  H54      1.0000 0.35300  0.39840  0.09140  Biso   1.000  H
  C80      1.0000 0.37290  0.40930  0.13395  Biso   1.000  C
  C81      1.0000 0.41350  0.41050  0.15224  Biso   1.000  C
  H55      1.0000 0.40970  0.42130  0.17240  Biso   1.000  H
  C82      1.0000 0.45970  0.39570  0.14032  Biso   1.000  C
  H56      1.0000 0.48740  0.39420  0.15290  Biso   1.000  H
  C83      1.0000 0.10860  0.39870  0.11742  Biso   1.000  C
  H57      1.0000 0.07680  0.40500  0.12570  Biso   1.000  H
  C84      1.0000 0.14920  0.41300  0.13491  Biso   1.000  C
  H58      1.0000 0.14520  0.42840  0.15480  Biso   1.000  H
  C85      1.0000 0.19600  0.40460  0.12298  Biso   1.000  C
  C86      1.0000 0.20000  0.38150  0.09406  Biso   1.000  C
  H59      1.0000 0.23150  0.37570  0.08530  Biso   1.000  H
  C87      1.0000 0.15780  0.36680  0.07792  Biso   1.000  C
  H60      1.0000 0.16090  0.34950  0.05810  Biso   1.000  H
  C88      1.0000 0.27390  0.45630  0.18447  Biso   1.000  C
  C89      1.0000 0.32240  0.42260  0.14614  Biso   1.000  C
  C90      1.0000 0.24020  0.41910  0.14139  Biso   1.000  C
  C91      1.0000 0.39870  0.60540  0.50871  Biso   1.000  C
  H61      1.0000 0.38790  0.67030  0.51180  Biso   1.000  H
  C92      1.0000 0.38050  0.55480  0.48504  Biso   1.000  C
  H62      1.0000 0.35750  0.58420  0.47230  Biso   1.000  H
  C93      1.0000 0.39670  0.45960  0.48036  Biso   1.000  C
  C94      1.0000 0.43050  0.41960  0.49941  Biso   1.000  C
  H63      1.0000 0.44220  0.35520  0.49660  Biso   1.000  H
  C95      1.0000 0.44690  0.47480  0.52274  Biso   1.000  C
  H64      1.0000 0.47010  0.44720  0.53580  Biso   1.000  H
  C96      1.0000 0.28690  0.47000  0.33841  Biso   1.000  C
  H65      1.0000 0.27350  0.43720  0.32210  Biso   1.000  H
  C97      1.0000 0.30760  0.41520  0.36061  Biso   1.000  C
  H66      1.0000 0.30830  0.34620  0.35950  Biso   1.000  H
  C98      1.0000 0.32730  0.46300  0.38442  Biso   1.000  C
  C99      1.0000 0.32660  0.56440  0.38485  Biso   1.000  C
  H67      1.0000 0.34040  0.59910  0.40070  Biso   1.000  H
  C100     1.0000 0.30530  0.61380  0.36182  Biso   1.000  C
  H68      1.0000 0.30500  0.68290  0.36210  Biso   1.000  H
  C101     1.0000 0.42390  0.01210  0.43934  Biso   1.000  C
  H69      1.0000 0.42840  0.96860  0.45510  Biso   1.000  H
  C102     1.0000 0.40700  0.10630  0.44504  Biso   1.000  C
  H70      1.0000 0.40120  0.12730  0.46440  Biso   1.000  H
  C103     1.0000 0.39890  0.16860  0.42173  Biso   1.000  C
  C104     1.0000 0.40840  0.13520  0.39399  Biso   1.000  C
  H71      1.0000 0.40280  0.17600  0.37770  Biso   1.000  H
  C105     1.0000 0.42580  0.04260  0.39035  Biso   1.000  C
  H72      1.0000 0.43260  0.02050  0.37130  Biso   1.000  H
  C106     1.0000 0.37990  0.40540  0.45420  Biso   1.000  C
  C107     1.0000 0.34980  0.40780  0.40882  Biso   1.000  C
  C108     1.0000 0.38270  0.27030  0.42649  Biso   1.000  C
  N25      1.0000 0.25690  0.56240  0.27055  Biso   1.000  N
  N26      1.0000 0.46710  0.38330  0.11180  Biso   1.000  N
  N27      1.0000 0.11227  0.37620  0.08934  Biso   1.000  N
  N28      1.0000 0.31960  0.44700  0.17422  Biso   1.000  N
  N29      1.0000 0.28430  0.40790  0.12867  Biso   1.000  N
  N30      1.0000 0.23274  0.44230  0.16913  Biso   1.000  N
  N31      1.0000 0.43095  0.56630  0.52739  Biso   1.000  N
  N32      1.0000 0.28520  0.56750  0.33921  Biso   1.000  N
  N33      1.0000 0.43380  0.98120  0.41264  Biso   1.000  N
  N34      1.0000 0.35710  0.45690  0.43354  Biso   1.000  N
  N35      1.0000 0.36180  0.31560  0.40403  Biso   1.000  N
  N36      1.0000 0.39190  0.31070  0.45254  Biso   1.000  N
  Zn10     1.0000 0.25044  0.35441  0.80744  Biso   1.000  Zn
  Zn11     1.0000 0.96429  0.65445  0.59570  Biso   1.000  Zn
  Zn12     1.0000 0.45086  0.64347  0.56434  Biso   1.000  Zn
  I19      1.0000 0.19729  0.20265  0.79912  Biso   1.000  I
  I20      1.0000 0.34194  0.33812  0.81877  Biso   1.000  I
  I21      1.0000 0.97429  0.74234  0.54738  Biso   1.000  I
  I22      1.0000 0.91986  0.72858  0.63895  Biso   1.000  I
  I23      1.0000 0.51784  0.55366  0.59185  Biso   1.000  I
  I24      1.0000 0.45903  0.82050  0.54843  Biso   1.000  I
  C109     1.0000 0.19850  0.44320  0.75818  Biso   1.000  C
  H73      1.0000 0.17080  0.42040  0.76870  Biso   1.000  H
  C110     1.0000 0.19120  0.48050  0.73084  Biso   1.000  C
  H74      1.0000 0.15910  0.48470  0.72290  Biso   1.000  H
  C111     1.0000 0.23180  0.51210  0.71511  Biso   1.000  C
  C112     1.0000 0.27790  0.50870  0.72825  Biso   1.000  C
  H75      1.0000 0.30620  0.53180  0.71830  Biso   1.000  H
  C113     1.0000 0.28180  0.47150  0.75576  Biso   1.000  C
  H76      1.0000 0.31330  0.46980  0.76470  Biso   1.000  H
  C114     1.0000 0.07250  0.61470  0.59430  Biso   1.000  C
  H77      1.0000 0.06760  0.62220  0.57400  Biso   1.000  H
  C115     1.0000 0.11990  0.60220  0.60439  Biso   1.000  C
  H78      1.0000 0.14700  0.60160  0.59140  Biso   1.000  H
  C116     1.0000 0.12710  0.59070  0.63395  Biso   1.000  C
  C117     1.0000 0.08650  0.58950  0.65224  Biso   1.000  C
  H79      1.0000 0.09030  0.57870  0.67240  Biso   1.000  H
  C118     1.0000 0.04030  0.60430  0.64032  Biso   1.000  C
  H80      1.0000 0.01260  0.60580  0.65290  Biso   1.000  H
  C119     1.0000 0.39140  0.60130  0.61742  Biso   1.000  C
  H81      1.0000 0.42320  0.59500  0.62570  Biso   1.000  H
  C120     1.0000 0.35080  0.58700  0.63491  Biso   1.000  C
  H82      1.0000 0.35480  0.57160  0.65480  Biso   1.000  H
  C121     1.0000 0.30400  0.59540  0.62298  Biso   1.000  C
  C122     1.0000 0.30000  0.61850  0.59406  Biso   1.000  C
  H83      1.0000 0.26850  0.62430  0.58530  Biso   1.000  H
  C123     1.0000 0.34220  0.63320  0.57792  Biso   1.000  C
  H84      1.0000 0.33910  0.65050  0.55810  Biso   1.000  H
  C124     1.0000 0.22610  0.54370  0.68447  Biso   1.000  C
  C125     1.0000 0.17760  0.57740  0.64614  Biso   1.000  C
  C126     1.0000 0.25980  0.58090  0.64139  Biso   1.000  C
  C127     1.0000 0.10130  0.39460  0.00871  Biso   1.000  C
  H85      1.0000 0.11210  0.32970  0.01180  Biso   1.000  H
  C128     1.0000 0.11950  0.44520  0.98504  Biso   1.000  C
  H86      1.0000 0.14250  0.41580  0.97230  Biso   1.000  H
  C129     1.0000 0.10330  0.54040  0.98036  Biso   1.000  C
  C130     1.0000 0.06950  0.58040  0.99941  Biso   1.000  C
  H87      1.0000 0.05780  0.64480  0.99660  Biso   1.000  H
  C131     1.0000 0.05310  0.52520  0.02274  Biso   1.000  C
  H88      1.0000 0.02990  0.55280  0.03580  Biso   1.000  H
  C132     1.0000 0.21310  0.53000  0.83841  Biso   1.000  C
  H89      1.0000 0.22650  0.56280  0.82210  Biso   1.000  H
  C133     1.0000 0.19240  0.58480  0.86061  Biso   1.000  C
  H90      1.0000 0.19170  0.65380  0.85950  Biso   1.000  H
  C134     1.0000 0.17270  0.53700  0.88442  Biso   1.000  C
  C135     1.0000 0.17340  0.43560  0.88485  Biso   1.000  C
  H91      1.0000 0.15960  0.40090  0.90070  Biso   1.000  H
  C136     1.0000 0.19470  0.38620  0.86182  Biso   1.000  C
  H92      1.0000 0.19500  0.31710  0.86210  Biso   1.000  H
  C137     1.0000 0.07610  0.98790  0.93934  Biso   1.000  C
  H93      1.0000 0.07160  0.03140  0.95510  Biso   1.000  H
  C138     1.0000 0.09300  0.89370  0.94504  Biso   1.000  C
  H94      1.0000 0.09880  0.87270  0.96440  Biso   1.000  H
  C139     1.0000 0.10110  0.83140  0.92173  Biso   1.000  C
  C140     1.0000 0.09160  0.86480  0.89399  Biso   1.000  C
  H95      1.0000 0.09720  0.82400  0.87770  Biso   1.000  H
  C141     1.0000 0.07420  0.95740  0.89035  Biso   1.000  C
  H96      1.0000 0.06740  0.97950  0.87130  Biso   1.000  H
  C142     1.0000 0.12010  0.59460  0.95420  Biso   1.000  C
  C143     1.0000 0.15020  0.59220  0.90882  Biso   1.000  C
  C144     1.0000 0.11730  0.72970  0.92649  Biso   1.000  C
  N37      1.0000 0.24310  0.43760  0.77055  Biso   1.000  N
  N38      1.0000 0.03290  0.61670  0.61180  Biso   1.000  N
  N39      1.0000 0.38773  0.62380  0.58934  Biso   1.000  N
  N40      1.0000 0.18040  0.55300  0.67422  Biso   1.000  N
  N41      1.0000 0.21570  0.59210  0.62867  Biso   1.000  N
  N42      1.0000 0.26726  0.55770  0.66913  Biso   1.000  N
  N43      1.0000 0.06905  0.43370  0.02739  Biso   1.000  N
  N44      1.0000 0.21480  0.43250  0.83921  Biso   1.000  N
  N45      1.0000 0.06620  0.01880  0.91264  Biso   1.000  N
  N46      1.0000 0.14290  0.54310  0.93354  Biso   1.000  N
  N47      1.0000 0.13820  0.68440  0.90403  Biso   1.000  N
  N48      1.0000 0.10810  0.68930  0.95254  Biso   1.000  N
  Zn13     1.0000 0.24956  0.85441  0.80744  Biso   1.000  Zn
  Zn14     1.0000 0.53571  0.15445  0.59570  Biso   1.000  Zn
  Zn15     1.0000 0.04914  0.14347  0.56434  Biso   1.000  Zn
  I25      1.0000 0.30271  0.70265  0.79912  Biso   1.000  I
  I26      1.0000 0.15806  0.83812  0.81877  Biso   1.000  I
  I27      1.0000 0.52571  0.24234  0.54738  Biso   1.000  I
  I28      1.0000 0.58014  0.22858  0.63895  Biso   1.000  I
  I29      1.0000 0.98216  0.05366  0.59185  Biso   1.000  I
  I30      1.0000 0.04097  0.32050  0.54843  Biso   1.000  I
  C145     1.0000 0.30150  0.94320  0.75818  Biso   1.000  C
  H97      1.0000 0.32920  0.92040  0.76870  Biso   1.000  H
  C146     1.0000 0.30880  0.98050  0.73084  Biso   1.000  C
  H98      1.0000 0.34090  0.98470  0.72290  Biso   1.000  H
  C147     1.0000 0.26820  0.01210  0.71511  Biso   1.000  C
  C148     1.0000 0.22210  0.00870  0.72825  Biso   1.000  C
  H99      1.0000 0.19380  0.03180  0.71830  Biso   1.000  H
  C149     1.0000 0.21820  0.97150  0.75576  Biso   1.000  C
  H100     1.0000 0.18670  0.96980  0.76470  Biso   1.000  H
  C150     1.0000 0.42750  0.11470  0.59430  Biso   1.000  C
  H101     1.0000 0.43240  0.12220  0.57400  Biso   1.000  H
  C151     1.0000 0.38010  0.10220  0.60439  Biso   1.000  C
  H102     1.0000 0.35300  0.10160  0.59140  Biso   1.000  H
  C152     1.0000 0.37290  0.09070  0.63395  Biso   1.000  C
  C153     1.0000 0.41350  0.08950  0.65224  Biso   1.000  C
  H103     1.0000 0.40970  0.07870  0.67240  Biso   1.000  H
  C154     1.0000 0.45970  0.10430  0.64032  Biso   1.000  C
  H104     1.0000 0.48740  0.10580  0.65290  Biso   1.000  H
  C155     1.0000 0.10860  0.10130  0.61742  Biso   1.000  C
  H105     1.0000 0.07680  0.09500  0.62570  Biso   1.000  H
  C156     1.0000 0.14920  0.08700  0.63491  Biso   1.000  C
  H106     1.0000 0.14520  0.07160  0.65480  Biso   1.000  H
  C157     1.0000 0.19600  0.09540  0.62298  Biso   1.000  C
  C158     1.0000 0.20000  0.11850  0.59406  Biso   1.000  C
  H107     1.0000 0.23150  0.12430  0.58530  Biso   1.000  H
  C159     1.0000 0.15780  0.13320  0.57792  Biso   1.000  C
  H108     1.0000 0.16090  0.15050  0.55810  Biso   1.000  H
  C160     1.0000 0.27390  0.04370  0.68447  Biso   1.000  C
  C161     1.0000 0.32240  0.07740  0.64614  Biso   1.000  C
  C162     1.0000 0.24020  0.08090  0.64139  Biso   1.000  C
  C163     1.0000 0.39870  0.89460  0.00871  Biso   1.000  C
  H109     1.0000 0.38790  0.82970  0.01180  Biso   1.000  H
  C164     1.0000 0.38050  0.94520  0.98504  Biso   1.000  C
  H110     1.0000 0.35750  0.91580  0.97230  Biso   1.000  H
  C165     1.0000 0.39670  0.04040  0.98036  Biso   1.000  C
  C166     1.0000 0.43050  0.08040  0.99941  Biso   1.000  C
  H111     1.0000 0.44220  0.14480  0.99660  Biso   1.000  H
  C167     1.0000 0.44690  0.02520  0.02274  Biso   1.000  C
  H112     1.0000 0.47010  0.05280  0.03580  Biso   1.000  H
  C168     1.0000 0.28690  0.03000  0.83841  Biso   1.000  C
  H113     1.0000 0.27350  0.06280  0.82210  Biso   1.000  H
  C169     1.0000 0.30760  0.08480  0.86061  Biso   1.000  C
  H114     1.0000 0.30830  0.15380  0.85950  Biso   1.000  H
  C170     1.0000 0.32730  0.03700  0.88442  Biso   1.000  C
  C171     1.0000 0.32660  0.93560  0.88485  Biso   1.000  C
  H115     1.0000 0.34040  0.90090  0.90070  Biso   1.000  H
  C172     1.0000 0.30530  0.88620  0.86182  Biso   1.000  C
  H116     1.0000 0.30500  0.81710  0.86210  Biso   1.000  H
  C173     1.0000 0.42390  0.48790  0.93934  Biso   1.000  C
  H117     1.0000 0.42840  0.53140  0.95510  Biso   1.000  H
  C174     1.0000 0.40700  0.39370  0.94504  Biso   1.000  C
  H118     1.0000 0.40120  0.37270  0.96440  Biso   1.000  H
  C175     1.0000 0.39890  0.33140  0.92173  Biso   1.000  C
  C176     1.0000 0.40840  0.36480  0.89399  Biso   1.000  C
  H119     1.0000 0.40280  0.32400  0.87770  Biso   1.000  H
  C177     1.0000 0.42580  0.45740  0.89035  Biso   1.000  C
  H120     1.0000 0.43260  0.47950  0.87130  Biso   1.000  H
  C178     1.0000 0.37990  0.09460  0.95420  Biso   1.000  C
  C179     1.0000 0.34980  0.09220  0.90882  Biso   1.000  C
  C180     1.0000 0.38270  0.22970  0.92649  Biso   1.000  C
  N49      1.0000 0.25690  0.93760  0.77055  Biso   1.000  N
  N50      1.0000 0.46710  0.11670  0.61180  Biso   1.000  N
  N51      1.0000 0.11227  0.12380  0.58934  Biso   1.000  N
  N52      1.0000 0.31960  0.05300  0.67422  Biso   1.000  N
  N53      1.0000 0.28430  0.09210  0.62867  Biso   1.000  N
  N54      1.0000 0.23274  0.05770  0.66913  Biso   1.000  N
  N55      1.0000 0.43095  0.93370  0.02739  Biso   1.000  N
  N56      1.0000 0.28520  0.93250  0.83921  Biso   1.000  N
  N57      1.0000 0.43380  0.51880  0.91264  Biso   1.000  N
  N58      1.0000 0.35710  0.04310  0.93354  Biso   1.000  N
  N59      1.0000 0.36180  0.18440  0.90403  Biso   1.000  N
  N60      1.0000 0.39190  0.18930  0.95254  Biso   1.000  N
  Zn16     1.0000 0.25044  0.14559  0.30744  Biso   1.000  Zn
  Zn17     1.0000 0.96429  0.84555  0.09570  Biso   1.000  Zn
  Zn18     1.0000 0.45086  0.85653  0.06434  Biso   1.000  Zn
  I31      1.0000 0.19729  0.29735  0.29912  Biso   1.000  I
  I32      1.0000 0.34194  0.16188  0.31877  Biso   1.000  I
  I33      1.0000 0.97429  0.75766  0.04738  Biso   1.000  I
  I34      1.0000 0.91986  0.77142  0.13895  Biso   1.000  I
  I35      1.0000 0.51784  0.94634  0.09185  Biso   1.000  I
  I36      1.0000 0.45903  0.67950  0.04843  Biso   1.000  I
  C181     1.0000 0.19850  0.05680  0.25818  Biso   1.000  C
  H121     1.0000 0.17080  0.07960  0.26870  Biso   1.000  H
  C182     1.0000 0.19120  0.01950  0.23084  Biso   1.000  C
  H122     1.0000 0.15910  0.01530  0.22290  Biso   1.000  H
  C183     1.0000 0.23180  0.98790  0.21511  Biso   1.000  C
  C184     1.0000 0.27790  0.99130  0.22825  Biso   1.000  C
  H123     1.0000 0.30620  0.96820  0.21830  Biso   1.000  H
  C185     1.0000 0.28180  0.02850  0.25576  Biso   1.000  C
  H124     1.0000 0.31330  0.03020  0.26470  Biso   1.000  H
  C186     1.0000 0.07250  0.88530  0.09430  Biso   1.000  C
  H125     1.0000 0.06760  0.87780  0.07400  Biso   1.000  H
  C187     1.0000 0.11990  0.89780  0.10439  Biso   1.000  C
  H126     1.0000 0.14700  0.89840  0.09140  Biso   1.000  H
  C188     1.0000 0.12710  0.90930  0.13395  Biso   1.000  C
  C189     1.0000 0.08650  0.91050  0.15224  Biso   1.000  C
  H127     1.0000 0.09030  0.92130  0.17240  Biso   1.000  H
  C190     1.0000 0.04030  0.89570  0.14032  Biso   1.000  C
  H128     1.0000 0.01260  0.89420  0.15290  Biso   1.000  H
  C191     1.0000 0.39140  0.89870  0.11742  Biso   1.000  C
  H129     1.0000 0.42320  0.90500  0.12570  Biso   1.000  H
  C192     1.0000 0.35080  0.91300  0.13491  Biso   1.000  C
  H130     1.0000 0.35480  0.92840  0.15480  Biso   1.000  H
  C193     1.0000 0.30400  0.90460  0.12298  Biso   1.000  C
  C194     1.0000 0.30000  0.88150  0.09406  Biso   1.000  C
  H131     1.0000 0.26850  0.87570  0.08530  Biso   1.000  H
  C195     1.0000 0.34220  0.86680  0.07792  Biso   1.000  C
  H132     1.0000 0.33910  0.84950  0.05810  Biso   1.000  H
  C196     1.0000 0.22610  0.95630  0.18447  Biso   1.000  C
  C197     1.0000 0.17760  0.92260  0.14614  Biso   1.000  C
  C198     1.0000 0.25980  0.91910  0.14139  Biso   1.000  C
  C199     1.0000 0.10130  0.10540  0.50871  Biso   1.000  C
  H133     1.0000 0.11210  0.17030  0.51180  Biso   1.000  H
  C200     1.0000 0.11950  0.05480  0.48504  Biso   1.000  C
  H134     1.0000 0.14250  0.08420  0.47230  Biso   1.000  H
  C201     1.0000 0.10330  0.95960  0.48036  Biso   1.000  C
  C202     1.0000 0.06950  0.91960  0.49941  Biso   1.000  C
  H135     1.0000 0.05780  0.85520  0.49660  Biso   1.000  H
  C203     1.0000 0.05310  0.97480  0.52274  Biso   1.000  C
  H136     1.0000 0.02990  0.94720  0.53580  Biso   1.000  H
  C204     1.0000 0.21310  0.97000  0.33841  Biso   1.000  C
  H137     1.0000 0.22650  0.93720  0.32210  Biso   1.000  H
  C205     1.0000 0.19240  0.91520  0.36061  Biso   1.000  C
  H138     1.0000 0.19170  0.84620  0.35950  Biso   1.000  H
  C206     1.0000 0.17270  0.96300  0.38442  Biso   1.000  C
  C207     1.0000 0.17340  0.06440  0.38485  Biso   1.000  C
  H139     1.0000 0.15960  0.09910  0.40070  Biso   1.000  H
  C208     1.0000 0.19470  0.11380  0.36182  Biso   1.000  C
  H140     1.0000 0.19500  0.18290  0.36210  Biso   1.000  H
  C209     1.0000 0.07610  0.51210  0.43934  Biso   1.000  C
  H141     1.0000 0.07160  0.46860  0.45510  Biso   1.000  H
  C210     1.0000 0.09300  0.60630  0.44504  Biso   1.000  C
  H142     1.0000 0.09880  0.62730  0.46440  Biso   1.000  H
  C211     1.0000 0.10110  0.66860  0.42173  Biso   1.000  C
  C212     1.0000 0.09160  0.63520  0.39399  Biso   1.000  C
  H143     1.0000 0.09720  0.67600  0.37770  Biso   1.000  H
  C213     1.0000 0.07420  0.54260  0.39035  Biso   1.000  C
  H144     1.0000 0.06740  0.52050  0.37130  Biso   1.000  H
  C214     1.0000 0.12010  0.90540  0.45420  Biso   1.000  C
  C215     1.0000 0.15020  0.90780  0.40882  Biso   1.000  C
  C216     1.0000 0.11730  0.77030  0.42649  Biso   1.000  C
  N61      1.0000 0.24310  0.06240  0.27055  Biso   1.000  N
  N62      1.0000 0.03290  0.88330  0.11180  Biso   1.000  N
  N63      1.0000 0.38773  0.87620  0.08934  Biso   1.000  N
  N64      1.0000 0.18040  0.94700  0.17422  Biso   1.000  N
  N65      1.0000 0.21570  0.90790  0.12867  Biso   1.000  N
  N66      1.0000 0.26726  0.94230  0.16913  Biso   1.000  N
  N67      1.0000 0.06905  0.06630  0.52739  Biso   1.000  N
  N68      1.0000 0.21480  0.06750  0.33921  Biso   1.000  N
  N69      1.0000 0.06620  0.48120  0.41264  Biso   1.000  N
  N70      1.0000 0.14290  0.95690  0.43354  Biso   1.000  N
  N71      1.0000 0.13820  0.81560  0.40403  Biso   1.000  N
  N72      1.0000 0.10810  0.81070  0.45254  Biso   1.000  N
  Zn19     1.0000 0.75044  0.35441  0.69256  Biso   1.000  Zn
  Zn20     1.0000 0.46429  0.65445  0.90430  Biso   1.000  Zn
  Zn21     1.0000 0.95086  0.64347  0.93566  Biso   1.000  Zn
  I37      1.0000 0.69729  0.20265  0.70088  Biso   1.000  I
  I38      1.0000 0.84194  0.33812  0.68123  Biso   1.000  I
  I39      1.0000 0.47429  0.74234  0.95262  Biso   1.000  I
  I40      1.0000 0.41986  0.72858  0.86105  Biso   1.000  I
  I41      1.0000 0.01784  0.55366  0.90815  Biso   1.000  I
  I42      1.0000 0.95903  0.82050  0.95157  Biso   1.000  I
  C217     1.0000 0.69850  0.44320  0.74182  Biso   1.000  C
  H145     1.0000 0.67080  0.42040  0.73130  Biso   1.000  H
  C218     1.0000 0.69120  0.48050  0.76916  Biso   1.000  C
  H146     1.0000 0.65910  0.48470  0.77710  Biso   1.000  H
  C219     1.0000 0.73180  0.51210  0.78489  Biso   1.000  C
  C220     1.0000 0.77790  0.50870  0.77175  Biso   1.000  C
  H147     1.0000 0.80620  0.53180  0.78170  Biso   1.000  H
  C221     1.0000 0.78180  0.47150  0.74424  Biso   1.000  C
  H148     1.0000 0.81330  0.46980  0.73530  Biso   1.000  H
  C222     1.0000 0.57250  0.61470  0.90570  Biso   1.000  C
  H149     1.0000 0.56760  0.62220  0.92600  Biso   1.000  H
  C223     1.0000 0.61990  0.60220  0.89561  Biso   1.000  C
  H150     1.0000 0.64700  0.60160  0.90860  Biso   1.000  H
  C224     1.0000 0.62710  0.59070  0.86605  Biso   1.000  C
  C225     1.0000 0.58650  0.58950  0.84776  Biso   1.000  C
  H151     1.0000 0.59030  0.57870  0.82760  Biso   1.000  H
  C226     1.0000 0.54030  0.60430  0.85968  Biso   1.000  C
  H152     1.0000 0.51260  0.60580  0.84710  Biso   1.000  H
  C227     1.0000 0.89140  0.60130  0.88258  Biso   1.000  C
  H153     1.0000 0.92320  0.59500  0.87430  Biso   1.000  H
  C228     1.0000 0.85080  0.58700  0.86509  Biso   1.000  C
  H154     1.0000 0.85480  0.57160  0.84520  Biso   1.000  H
  C229     1.0000 0.80400  0.59540  0.87702  Biso   1.000  C
  C230     1.0000 0.80000  0.61850  0.90594  Biso   1.000  C
  H155     1.0000 0.76850  0.62430  0.91470  Biso   1.000  H
  C231     1.0000 0.84220  0.63320  0.92208  Biso   1.000  C
  H156     1.0000 0.83910  0.65050  0.94190  Biso   1.000  H
  C232     1.0000 0.72610  0.54370  0.81553  Biso   1.000  C
  C233     1.0000 0.67760  0.57740  0.85386  Biso   1.000  C
  C234     1.0000 0.75980  0.58090  0.85861  Biso   1.000  C
  C235     1.0000 0.60130  0.39460  0.49129  Biso   1.000  C
  H157     1.0000 0.61210  0.32970  0.48820  Biso   1.000  H
  C236     1.0000 0.61950  0.44520  0.51496  Biso   1.000  C
  H158     1.0000 0.64250  0.41580  0.52770  Biso   1.000  H
  C237     1.0000 0.60330  0.54040  0.51964  Biso   1.000  C
  C238     1.0000 0.56950  0.58040  0.50059  Biso   1.000  C
  H159     1.0000 0.55780  0.64480  0.50340  Biso   1.000  H
  C239     1.0000 0.55310  0.52520  0.47726  Biso   1.000  C
  H160     1.0000 0.52990  0.55280  0.46420  Biso   1.000  H
  C240     1.0000 0.71310  0.53000  0.66159  Biso   1.000  C
  H161     1.0000 0.72650  0.56280  0.67790  Biso   1.000  H
  C241     1.0000 0.69240  0.58480  0.63939  Biso   1.000  C
  H162     1.0000 0.69170  0.65380  0.64050  Biso   1.000  H
  C242     1.0000 0.67270  0.53700  0.61558  Biso   1.000  C
  C243     1.0000 0.67340  0.43560  0.61515  Biso   1.000  C
  H163     1.0000 0.65960  0.40090  0.59930  Biso   1.000  H
  C244     1.0000 0.69470  0.38620  0.63818  Biso   1.000  C
  H164     1.0000 0.69500  0.31710  0.63790  Biso   1.000  H
  C245     1.0000 0.57610  0.98790  0.56066  Biso   1.000  C
  H165     1.0000 0.57160  0.03140  0.54490  Biso   1.000  H
  C246     1.0000 0.59300  0.89370  0.55496  Biso   1.000  C
  H166     1.0000 0.59880  0.87270  0.53560  Biso   1.000  H
  C247     1.0000 0.60110  0.83140  0.57827  Biso   1.000  C
  C248     1.0000 0.59160  0.86480  0.60601  Biso   1.000  C
  H167     1.0000 0.59720  0.82400  0.62230  Biso   1.000  H
  C249     1.0000 0.57420  0.95740  0.60965  Biso   1.000  C
  H168     1.0000 0.56740  0.97950  0.62870  Biso   1.000  H
  C250     1.0000 0.62010  0.59460  0.54580  Biso   1.000  C
  C251     1.0000 0.65020  0.59220  0.59118  Biso   1.000  C
  C252     1.0000 0.61730  0.72970  0.57351  Biso   1.000  C
  N73      1.0000 0.74310  0.43760  0.72945  Biso   1.000  N
  N74      1.0000 0.53290  0.61670  0.88820  Biso   1.000  N
  N75      1.0000 0.88773  0.62380  0.91066  Biso   1.000  N
  N76      1.0000 0.68040  0.55300  0.82578  Biso   1.000  N
  N77      1.0000 0.71570  0.59210  0.87133  Biso   1.000  N
  N78      1.0000 0.76726  0.55770  0.83087  Biso   1.000  N
  N79      1.0000 0.56905  0.43370  0.47261  Biso   1.000  N
  N80      1.0000 0.71480  0.43250  0.66079  Biso   1.000  N
  N81      1.0000 0.56620  0.01880  0.58736  Biso   1.000  N
  N82      1.0000 0.64290  0.54310  0.56646  Biso   1.000  N
  N83      1.0000 0.63820  0.68440  0.59597  Biso   1.000  N
  N84      1.0000 0.60810  0.68930  0.54746  Biso   1.000  N
  Zn22     1.0000 0.74956  0.64559  0.19256  Biso   1.000  Zn
  Zn23     1.0000 0.03571  0.34555  0.40430  Biso   1.000  Zn
  Zn24     1.0000 0.54914  0.35653  0.43566  Biso   1.000  Zn
  I43      1.0000 0.80271  0.79735  0.20088  Biso   1.000  I
  I44      1.0000 0.65806  0.66188  0.18123  Biso   1.000  I
  I45      1.0000 0.02571  0.25766  0.45262  Biso   1.000  I
  I46      1.0000 0.08014  0.27142  0.36105  Biso   1.000  I
  I47      1.0000 0.48216  0.44634  0.40815  Biso   1.000  I
  I48      1.0000 0.54097  0.17950  0.45157  Biso   1.000  I
  C253     1.0000 0.80150  0.55680  0.24182  Biso   1.000  C
  H169     1.0000 0.82920  0.57960  0.23130  Biso   1.000  H
  C254     1.0000 0.80880  0.51950  0.26916  Biso   1.000  C
  H170     1.0000 0.84090  0.51530  0.27710  Biso   1.000  H
  C255     1.0000 0.76820  0.48790  0.28489  Biso   1.000  C
  C256     1.0000 0.72210  0.49130  0.27175  Biso   1.000  C
  H171     1.0000 0.69380  0.46820  0.28170  Biso   1.000  H
  C257     1.0000 0.71820  0.52850  0.24424  Biso   1.000  C
  H172     1.0000 0.68670  0.53020  0.23530  Biso   1.000  H
  C258     1.0000 0.92750  0.38530  0.40570  Biso   1.000  C
  H173     1.0000 0.93240  0.37780  0.42600  Biso   1.000  H
  C259     1.0000 0.88010  0.39780  0.39561  Biso   1.000  C
  H174     1.0000 0.85300  0.39840  0.40860  Biso   1.000  H
  C260     1.0000 0.87290  0.40930  0.36605  Biso   1.000  C
  C261     1.0000 0.91350  0.41050  0.34776  Biso   1.000  C
  H175     1.0000 0.90970  0.42130  0.32760  Biso   1.000  H
  C262     1.0000 0.95970  0.39570  0.35968  Biso   1.000  C
  H176     1.0000 0.98740  0.39420  0.34710  Biso   1.000  H
  C263     1.0000 0.60860  0.39870  0.38258  Biso   1.000  C
  H177     1.0000 0.57680  0.40500  0.37430  Biso   1.000  H
  C264     1.0000 0.64920  0.41300  0.36509  Biso   1.000  C
  H178     1.0000 0.64520  0.42840  0.34520  Biso   1.000  H
  C265     1.0000 0.69600  0.40460  0.37702  Biso   1.000  C
  C266     1.0000 0.70000  0.38150  0.40594  Biso   1.000  C
  H179     1.0000 0.73150  0.37570  0.41470  Biso   1.000  H
  C267     1.0000 0.65780  0.36680  0.42208  Biso   1.000  C
  H180     1.0000 0.66090  0.34950  0.44190  Biso   1.000  H
  C268     1.0000 0.77390  0.45630  0.31553  Biso   1.000  C
  C269     1.0000 0.82240  0.42260  0.35386  Biso   1.000  C
  C270     1.0000 0.74020  0.41910  0.35861  Biso   1.000  C
  C271     1.0000 0.89870  0.60540  0.99129  Biso   1.000  C
  H181     1.0000 0.88790  0.67030  0.98820  Biso   1.000  H
  C272     1.0000 0.88050  0.55480  0.01496  Biso   1.000  C
  H182     1.0000 0.85750  0.58420  0.02770  Biso   1.000  H
  C273     1.0000 0.89670  0.45960  0.01964  Biso   1.000  C
  C274     1.0000 0.93050  0.41960  0.00059  Biso   1.000  C
  H183     1.0000 0.94220  0.35520  0.00340  Biso   1.000  H
  C275     1.0000 0.94690  0.47480  0.97726  Biso   1.000  C
  H184     1.0000 0.97010  0.44720  0.96420  Biso   1.000  H
  C276     1.0000 0.78690  0.47000  0.16159  Biso   1.000  C
  H185     1.0000 0.77350  0.43720  0.17790  Biso   1.000  H
  C277     1.0000 0.80760  0.41520  0.13939  Biso   1.000  C
  H186     1.0000 0.80830  0.34620  0.14050  Biso   1.000  H
  C278     1.0000 0.82730  0.46300  0.11558  Biso   1.000  C
  C279     1.0000 0.82660  0.56440  0.11515  Biso   1.000  C
  H187     1.0000 0.84040  0.59910  0.09930  Biso   1.000  H
  C280     1.0000 0.80530  0.61380  0.13818  Biso   1.000  C
  H188     1.0000 0.80500  0.68290  0.13790  Biso   1.000  H
  C281     1.0000 0.92390  0.01210  0.06066  Biso   1.000  C
  H189     1.0000 0.92840  0.96860  0.04490  Biso   1.000  H
  C282     1.0000 0.90700  0.10630  0.05496  Biso   1.000  C
  H190     1.0000 0.90120  0.12730  0.03560  Biso   1.000  H
  C283     1.0000 0.89890  0.16860  0.07827  Biso   1.000  C
  C284     1.0000 0.90840  0.13520  0.10601  Biso   1.000  C
  H191     1.0000 0.90280  0.17600  0.12230  Biso   1.000  H
  C285     1.0000 0.92580  0.04260  0.10965  Biso   1.000  C
  H192     1.0000 0.93260  0.02050  0.12870  Biso   1.000  H
  C286     1.0000 0.87990  0.40540  0.04580  Biso   1.000  C
  C287     1.0000 0.84980  0.40780  0.09118  Biso   1.000  C
  C288     1.0000 0.88270  0.27030  0.07351  Biso   1.000  C
  N85      1.0000 0.75690  0.56240  0.22945  Biso   1.000  N
  N86      1.0000 0.96710  0.38330  0.38820  Biso   1.000  N
  N87      1.0000 0.61227  0.37620  0.41066  Biso   1.000  N
  N88      1.0000 0.81960  0.44700  0.32578  Biso   1.000  N
  N89      1.0000 0.78430  0.40790  0.37133  Biso   1.000  N
  N90      1.0000 0.73274  0.44230  0.33087  Biso   1.000  N
  N91      1.0000 0.93095  0.56630  0.97261  Biso   1.000  N
  N92      1.0000 0.78520  0.56750  0.16079  Biso   1.000  N
  N93      1.0000 0.93380  0.98120  0.08736  Biso   1.000  N
  N94      1.0000 0.85710  0.45690  0.06646  Biso   1.000  N
  N95      1.0000 0.86180  0.31560  0.09597  Biso   1.000  N
  N96      1.0000 0.89190  0.31070  0.04746  Biso   1.000  N
