data_image0
_cell_length_a       28.147
_cell_length_b       13.8926
_cell_length_c       44.028
_cell_angle_alpha    90
_cell_angle_beta     90
_cell_angle_gamma    90

_symmetry_space_group_name_H-M    "P 1"
_symmetry_int_tables_number       1

loop_
  _symmetry_equiv_pos_as_xyz
  'x, y, z'

loop_
  _atom_site_label
  _atom_site_occupancy
  _atom_site_fract_x
  _atom_site_fract_y
  _atom_site_fract_z
  _atom_site_thermal_displace_type
  _atom_site_B_iso_or_equiv
  _atom_site_type_symbol
  Zn1      1.0000 0.02212  0.88888  0.91023  Biso   1.000  Zn
  Zn2      1.0000 0.54637  0.86352  0.90696  Biso   1.000  Zn
  Zn3      1.0000 0.76073  0.19089  0.67546  Biso   1.000  Zn
  I1       1.0000 0.00652  0.80378  0.96103  Biso   1.000  I
  I2       1.0000 0.07090  0.81224  0.86847  Biso   1.000  I
  I3       1.0000 0.55663  0.68203  0.90825  Biso   1.000  I
  I4       1.0000 0.48174  0.95110  0.87713  Biso   1.000  I
  I5       1.0000 0.67265  0.19159  0.66245  Biso   1.000  I
  I6       1.0000 0.80338  0.35164  0.68203  Biso   1.000  I
  C1       1.0000 0.91690  0.91260  0.90551  Biso   1.000  C
  H1       1.0000 0.91770  0.89720  0.92650  Biso   1.000  H
  C2       1.0000 0.87290  0.92620  0.89157  Biso   1.000  C
  H2       1.0000 0.84430  0.92000  0.90290  Biso   1.000  H
  C3       1.0000 0.87130  0.94890  0.86107  Biso   1.000  C
  C4       1.0000 0.91330  0.95800  0.84546  Biso   1.000  C
  H3       1.0000 0.91300  0.97410  0.82450  Biso   1.000  H
  C5       1.0000 0.95590  0.94360  0.86030  Biso   1.000  C
  H4       1.0000 0.98460  0.95000  0.84910  Biso   1.000  H
  C6       1.0000 0.81210  0.11280  0.72920  Biso   1.000  C
  H5       1.0000 0.83880  0.14090  0.71950  Biso   1.000  H
  C7       1.0000 0.81790  0.07290  0.75726  Biso   1.000  C
  H6       1.0000 0.84850  0.07150  0.76640  Biso   1.000  H
  C8       1.0000 0.77870  0.03370  0.77273  Biso   1.000  C
  C9       1.0000 0.73540  0.03260  0.75752  Biso   1.000  C
  H7       1.0000 0.70820  0.00450  0.76670  Biso   1.000  H
  C10      1.0000 0.73220  0.07290  0.72882  Biso   1.000  C
  H8       1.0000 0.70240  0.07150  0.71880  Biso   1.000  H
  C11      1.0000 0.61370  0.94070  0.86229  Biso   1.000  C
  H9       1.0000 0.58490  0.95000  0.85140  Biso   1.000  H
  C12      1.0000 0.65610  0.95780  0.84732  Biso   1.000  C
  H10      1.0000 0.65650  0.97730  0.82660  Biso   1.000  H
  C13      1.0000 0.69820  0.94550  0.86359  Biso   1.000  C
  C14      1.0000 0.69620  0.91960  0.89393  Biso   1.000  C
  H11      1.0000 0.72430  0.91330  0.90570  Biso   1.000  H
  C15      1.0000 0.65180  0.90310  0.90670  Biso   1.000  C
  H12      1.0000 0.65030  0.88470  0.92750  Biso   1.000  H
  C16      1.0000 0.82400  0.96200  0.84532  Biso   1.000  C
  C17      1.0000 0.74500  0.95920  0.84767  Biso   1.000  C
  C18      1.0000 0.78170  0.99870  0.80411  Biso   1.000  C
  C19      1.0000 0.06660  0.63410  0.02642  Biso   1.000  C
  H13      1.0000 0.07250  0.70090  0.02920  Biso   1.000  H
  C20      1.0000 0.07720  0.59260  0.99904  Biso   1.000  C
  H14      1.0000 0.08920  0.63130  0.98300  Biso   1.000  H
  C21      1.0000 0.07050  0.49540  0.99437  Biso   1.000  C
  C22      1.0000 0.05030  0.44250  0.01853  Biso   1.000  C
  H15      1.0000 0.04440  0.37550  0.01640  Biso   1.000  H
  C23      1.0000 0.03940  0.48870  0.04486  Biso   1.000  C
  H16      1.0000 0.02490  0.45260  0.06070  Biso   1.000  H
  C24      1.0000 0.04250  0.06180  0.94880  Biso   1.000  C
  H17      1.0000 0.02700  0.02500  0.96400  Biso   1.000  H
  C25      1.0000 0.05650  0.15550  0.95529  Biso   1.000  C
  H18      1.0000 0.05050  0.18250  0.97470  Biso   1.000  H
  C26      1.0000 0.07960  0.21000  0.93287  Biso   1.000  C
  C27      1.0000 0.08810  0.16700  0.90457  Biso   1.000  C
  H19      1.0000 0.10490  0.20080  0.88920  Biso   1.000  H
  C28      1.0000 0.07170  0.07450  0.89952  Biso   1.000  C
  H20      1.0000 0.07570  0.04730  0.87990  Biso   1.000  H
  C29      1.0000 0.20120  0.51440  0.85414  Biso   1.000  C
  H21      1.0000 0.21830  0.48310  0.83840  Biso   1.000  H
  C30      1.0000 0.17700  0.45940  0.87553  Biso   1.000  C
  H22      1.0000 0.17700  0.39120  0.87420  Biso   1.000  H
  C31      1.0000 0.15290  0.50500  0.89871  Biso   1.000  C
  C32      1.0000 0.15240  0.60510  0.89900  Biso   1.000  C
  H23      1.0000 0.13580  0.63910  0.91440  Biso   1.000  H
  C33      1.0000 0.17620  0.65350  0.87690  Biso   1.000  C
  H24      1.0000 0.17490  0.72180  0.87680  Biso   1.000  H
  C34      1.0000 0.08630  0.44710  0.96619  Biso   1.000  C
  C35      1.0000 0.12630  0.44870  0.92238  Biso   1.000  C
  C36      1.0000 0.09250  0.31140  0.93806  Biso   1.000  C
  N1       1.0000 0.95840  0.92060  0.89016  Biso   1.000  N
  N2       1.0000 0.61080  0.91190  0.89110  Biso   1.000  N
  N3       1.0000 0.76930  0.11410  0.71442  Biso   1.000  N
  N4       1.0000 0.78500  0.94560  0.86244  Biso   1.000  N
  N5       1.0000 0.74100  0.98520  0.81821  Biso   1.000  N
  N6       1.0000 0.82550  0.98750  0.81676  Biso   1.000  N
  N7       1.0000 0.04800  0.58230  0.04972  Biso   1.000  N
  N8       1.0000 0.20080  0.60980  0.85537  Biso   1.000  N
  N9       1.0000 0.05060  0.02140  0.92101  Biso   1.000  N
  N10      1.0000 0.11080  0.49890  0.94617  Biso   1.000  N
  N11      1.0000 0.11910  0.35540  0.91719  Biso   1.000  N
  N12      1.0000 0.07510  0.35240  0.96277  Biso   1.000  N
  Zn4      1.0000 0.47788  0.11112  0.41023  Biso   1.000  Zn
  Zn5      1.0000 0.95363  0.13648  0.40696  Biso   1.000  Zn
  Zn6      1.0000 0.73927  0.80911  0.17546  Biso   1.000  Zn
  I7       1.0000 0.49348  0.19622  0.46103  Biso   1.000  I
  I8       1.0000 0.42910  0.18776  0.36847  Biso   1.000  I
  I9       1.0000 0.94337  0.31797  0.40825  Biso   1.000  I
  I10      1.0000 0.01826  0.04890  0.37713  Biso   1.000  I
  I11      1.0000 0.82735  0.80841  0.16245  Biso   1.000  I
  I12      1.0000 0.69662  0.64836  0.18203  Biso   1.000  I
  C37      1.0000 0.58310  0.08740  0.40551  Biso   1.000  C
  H25      1.0000 0.58230  0.10280  0.42650  Biso   1.000  H
  C38      1.0000 0.62710  0.07380  0.39157  Biso   1.000  C
  H26      1.0000 0.65570  0.08000  0.40290  Biso   1.000  H
  C39      1.0000 0.62870  0.05110  0.36107  Biso   1.000  C
  C40      1.0000 0.58670  0.04200  0.34546  Biso   1.000  C
  H27      1.0000 0.58700  0.02590  0.32450  Biso   1.000  H
  C41      1.0000 0.54410  0.05640  0.36030  Biso   1.000  C
  H28      1.0000 0.51540  0.05000  0.34910  Biso   1.000  H
  C42      1.0000 0.68790  0.88720  0.22920  Biso   1.000  C
  H29      1.0000 0.66120  0.85910  0.21950  Biso   1.000  H
  C43      1.0000 0.68210  0.92710  0.25726  Biso   1.000  C
  H30      1.0000 0.65150  0.92850  0.26640  Biso   1.000  H
  C44      1.0000 0.72130  0.96630  0.27273  Biso   1.000  C
  C45      1.0000 0.76460  0.96740  0.25752  Biso   1.000  C
  H31      1.0000 0.79180  0.99550  0.26670  Biso   1.000  H
  C46      1.0000 0.76780  0.92710  0.22882  Biso   1.000  C
  H32      1.0000 0.79760  0.92850  0.21880  Biso   1.000  H
  C47      1.0000 0.88630  0.05930  0.36229  Biso   1.000  C
  H33      1.0000 0.91510  0.05000  0.35140  Biso   1.000  H
  C48      1.0000 0.84390  0.04220  0.34732  Biso   1.000  C
  H34      1.0000 0.84350  0.02270  0.32660  Biso   1.000  H
  C49      1.0000 0.80180  0.05450  0.36359  Biso   1.000  C
  C50      1.0000 0.80380  0.08040  0.39393  Biso   1.000  C
  H35      1.0000 0.77570  0.08670  0.40570  Biso   1.000  H
  C51      1.0000 0.84820  0.09690  0.40670  Biso   1.000  C
  H36      1.0000 0.84970  0.11530  0.42750  Biso   1.000  H
  C52      1.0000 0.67600  0.03800  0.34532  Biso   1.000  C
  C53      1.0000 0.75500  0.04080  0.34767  Biso   1.000  C
  C54      1.0000 0.71830  0.00130  0.30411  Biso   1.000  C
  C55      1.0000 0.43340  0.36590  0.52642  Biso   1.000  C
  H37      1.0000 0.42750  0.29910  0.52920  Biso   1.000  H
  C56      1.0000 0.42280  0.40740  0.49904  Biso   1.000  C
  H38      1.0000 0.41080  0.36870  0.48300  Biso   1.000  H
  C57      1.0000 0.42950  0.50460  0.49437  Biso   1.000  C
  C58      1.0000 0.44970  0.55750  0.51853  Biso   1.000  C
  H39      1.0000 0.45560  0.62450  0.51640  Biso   1.000  H
  C59      1.0000 0.46060  0.51130  0.54486  Biso   1.000  C
  H40      1.0000 0.47510  0.54740  0.56070  Biso   1.000  H
  C60      1.0000 0.45750  0.93820  0.44880  Biso   1.000  C
  H41      1.0000 0.47300  0.97500  0.46400  Biso   1.000  H
  C61      1.0000 0.44350  0.84450  0.45529  Biso   1.000  C
  H42      1.0000 0.44950  0.81750  0.47470  Biso   1.000  H
  C62      1.0000 0.42040  0.79000  0.43287  Biso   1.000  C
  C63      1.0000 0.41190  0.83300  0.40457  Biso   1.000  C
  H43      1.0000 0.39510  0.79920  0.38920  Biso   1.000  H
  C64      1.0000 0.42830  0.92550  0.39952  Biso   1.000  C
  H44      1.0000 0.42430  0.95270  0.37990  Biso   1.000  H
  C65      1.0000 0.29880  0.48560  0.35414  Biso   1.000  C
  H45      1.0000 0.28170  0.51690  0.33840  Biso   1.000  H
  C66      1.0000 0.32300  0.54060  0.37553  Biso   1.000  C
  H46      1.0000 0.32300  0.60880  0.37420  Biso   1.000  H
  C67      1.0000 0.34710  0.49500  0.39871  Biso   1.000  C
  C68      1.0000 0.34760  0.39490  0.39900  Biso   1.000  C
  H47      1.0000 0.36420  0.36090  0.41440  Biso   1.000  H
  C69      1.0000 0.32380  0.34650  0.37690  Biso   1.000  C
  H48      1.0000 0.32510  0.27820  0.37680  Biso   1.000  H
  C70      1.0000 0.41370  0.55290  0.46619  Biso   1.000  C
  C71      1.0000 0.37370  0.55130  0.42238  Biso   1.000  C
  C72      1.0000 0.40750  0.68860  0.43806  Biso   1.000  C
  N13      1.0000 0.54160  0.07940  0.39016  Biso   1.000  N
  N14      1.0000 0.88920  0.08810  0.39110  Biso   1.000  N
  N15      1.0000 0.73070  0.88590  0.21442  Biso   1.000  N
  N16      1.0000 0.71500  0.05440  0.36244  Biso   1.000  N
  N17      1.0000 0.75900  0.01480  0.31821  Biso   1.000  N
  N18      1.0000 0.67450  0.01250  0.31676  Biso   1.000  N
  N19      1.0000 0.45200  0.41770  0.54972  Biso   1.000  N
  N20      1.0000 0.29920  0.39020  0.35537  Biso   1.000  N
  N21      1.0000 0.44940  0.97860  0.42101  Biso   1.000  N
  N22      1.0000 0.38920  0.50110  0.44617  Biso   1.000  N
  N23      1.0000 0.38090  0.64460  0.41719  Biso   1.000  N
  N24      1.0000 0.42490  0.64760  0.46277  Biso   1.000  N
  Zn7      1.0000 0.97788  0.38888  0.58977  Biso   1.000  Zn
  Zn8      1.0000 0.45363  0.36352  0.59304  Biso   1.000  Zn
  Zn9      1.0000 0.23927  0.69089  0.82454  Biso   1.000  Zn
  I13      1.0000 0.99348  0.30378  0.53897  Biso   1.000  I
  I14      1.0000 0.92910  0.31224  0.63153  Biso   1.000  I
  I15      1.0000 0.44337  0.18203  0.59175  Biso   1.000  I
  I16      1.0000 0.51826  0.45110  0.62287  Biso   1.000  I
  I17      1.0000 0.32735  0.69159  0.83755  Biso   1.000  I
  I18      1.0000 0.19662  0.85164  0.81797  Biso   1.000  I
  C73      1.0000 0.08310  0.41260  0.59449  Biso   1.000  C
  H49      1.0000 0.08230  0.39720  0.57350  Biso   1.000  H
  C74      1.0000 0.12710  0.42620  0.60843  Biso   1.000  C
  H50      1.0000 0.15570  0.42000  0.59710  Biso   1.000  H
  C75      1.0000 0.12870  0.44890  0.63893  Biso   1.000  C
  C76      1.0000 0.08670  0.45800  0.65454  Biso   1.000  C
  H51      1.0000 0.08700  0.47410  0.67550  Biso   1.000  H
  C77      1.0000 0.04410  0.44360  0.63970  Biso   1.000  C
  H52      1.0000 0.01540  0.45000  0.65090  Biso   1.000  H
  C78      1.0000 0.18790  0.61280  0.77080  Biso   1.000  C
  H53      1.0000 0.16120  0.64090  0.78050  Biso   1.000  H
  C79      1.0000 0.18210  0.57290  0.74274  Biso   1.000  C
  H54      1.0000 0.15150  0.57150  0.73360  Biso   1.000  H
  C80      1.0000 0.22130  0.53370  0.72727  Biso   1.000  C
  C81      1.0000 0.26460  0.53260  0.74248  Biso   1.000  C
  H55      1.0000 0.29180  0.50450  0.73330  Biso   1.000  H
  C82      1.0000 0.26780  0.57290  0.77118  Biso   1.000  C
  H56      1.0000 0.29760  0.57150  0.78120  Biso   1.000  H
  C83      1.0000 0.38630  0.44070  0.63771  Biso   1.000  C
  H57      1.0000 0.41510  0.45000  0.64860  Biso   1.000  H
  C84      1.0000 0.34390  0.45780  0.65268  Biso   1.000  C
  H58      1.0000 0.34350  0.47730  0.67340  Biso   1.000  H
  C85      1.0000 0.30180  0.44550  0.63641  Biso   1.000  C
  C86      1.0000 0.30380  0.41960  0.60607  Biso   1.000  C
  H59      1.0000 0.27570  0.41330  0.59430  Biso   1.000  H
  C87      1.0000 0.34820  0.40310  0.59330  Biso   1.000  C
  H60      1.0000 0.34970  0.38470  0.57250  Biso   1.000  H
  C88      1.0000 0.17600  0.46200  0.65468  Biso   1.000  C
  C89      1.0000 0.25500  0.45920  0.65233  Biso   1.000  C
  C90      1.0000 0.21830  0.49870  0.69589  Biso   1.000  C
  C91      1.0000 0.93340  0.13410  0.47358  Biso   1.000  C
  H61      1.0000 0.92750  0.20090  0.47080  Biso   1.000  H
  C92      1.0000 0.92280  0.09260  0.50096  Biso   1.000  C
  H62      1.0000 0.91080  0.13130  0.51700  Biso   1.000  H
  C93      1.0000 0.92950  0.99540  0.50563  Biso   1.000  C
  C94      1.0000 0.94970  0.94250  0.48147  Biso   1.000  C
  H63      1.0000 0.95560  0.87550  0.48360  Biso   1.000  H
  C95      1.0000 0.96060  0.98870  0.45514  Biso   1.000  C
  H64      1.0000 0.97510  0.95260  0.43930  Biso   1.000  H
  C96      1.0000 0.95750  0.56180  0.55120  Biso   1.000  C
  H65      1.0000 0.97300  0.52500  0.53600  Biso   1.000  H
  C97      1.0000 0.94350  0.65550  0.54471  Biso   1.000  C
  H66      1.0000 0.94950  0.68250  0.52530  Biso   1.000  H
  C98      1.0000 0.92040  0.71000  0.56713  Biso   1.000  C
  C99      1.0000 0.91190  0.66700  0.59543  Biso   1.000  C
  H67      1.0000 0.89510  0.70080  0.61080  Biso   1.000  H
  C100     1.0000 0.92830  0.57450  0.60048  Biso   1.000  C
  H68      1.0000 0.92430  0.54730  0.62010  Biso   1.000  H
  C101     1.0000 0.79880  0.01440  0.64586  Biso   1.000  C
  H69      1.0000 0.78170  0.98310  0.66160  Biso   1.000  H
  C102     1.0000 0.82300  0.95940  0.62447  Biso   1.000  C
  H70      1.0000 0.82300  0.89120  0.62580  Biso   1.000  H
  C103     1.0000 0.84710  0.00500  0.60129  Biso   1.000  C
  C104     1.0000 0.84760  0.10510  0.60100  Biso   1.000  C
  H71      1.0000 0.86420  0.13910  0.58560  Biso   1.000  H
  C105     1.0000 0.82380  0.15350  0.62310  Biso   1.000  C
  H72      1.0000 0.82510  0.22180  0.62320  Biso   1.000  H
  C106     1.0000 0.91370  0.94710  0.53381  Biso   1.000  C
  C107     1.0000 0.87370  0.94870  0.57762  Biso   1.000  C
  C108     1.0000 0.90750  0.81140  0.56194  Biso   1.000  C
  N25      1.0000 0.04160  0.42060  0.60984  Biso   1.000  N
  N26      1.0000 0.38920  0.41190  0.60890  Biso   1.000  N
  N27      1.0000 0.23070  0.61410  0.78558  Biso   1.000  N
  N28      1.0000 0.21500  0.44560  0.63756  Biso   1.000  N
  N29      1.0000 0.25900  0.48520  0.68179  Biso   1.000  N
  N30      1.0000 0.17450  0.48750  0.68324  Biso   1.000  N
  N31      1.0000 0.95200  0.08230  0.45028  Biso   1.000  N
  N32      1.0000 0.79920  0.10980  0.64463  Biso   1.000  N
  N33      1.0000 0.94940  0.52140  0.57899  Biso   1.000  N
  N34      1.0000 0.88920  0.99890  0.55383  Biso   1.000  N
  N35      1.0000 0.88090  0.85540  0.58281  Biso   1.000  N
  N36      1.0000 0.92490  0.85240  0.53723  Biso   1.000  N
  Zn10     1.0000 0.52212  0.61112  0.08977  Biso   1.000  Zn
  Zn11     1.0000 0.04637  0.63648  0.09304  Biso   1.000  Zn
  Zn12     1.0000 0.26073  0.30911  0.32454  Biso   1.000  Zn
  I19      1.0000 0.50652  0.69622  0.03897  Biso   1.000  I
  I20      1.0000 0.57090  0.68776  0.13153  Biso   1.000  I
  I21      1.0000 0.05663  0.81797  0.09175  Biso   1.000  I
  I22      1.0000 0.98174  0.54890  0.12287  Biso   1.000  I
  I23      1.0000 0.17265  0.30841  0.33755  Biso   1.000  I
  I24      1.0000 0.30338  0.14836  0.31797  Biso   1.000  I
  C109     1.0000 0.41690  0.58740  0.09449  Biso   1.000  C
  H73      1.0000 0.41770  0.60280  0.07350  Biso   1.000  H
  C110     1.0000 0.37290  0.57380  0.10843  Biso   1.000  C
  H74      1.0000 0.34430  0.58000  0.09710  Biso   1.000  H
  C111     1.0000 0.37130  0.55110  0.13893  Biso   1.000  C
  C112     1.0000 0.41330  0.54200  0.15454  Biso   1.000  C
  H75      1.0000 0.41300  0.52590  0.17550  Biso   1.000  H
  C113     1.0000 0.45590  0.55640  0.13970  Biso   1.000  C
  H76      1.0000 0.48460  0.55000  0.15090  Biso   1.000  H
  C114     1.0000 0.31210  0.38720  0.27080  Biso   1.000  C
  H77      1.0000 0.33880  0.35910  0.28050  Biso   1.000  H
  C115     1.0000 0.31790  0.42710  0.24274  Biso   1.000  C
  H78      1.0000 0.34850  0.42850  0.23360  Biso   1.000  H
  C116     1.0000 0.27870  0.46630  0.22727  Biso   1.000  C
  C117     1.0000 0.23540  0.46740  0.24248  Biso   1.000  C
  H79      1.0000 0.20820  0.49550  0.23330  Biso   1.000  H
  C118     1.0000 0.23220  0.42710  0.27118  Biso   1.000  C
  H80      1.0000 0.20240  0.42850  0.28120  Biso   1.000  H
  C119     1.0000 0.11370  0.55930  0.13771  Biso   1.000  C
  H81      1.0000 0.08490  0.55000  0.14860  Biso   1.000  H
  C120     1.0000 0.15610  0.54220  0.15268  Biso   1.000  C
  H82      1.0000 0.15650  0.52270  0.17340  Biso   1.000  H
  C121     1.0000 0.19820  0.55450  0.13641  Biso   1.000  C
  C122     1.0000 0.19620  0.58040  0.10607  Biso   1.000  C
  H83      1.0000 0.22430  0.58670  0.09430  Biso   1.000  H
  C123     1.0000 0.15180  0.59690  0.09330  Biso   1.000  C
  H84      1.0000 0.15030  0.61530  0.07250  Biso   1.000  H
  C124     1.0000 0.32400  0.53800  0.15468  Biso   1.000  C
  C125     1.0000 0.24500  0.54080  0.15233  Biso   1.000  C
  C126     1.0000 0.28170  0.50130  0.19589  Biso   1.000  C
  C127     1.0000 0.56660  0.86590  0.97358  Biso   1.000  C
  H85      1.0000 0.57250  0.79910  0.97080  Biso   1.000  H
  C128     1.0000 0.57720  0.90740  0.00096  Biso   1.000  C
  H86      1.0000 0.58920  0.86870  0.01700  Biso   1.000  H
  C129     1.0000 0.57050  0.00460  0.00563  Biso   1.000  C
  C130     1.0000 0.55030  0.05750  0.98147  Biso   1.000  C
  H87      1.0000 0.54440  0.12450  0.98360  Biso   1.000  H
  C131     1.0000 0.53940  0.01130  0.95514  Biso   1.000  C
  H88      1.0000 0.52490  0.04740  0.93930  Biso   1.000  H
  C132     1.0000 0.54250  0.43820  0.05120  Biso   1.000  C
  H89      1.0000 0.52700  0.47500  0.03600  Biso   1.000  H
  C133     1.0000 0.55650  0.34450  0.04471  Biso   1.000  C
  H90      1.0000 0.55050  0.31750  0.02530  Biso   1.000  H
  C134     1.0000 0.57960  0.29000  0.06713  Biso   1.000  C
  C135     1.0000 0.58810  0.33300  0.09543  Biso   1.000  C
  H91      1.0000 0.60490  0.29920  0.11080  Biso   1.000  H
  C136     1.0000 0.57170  0.42550  0.10048  Biso   1.000  C
  H92      1.0000 0.57570  0.45270  0.12010  Biso   1.000  H
  C137     1.0000 0.70120  0.98560  0.14586  Biso   1.000  C
  H93      1.0000 0.71830  0.01690  0.16160  Biso   1.000  H
  C138     1.0000 0.67700  0.04060  0.12447  Biso   1.000  C
  H94      1.0000 0.67700  0.10880  0.12580  Biso   1.000  H
  C139     1.0000 0.65290  0.99500  0.10129  Biso   1.000  C
  C140     1.0000 0.65240  0.89490  0.10100  Biso   1.000  C
  H95      1.0000 0.63580  0.86090  0.08560  Biso   1.000  H
  C141     1.0000 0.67620  0.84650  0.12310  Biso   1.000  C
  H96      1.0000 0.67490  0.77820  0.12320  Biso   1.000  H
  C142     1.0000 0.58630  0.05290  0.03381  Biso   1.000  C
  C143     1.0000 0.62630  0.05130  0.07762  Biso   1.000  C
  C144     1.0000 0.59250  0.18860  0.06194  Biso   1.000  C
  N37      1.0000 0.45840  0.57940  0.10984  Biso   1.000  N
  N38      1.0000 0.11080  0.58810  0.10890  Biso   1.000  N
  N39      1.0000 0.26930  0.38590  0.28558  Biso   1.000  N
  N40      1.0000 0.28500  0.55440  0.13756  Biso   1.000  N
  N41      1.0000 0.24100  0.51480  0.18179  Biso   1.000  N
  N42      1.0000 0.32550  0.51250  0.18324  Biso   1.000  N
  N43      1.0000 0.54800  0.91770  0.95028  Biso   1.000  N
  N44      1.0000 0.70080  0.89020  0.14463  Biso   1.000  N
  N45      1.0000 0.55060  0.47860  0.07899  Biso   1.000  N
  N46      1.0000 0.61080  0.00110  0.05383  Biso   1.000  N
  N47      1.0000 0.61910  0.14460  0.08281  Biso   1.000  N
  N48      1.0000 0.57510  0.14760  0.03723  Biso   1.000  N
  Zn13     1.0000 0.97788  0.11112  0.08977  Biso   1.000  Zn
  Zn14     1.0000 0.45363  0.13648  0.09304  Biso   1.000  Zn
  Zn15     1.0000 0.23927  0.80911  0.32454  Biso   1.000  Zn
  I25      1.0000 0.99348  0.19622  0.03897  Biso   1.000  I
  I26      1.0000 0.92910  0.18776  0.13153  Biso   1.000  I
  I27      1.0000 0.44337  0.31797  0.09175  Biso   1.000  I
  I28      1.0000 0.51826  0.04890  0.12287  Biso   1.000  I
  I29      1.0000 0.32735  0.80841  0.33755  Biso   1.000  I
  I30      1.0000 0.19662  0.64836  0.31797  Biso   1.000  I
  C145     1.0000 0.08310  0.08740  0.09449  Biso   1.000  C
  H97      1.0000 0.08230  0.10280  0.07350  Biso   1.000  H
  C146     1.0000 0.12710  0.07380  0.10843  Biso   1.000  C
  H98      1.0000 0.15570  0.08000  0.09710  Biso   1.000  H
  C147     1.0000 0.12870  0.05110  0.13893  Biso   1.000  C
  C148     1.0000 0.08670  0.04200  0.15454  Biso   1.000  C
  H99      1.0000 0.08700  0.02590  0.17550  Biso   1.000  H
  C149     1.0000 0.04410  0.05640  0.13970  Biso   1.000  C
  H100     1.0000 0.01540  0.05000  0.15090  Biso   1.000  H
  C150     1.0000 0.18790  0.88720  0.27080  Biso   1.000  C
  H101     1.0000 0.16120  0.85910  0.28050  Biso   1.000  H
  C151     1.0000 0.18210  0.92710  0.24274  Biso   1.000  C
  H102     1.0000 0.15150  0.92850  0.23360  Biso   1.000  H
  C152     1.0000 0.22130  0.96630  0.22727  Biso   1.000  C
  C153     1.0000 0.26460  0.96740  0.24248  Biso   1.000  C
  H103     1.0000 0.29180  0.99550  0.23330  Biso   1.000  H
  C154     1.0000 0.26780  0.92710  0.27118  Biso   1.000  C
  H104     1.0000 0.29760  0.92850  0.28120  Biso   1.000  H
  C155     1.0000 0.38630  0.05930  0.13771  Biso   1.000  C
  H105     1.0000 0.41510  0.05000  0.14860  Biso   1.000  H
  C156     1.0000 0.34390  0.04220  0.15268  Biso   1.000  C
  H106     1.0000 0.34350  0.02270  0.17340  Biso   1.000  H
  C157     1.0000 0.30180  0.05450  0.13641  Biso   1.000  C
  C158     1.0000 0.30380  0.08040  0.10607  Biso   1.000  C
  H107     1.0000 0.27570  0.08670  0.09430  Biso   1.000  H
  C159     1.0000 0.34820  0.09690  0.09330  Biso   1.000  C
  H108     1.0000 0.34970  0.11530  0.07250  Biso   1.000  H
  C160     1.0000 0.17600  0.03800  0.15468  Biso   1.000  C
  C161     1.0000 0.25500  0.04080  0.15233  Biso   1.000  C
  C162     1.0000 0.21830  0.00130  0.19589  Biso   1.000  C
  C163     1.0000 0.93340  0.36590  0.97358  Biso   1.000  C
  H109     1.0000 0.92750  0.29910  0.97080  Biso   1.000  H
  C164     1.0000 0.92280  0.40740  0.00096  Biso   1.000  C
  H110     1.0000 0.91080  0.36870  0.01700  Biso   1.000  H
  C165     1.0000 0.92950  0.50460  0.00563  Biso   1.000  C
  C166     1.0000 0.94970  0.55750  0.98147  Biso   1.000  C
  H111     1.0000 0.95560  0.62450  0.98360  Biso   1.000  H
  C167     1.0000 0.96060  0.51130  0.95514  Biso   1.000  C
  H112     1.0000 0.97510  0.54740  0.93930  Biso   1.000  H
  C168     1.0000 0.95750  0.93820  0.05120  Biso   1.000  C
  H113     1.0000 0.97300  0.97500  0.03600  Biso   1.000  H
  C169     1.0000 0.94350  0.84450  0.04471  Biso   1.000  C
  H114     1.0000 0.94950  0.81750  0.02530  Biso   1.000  H
  C170     1.0000 0.92040  0.79000  0.06713  Biso   1.000  C
  C171     1.0000 0.91190  0.83300  0.09543  Biso   1.000  C
  H115     1.0000 0.89510  0.79920  0.11080  Biso   1.000  H
  C172     1.0000 0.92830  0.92550  0.10048  Biso   1.000  C
  H116     1.0000 0.92430  0.95270  0.12010  Biso   1.000  H
  C173     1.0000 0.79880  0.48560  0.14586  Biso   1.000  C
  H117     1.0000 0.78170  0.51690  0.16160  Biso   1.000  H
  C174     1.0000 0.82300  0.54060  0.12447  Biso   1.000  C
  H118     1.0000 0.82300  0.60880  0.12580  Biso   1.000  H
  C175     1.0000 0.84710  0.49500  0.10129  Biso   1.000  C
  C176     1.0000 0.84760  0.39490  0.10100  Biso   1.000  C
  H119     1.0000 0.86420  0.36090  0.08560  Biso   1.000  H
  C177     1.0000 0.82380  0.34650  0.12310  Biso   1.000  C
  H120     1.0000 0.82510  0.27820  0.12320  Biso   1.000  H
  C178     1.0000 0.91370  0.55290  0.03381  Biso   1.000  C
  C179     1.0000 0.87370  0.55130  0.07762  Biso   1.000  C
  C180     1.0000 0.90750  0.68860  0.06194  Biso   1.000  C
  N49      1.0000 0.04160  0.07940  0.10984  Biso   1.000  N
  N50      1.0000 0.38920  0.08810  0.10890  Biso   1.000  N
  N51      1.0000 0.23070  0.88590  0.28558  Biso   1.000  N
  N52      1.0000 0.21500  0.05440  0.13756  Biso   1.000  N
  N53      1.0000 0.25900  0.01480  0.18179  Biso   1.000  N
  N54      1.0000 0.17450  0.01250  0.18324  Biso   1.000  N
  N55      1.0000 0.95200  0.41770  0.95028  Biso   1.000  N
  N56      1.0000 0.79920  0.39020  0.14463  Biso   1.000  N
  N57      1.0000 0.94940  0.97860  0.07899  Biso   1.000  N
  N58      1.0000 0.88920  0.50110  0.05383  Biso   1.000  N
  N59      1.0000 0.88090  0.64460  0.08281  Biso   1.000  N
  N60      1.0000 0.92490  0.64760  0.03723  Biso   1.000  N
  Zn16     1.0000 0.52212  0.88888  0.58977  Biso   1.000  Zn
  Zn17     1.0000 0.04637  0.86352  0.59304  Biso   1.000  Zn
  Zn18     1.0000 0.26073  0.19089  0.82454  Biso   1.000  Zn
  I31      1.0000 0.50652  0.80378  0.53897  Biso   1.000  I
  I32      1.0000 0.57090  0.81224  0.63153  Biso   1.000  I
  I33      1.0000 0.05663  0.68203  0.59175  Biso   1.000  I
  I34      1.0000 0.98174  0.95110  0.62287  Biso   1.000  I
  I35      1.0000 0.17265  0.19159  0.83755  Biso   1.000  I
  I36      1.0000 0.30338  0.35164  0.81797  Biso   1.000  I
  C181     1.0000 0.41690  0.91260  0.59449  Biso   1.000  C
  H121     1.0000 0.41770  0.89720  0.57350  Biso   1.000  H
  C182     1.0000 0.37290  0.92620  0.60843  Biso   1.000  C
  H122     1.0000 0.34430  0.92000  0.59710  Biso   1.000  H
  C183     1.0000 0.37130  0.94890  0.63893  Biso   1.000  C
  C184     1.0000 0.41330  0.95800  0.65454  Biso   1.000  C
  H123     1.0000 0.41300  0.97410  0.67550  Biso   1.000  H
  C185     1.0000 0.45590  0.94360  0.63970  Biso   1.000  C
  H124     1.0000 0.48460  0.95000  0.65090  Biso   1.000  H
  C186     1.0000 0.31210  0.11280  0.77080  Biso   1.000  C
  H125     1.0000 0.33880  0.14090  0.78050  Biso   1.000  H
  C187     1.0000 0.31790  0.07290  0.74274  Biso   1.000  C
  H126     1.0000 0.34850  0.07150  0.73360  Biso   1.000  H
  C188     1.0000 0.27870  0.03370  0.72727  Biso   1.000  C
  C189     1.0000 0.23540  0.03260  0.74248  Biso   1.000  C
  H127     1.0000 0.20820  0.00450  0.73330  Biso   1.000  H
  C190     1.0000 0.23220  0.07290  0.77118  Biso   1.000  C
  H128     1.0000 0.20240  0.07150  0.78120  Biso   1.000  H
  C191     1.0000 0.11370  0.94070  0.63771  Biso   1.000  C
  H129     1.0000 0.08490  0.95000  0.64860  Biso   1.000  H
  C192     1.0000 0.15610  0.95780  0.65268  Biso   1.000  C
  H130     1.0000 0.15650  0.97730  0.67340  Biso   1.000  H
  C193     1.0000 0.19820  0.94550  0.63641  Biso   1.000  C
  C194     1.0000 0.19620  0.91960  0.60607  Biso   1.000  C
  H131     1.0000 0.22430  0.91330  0.59430  Biso   1.000  H
  C195     1.0000 0.15180  0.90310  0.59330  Biso   1.000  C
  H132     1.0000 0.15030  0.88470  0.57250  Biso   1.000  H
  C196     1.0000 0.32400  0.96200  0.65468  Biso   1.000  C
  C197     1.0000 0.24500  0.95920  0.65233  Biso   1.000  C
  C198     1.0000 0.28170  0.99870  0.69589  Biso   1.000  C
  C199     1.0000 0.56660  0.63410  0.47358  Biso   1.000  C
  H133     1.0000 0.57250  0.70090  0.47080  Biso   1.000  H
  C200     1.0000 0.57720  0.59260  0.50096  Biso   1.000  C
  H134     1.0000 0.58920  0.63130  0.51700  Biso   1.000  H
  C201     1.0000 0.57050  0.49540  0.50563  Biso   1.000  C
  C202     1.0000 0.55030  0.44250  0.48147  Biso   1.000  C
  H135     1.0000 0.54440  0.37550  0.48360  Biso   1.000  H
  C203     1.0000 0.53940  0.48870  0.45514  Biso   1.000  C
  H136     1.0000 0.52490  0.45260  0.43930  Biso   1.000  H
  C204     1.0000 0.54250  0.06180  0.55120  Biso   1.000  C
  H137     1.0000 0.52700  0.02500  0.53600  Biso   1.000  H
  C205     1.0000 0.55650  0.15550  0.54471  Biso   1.000  C
  H138     1.0000 0.55050  0.18250  0.52530  Biso   1.000  H
  C206     1.0000 0.57960  0.21000  0.56713  Biso   1.000  C
  C207     1.0000 0.58810  0.16700  0.59543  Biso   1.000  C
  H139     1.0000 0.60490  0.20080  0.61080  Biso   1.000  H
  C208     1.0000 0.57170  0.07450  0.60048  Biso   1.000  C
  H140     1.0000 0.57570  0.04730  0.62010  Biso   1.000  H
  C209     1.0000 0.70120  0.51440  0.64586  Biso   1.000  C
  H141     1.0000 0.71830  0.48310  0.66160  Biso   1.000  H
  C210     1.0000 0.67700  0.45940  0.62447  Biso   1.000  C
  H142     1.0000 0.67700  0.39120  0.62580  Biso   1.000  H
  C211     1.0000 0.65290  0.50500  0.60129  Biso   1.000  C
  C212     1.0000 0.65240  0.60510  0.60100  Biso   1.000  C
  H143     1.0000 0.63580  0.63910  0.58560  Biso   1.000  H
  C213     1.0000 0.67620  0.65350  0.62310  Biso   1.000  C
  H144     1.0000 0.67490  0.72180  0.62320  Biso   1.000  H
  C214     1.0000 0.58630  0.44710  0.53381  Biso   1.000  C
  C215     1.0000 0.62630  0.44870  0.57762  Biso   1.000  C
  C216     1.0000 0.59250  0.31140  0.56194  Biso   1.000  C
  N61      1.0000 0.45840  0.92060  0.60984  Biso   1.000  N
  N62      1.0000 0.11080  0.91190  0.60890  Biso   1.000  N
  N63      1.0000 0.26930  0.11410  0.78558  Biso   1.000  N
  N64      1.0000 0.28500  0.94560  0.63756  Biso   1.000  N
  N65      1.0000 0.24100  0.98520  0.68179  Biso   1.000  N
  N66      1.0000 0.32550  0.98750  0.68324  Biso   1.000  N
  N67      1.0000 0.54800  0.58230  0.45028  Biso   1.000  N
  N68      1.0000 0.70080  0.60980  0.64463  Biso   1.000  N
  N69      1.0000 0.55060  0.02140  0.57899  Biso   1.000  N
  N70      1.0000 0.61080  0.49890  0.55383  Biso   1.000  N
  N71      1.0000 0.61910  0.35540  0.58281  Biso   1.000  N
  N72      1.0000 0.57510  0.35240  0.53723  Biso   1.000  N
  Zn19     1.0000 0.02212  0.61112  0.41023  Biso   1.000  Zn
  Zn20     1.0000 0.54637  0.63648  0.40696  Biso   1.000  Zn
  Zn21     1.0000 0.76073  0.30911  0.17546  Biso   1.000  Zn
  I37      1.0000 0.00652  0.69622  0.46103  Biso   1.000  I
  I38      1.0000 0.07090  0.68776  0.36847  Biso   1.000  I
  I39      1.0000 0.55663  0.81797  0.40825  Biso   1.000  I
  I40      1.0000 0.48174  0.54890  0.37713  Biso   1.000  I
  I41      1.0000 0.67265  0.30841  0.16245  Biso   1.000  I
  I42      1.0000 0.80338  0.14836  0.18203  Biso   1.000  I
  C217     1.0000 0.91690  0.58740  0.40551  Biso   1.000  C
  H145     1.0000 0.91770  0.60280  0.42650  Biso   1.000  H
  C218     1.0000 0.87290  0.57380  0.39157  Biso   1.000  C
  H146     1.0000 0.84430  0.58000  0.40290  Biso   1.000  H
  C219     1.0000 0.87130  0.55110  0.36107  Biso   1.000  C
  C220     1.0000 0.91330  0.54200  0.34546  Biso   1.000  C
  H147     1.0000 0.91300  0.52590  0.32450  Biso   1.000  H
  C221     1.0000 0.95590  0.55640  0.36030  Biso   1.000  C
  H148     1.0000 0.98460  0.55000  0.34910  Biso   1.000  H
  C222     1.0000 0.81210  0.38720  0.22920  Biso   1.000  C
  H149     1.0000 0.83880  0.35910  0.21950  Biso   1.000  H
  C223     1.0000 0.81790  0.42710  0.25726  Biso   1.000  C
  H150     1.0000 0.84850  0.42850  0.26640  Biso   1.000  H
  C224     1.0000 0.77870  0.46630  0.27273  Biso   1.000  C
  C225     1.0000 0.73540  0.46740  0.25752  Biso   1.000  C
  H151     1.0000 0.70820  0.49550  0.26670  Biso   1.000  H
  C226     1.0000 0.73220  0.42710  0.22882  Biso   1.000  C
  H152     1.0000 0.70240  0.42850  0.21880  Biso   1.000  H
  C227     1.0000 0.61370  0.55930  0.36229  Biso   1.000  C
  H153     1.0000 0.58490  0.55000  0.35140  Biso   1.000  H
  C228     1.0000 0.65610  0.54220  0.34732  Biso   1.000  C
  H154     1.0000 0.65650  0.52270  0.32660  Biso   1.000  H
  C229     1.0000 0.69820  0.55450  0.36359  Biso   1.000  C
  C230     1.0000 0.69620  0.58040  0.39393  Biso   1.000  C
  H155     1.0000 0.72430  0.58670  0.40570  Biso   1.000  H
  C231     1.0000 0.65180  0.59690  0.40670  Biso   1.000  C
  H156     1.0000 0.65030  0.61530  0.42750  Biso   1.000  H
  C232     1.0000 0.82400  0.53800  0.34532  Biso   1.000  C
  C233     1.0000 0.74500  0.54080  0.34767  Biso   1.000  C
  C234     1.0000 0.78170  0.50130  0.30411  Biso   1.000  C
  C235     1.0000 0.06660  0.86590  0.52642  Biso   1.000  C
  H157     1.0000 0.07250  0.79910  0.52920  Biso   1.000  H
  C236     1.0000 0.07720  0.90740  0.49904  Biso   1.000  C
  H158     1.0000 0.08920  0.86870  0.48300  Biso   1.000  H
  C237     1.0000 0.07050  0.00460  0.49437  Biso   1.000  C
  C238     1.0000 0.05030  0.05750  0.51853  Biso   1.000  C
  H159     1.0000 0.04440  0.12450  0.51640  Biso   1.000  H
  C239     1.0000 0.03940  0.01130  0.54486  Biso   1.000  C
  H160     1.0000 0.02490  0.04740  0.56070  Biso   1.000  H
  C240     1.0000 0.04250  0.43820  0.44880  Biso   1.000  C
  H161     1.0000 0.02700  0.47500  0.46400  Biso   1.000  H
  C241     1.0000 0.05650  0.34450  0.45529  Biso   1.000  C
  H162     1.0000 0.05050  0.31750  0.47470  Biso   1.000  H
  C242     1.0000 0.07960  0.29000  0.43287  Biso   1.000  C
  C243     1.0000 0.08810  0.33300  0.40457  Biso   1.000  C
  H163     1.0000 0.10490  0.29920  0.38920  Biso   1.000  H
  C244     1.0000 0.07170  0.42550  0.39952  Biso   1.000  C
  H164     1.0000 0.07570  0.45270  0.37990  Biso   1.000  H
  C245     1.0000 0.20120  0.98560  0.35414  Biso   1.000  C
  H165     1.0000 0.21830  0.01690  0.33840  Biso   1.000  H
  C246     1.0000 0.17700  0.04060  0.37553  Biso   1.000  C
  H166     1.0000 0.17700  0.10880  0.37420  Biso   1.000  H
  C247     1.0000 0.15290  0.99500  0.39871  Biso   1.000  C
  C248     1.0000 0.15240  0.89490  0.39900  Biso   1.000  C
  H167     1.0000 0.13580  0.86090  0.41440  Biso   1.000  H
  C249     1.0000 0.17620  0.84650  0.37690  Biso   1.000  C
  H168     1.0000 0.17490  0.77820  0.37680  Biso   1.000  H
  C250     1.0000 0.08630  0.05290  0.46619  Biso   1.000  C
  C251     1.0000 0.12630  0.05130  0.42238  Biso   1.000  C
  C252     1.0000 0.09250  0.18860  0.43806  Biso   1.000  C
  N73      1.0000 0.95840  0.57940  0.39016  Biso   1.000  N
  N74      1.0000 0.61080  0.58810  0.39110  Biso   1.000  N
  N75      1.0000 0.76930  0.38590  0.21442  Biso   1.000  N
  N76      1.0000 0.78500  0.55440  0.36244  Biso   1.000  N
  N77      1.0000 0.74100  0.51480  0.31821  Biso   1.000  N
  N78      1.0000 0.82550  0.51250  0.31676  Biso   1.000  N
  N79      1.0000 0.04800  0.91770  0.54972  Biso   1.000  N
  N80      1.0000 0.20080  0.89020  0.35537  Biso   1.000  N
  N81      1.0000 0.05060  0.47860  0.42101  Biso   1.000  N
  N82      1.0000 0.11080  0.00110  0.44617  Biso   1.000  N
  N83      1.0000 0.11910  0.14460  0.41719  Biso   1.000  N
  N84      1.0000 0.07510  0.14760  0.46277  Biso   1.000  N
  Zn22     1.0000 0.47788  0.38888  0.91023  Biso   1.000  Zn
  Zn23     1.0000 0.95363  0.36352  0.90696  Biso   1.000  Zn
  Zn24     1.0000 0.73927  0.69089  0.67546  Biso   1.000  Zn
  I43      1.0000 0.49348  0.30378  0.96103  Biso   1.000  I
  I44      1.0000 0.42910  0.31224  0.86847  Biso   1.000  I
  I45      1.0000 0.94337  0.18203  0.90825  Biso   1.000  I
  I46      1.0000 0.01826  0.45110  0.87713  Biso   1.000  I
  I47      1.0000 0.82735  0.69159  0.66245  Biso   1.000  I
  I48      1.0000 0.69662  0.85164  0.68203  Biso   1.000  I
  C253     1.0000 0.58310  0.41260  0.90551  Biso   1.000  C
  H169     1.0000 0.58230  0.39720  0.92650  Biso   1.000  H
  C254     1.0000 0.62710  0.42620  0.89157  Biso   1.000  C
  H170     1.0000 0.65570  0.42000  0.90290  Biso   1.000  H
  C255     1.0000 0.62870  0.44890  0.86107  Biso   1.000  C
  C256     1.0000 0.58670  0.45800  0.84546  Biso   1.000  C
  H171     1.0000 0.58700  0.47410  0.82450  Biso   1.000  H
  C257     1.0000 0.54410  0.44360  0.86030  Biso   1.000  C
  H172     1.0000 0.51540  0.45000  0.84910  Biso   1.000  H
  C258     1.0000 0.68790  0.61280  0.72920  Biso   1.000  C
  H173     1.0000 0.66120  0.64090  0.71950  Biso   1.000  H
  C259     1.0000 0.68210  0.57290  0.75726  Biso   1.000  C
  H174     1.0000 0.65150  0.57150  0.76640  Biso   1.000  H
  C260     1.0000 0.72130  0.53370  0.77273  Biso   1.000  C
  C261     1.0000 0.76460  0.53260  0.75752  Biso   1.000  C
  H175     1.0000 0.79180  0.50450  0.76670  Biso   1.000  H
  C262     1.0000 0.76780  0.57290  0.72882  Biso   1.000  C
  H176     1.0000 0.79760  0.57150  0.71880  Biso   1.000  H
  C263     1.0000 0.88630  0.44070  0.86229  Biso   1.000  C
  H177     1.0000 0.91510  0.45000  0.85140  Biso   1.000  H
  C264     1.0000 0.84390  0.45780  0.84732  Biso   1.000  C
  H178     1.0000 0.84350  0.47730  0.82660  Biso   1.000  H
  C265     1.0000 0.80180  0.44550  0.86359  Biso   1.000  C
  C266     1.0000 0.80380  0.41960  0.89393  Biso   1.000  C
  H179     1.0000 0.77570  0.41330  0.90570  Biso   1.000  H
  C267     1.0000 0.84820  0.40310  0.90670  Biso   1.000  C
  H180     1.0000 0.84970  0.38470  0.92750  Biso   1.000  H
  C268     1.0000 0.67600  0.46200  0.84532  Biso   1.000  C
  C269     1.0000 0.75500  0.45920  0.84767  Biso   1.000  C
  C270     1.0000 0.71830  0.49870  0.80411  Biso   1.000  C
  C271     1.0000 0.43340  0.13410  0.02642  Biso   1.000  C
  H181     1.0000 0.42750  0.20090  0.02920  Biso   1.000  H
  C272     1.0000 0.42280  0.09260  0.99904  Biso   1.000  C
  H182     1.0000 0.41080  0.13130  0.98300  Biso   1.000  H
  C273     1.0000 0.42950  0.99540  0.99437  Biso   1.000  C
  C274     1.0000 0.44970  0.94250  0.01853  Biso   1.000  C
  H183     1.0000 0.45560  0.87550  0.01640  Biso   1.000  H
  C275     1.0000 0.46060  0.98870  0.04486  Biso   1.000  C
  H184     1.0000 0.47510  0.95260  0.06070  Biso   1.000  H
  C276     1.0000 0.45750  0.56180  0.94880  Biso   1.000  C
  H185     1.0000 0.47300  0.52500  0.96400  Biso   1.000  H
  C277     1.0000 0.44350  0.65550  0.95529  Biso   1.000  C
  H186     1.0000 0.44950  0.68250  0.97470  Biso   1.000  H
  C278     1.0000 0.42040  0.71000  0.93287  Biso   1.000  C
  C279     1.0000 0.41190  0.66700  0.90457  Biso   1.000  C
  H187     1.0000 0.39510  0.70080  0.88920  Biso   1.000  H
  C280     1.0000 0.42830  0.57450  0.89952  Biso   1.000  C
  H188     1.0000 0.42430  0.54730  0.87990  Biso   1.000  H
  C281     1.0000 0.29880  0.01440  0.85414  Biso   1.000  C
  H189     1.0000 0.28170  0.98310  0.83840  Biso   1.000  H
  C282     1.0000 0.32300  0.95940  0.87553  Biso   1.000  C
  H190     1.0000 0.32300  0.89120  0.87420  Biso   1.000  H
  C283     1.0000 0.34710  0.00500  0.89871  Biso   1.000  C
  C284     1.0000 0.34760  0.10510  0.89900  Biso   1.000  C
  H191     1.0000 0.36420  0.13910  0.91440  Biso   1.000  H
  C285     1.0000 0.32380  0.15350  0.87690  Biso   1.000  C
  H192     1.0000 0.32510  0.22180  0.87680  Biso   1.000  H
  C286     1.0000 0.41370  0.94710  0.96619  Biso   1.000  C
  C287     1.0000 0.37370  0.94870  0.92238  Biso   1.000  C
  C288     1.0000 0.40750  0.81140  0.93806  Biso   1.000  C
  N85      1.0000 0.54160  0.42060  0.89016  Biso   1.000  N
  N86      1.0000 0.88920  0.41190  0.89110  Biso   1.000  N
  N87      1.0000 0.73070  0.61410  0.71442  Biso   1.000  N
  N88      1.0000 0.71500  0.44560  0.86244  Biso   1.000  N
  N89      1.0000 0.75900  0.48520  0.81821  Biso   1.000  N
  N90      1.0000 0.67450  0.48750  0.81676  Biso   1.000  N
  N91      1.0000 0.45200  0.08230  0.04972  Biso   1.000  N
  N92      1.0000 0.29920  0.10980  0.85537  Biso   1.000  N
  N93      1.0000 0.44940  0.52140  0.92101  Biso   1.000  N
  N94      1.0000 0.38920  0.99890  0.94617  Biso   1.000  N
  N95      1.0000 0.38090  0.85540  0.91719  Biso   1.000  N
  N96      1.0000 0.42490  0.85240  0.96277  Biso   1.000  N
