data_image0
_cell_length_a       54.438
_cell_length_b       14.5003
_cell_length_c       39.5817
_cell_angle_alpha    90
_cell_angle_beta     128.01
_cell_angle_gamma    90

_symmetry_space_group_name_H-M    "P 1"
_symmetry_int_tables_number       1

loop_
  _symmetry_equiv_pos_as_xyz
  'x, y, z'

loop_
  _atom_site_label
  _atom_site_occupancy
  _atom_site_fract_x
  _atom_site_fract_y
  _atom_site_fract_z
  _atom_site_thermal_displace_type
  _atom_site_B_iso_or_equiv
  _atom_site_type_symbol
  Mo1      1.0000 0.17362  0.48442  0.48721  Biso   1.000  Mo
  Mo2      1.0000 0.19348  0.71286  0.50748  Biso   1.000  Mo
  Mo3      1.0000 0.15235  0.85132  0.59034  Biso   1.000  Mo
  Mo4      1.0000 0.07250  0.68445  0.42900  Biso   1.000  Mo
  Mo5      1.0000 0.08280  0.79362  0.51381  Biso   1.000  Mo
  Mo6      1.0000 0.16897  0.37641  0.55285  Biso   1.000  Mo
  Mo7      1.0000 0.11758  0.64848  0.42458  Biso   1.000  Mo
  Mo8      1.0000 0.20620  0.79594  0.57507  Biso   1.000  Mo
  Mo9      1.0000 0.18709  0.50048  0.63855  Biso   1.000  Mo
  Mo10     1.0000 0.20280  0.67397  0.65120  Biso   1.000  Mo
  Mo11     1.0000 0.06708  0.56188  0.50306  Biso   1.000  Mo
  Zn1      1.0000 0.12910  0.86106  0.48523  Biso   1.000  Zn
  Mo12     1.0000 0.10814  0.43515  0.55294  Biso   1.000  Mo
  Zn2      1.0000 0.22567  0.55099  0.59381  Biso   1.000  Zn
  Zn3      1.0000 0.09930  0.44710  0.45615  Biso   1.000  Zn
  Zn4      1.0000 0.12291  0.65713  0.60630  Biso   1.000  Zn
  O1       1.0000 0.21400  0.57010  0.63150  Biso   1.000  O
  O2       1.0000 0.21740  0.67480  0.56740  Biso   1.000  O
  O3       1.0000 0.14390  0.41660  0.49280  Biso   1.000  O
  O4       1.0000 0.09080  0.57010  0.42960  Biso   1.000  O
  O5       1.0000 0.19650  0.46240  0.54960  Biso   1.000  O
  O6       1.0000 0.12000  0.85280  0.52690  Biso   1.000  O
  O7       1.0000 0.17220  0.81170  0.51400  Biso   1.000  O
  O8       1.0000 0.10850  0.75490  0.44500  Biso   1.000  O
  O9       1.0000 0.17870  0.78940  0.64070  Biso   1.000  O
  O10      1.0000 0.08620  0.46360  0.49250  Biso   1.000  O
  O11      1.0000 0.19300  0.39850  0.60980  Biso   1.000  O
  O12      1.0000 0.15870  0.70530  0.44870  Biso   1.000  O
  O13      1.0000 0.20010  0.57680  0.49910  Biso   1.000  O
  O14      1.0000 0.26920  0.52300  0.62760  Biso   1.000  O
  O15      1.0000 0.16640  0.61150  0.63760  Biso   1.000  O
  O16      1.0000 0.04750  0.60140  0.44050  Biso   1.000  O
  O17      1.0000 0.13290  0.35090  0.54470  Biso   1.000  O
  O18      1.0000 0.06670  0.78510  0.45890  Biso   1.000  O
  O19      1.0000 0.11760  0.77230  0.57650  Biso   1.000  O
  O20      1.0000 0.17990  0.88250  0.58220  Biso   1.000  O
  O21      1.0000 0.22740  0.75090  0.63680  Biso   1.000  O
  O22      1.0000 0.09960  0.55540  0.56510  Biso   1.000  O
  O23      1.0000 0.57000  0.13890  0.91220  Biso   1.000  O
  O24      1.0000 0.06220  0.69060  0.51380  Biso   1.000  O
  O25      1.0000 0.14030  0.52850  0.43530  Biso   1.000  O
  O26      1.0000 0.14690  0.43790  0.61770  Biso   1.000  O
  N1       1.0000 0.12000  0.40550  0.36280  Biso   1.000  N
  H1       1.0000 0.12280  0.42970  0.38480  Biso   1.000  H
  N2       1.0000 0.11030  0.30630  0.31690  Biso   1.000  N
  C1       1.0000 0.11480  0.38690  0.30710  Biso   1.000  C
  O27      1.0000 0.11460  0.34490  0.14640  Biso   1.000  O
  O28      1.0000 0.27820  0.65700  0.66050  Biso   1.000  O
  C2       1.0000 0.12620  0.24290  0.41760  Biso   1.000  C
  H2       1.0000 0.13910  0.29250  0.43370  Biso   1.000  H
  O29      1.0000 0.13100  0.98410  0.46990  Biso   1.000  O
  N3       1.0000 0.12300  0.45170  0.33620  Biso   1.000  N
  C3       1.0000 0.11590  0.40060  0.27200  Biso   1.000  C
  C4       1.0000 0.11240  0.32060  0.24720  Biso   1.000  C
  H3       1.0000 0.10910  0.26290  0.25410  Biso   1.000  H
  C5       1.0000 0.11230  0.31790  0.35120  Biso   1.000  C
  C6       1.0000 0.10900  0.24410  0.37270  Biso   1.000  C
  N4       1.0000 0.42850  0.41860  0.77220  Biso   1.000  N
  O30      1.0000 0.53130  0.04880  0.88990  Biso   1.000  O
  C7       1.0000 0.45920  0.42720  0.80140  Biso   1.000  C
  C8       1.0000 0.48100  0.34980  0.82220  Biso   1.000  C
  C9       1.0000 0.53270  0.28710  0.87080  Biso   1.000  C
  H4       1.0000 0.55420  0.29440  0.88740  Biso   1.000  H
  C10      1.0000 0.48830  0.18380  0.83690  Biso   1.000  C
  H5       1.0000 0.48030  0.12460  0.83290  Biso   1.000  H
  C11      1.0000 0.46950  0.25790  0.81560  Biso   1.000  C
  H6       1.0000 0.44810  0.24830  0.79580  Biso   1.000  H
  C12      1.0000 0.52100  0.20180  0.86560  Biso   1.000  C
  C13      1.0000 0.54170  0.12500  0.88990  Biso   1.000  C
  C14      1.0000 0.51380  0.36420  0.85230  Biso   1.000  C
  H7       1.0000 0.52210  0.42330  0.85930  Biso   1.000  H
  C15      1.0000 0.41800  0.50450  0.76510  Biso   1.000  C
  C16      1.0000 0.32130  0.56720  0.68350  Biso   1.000  C
  C17      1.0000 0.33270  0.47850  0.68550  Biso   1.000  C
  H8       1.0000 0.31870  0.43030  0.67030  Biso   1.000  H
  C18      1.0000 0.12330  0.49020  0.22670  Biso   1.000  C
  H9       1.0000 0.12710  0.54720  0.22000  Biso   1.000  H
  C19      1.0000 0.12170  0.48390  0.26040  Biso   1.000  C
  H10      1.0000 0.12450  0.53700  0.27560  Biso   1.000  H
  C20      1.0000 0.11390  0.32810  0.21470  Biso   1.000  C
  H11      1.0000 0.11130  0.27570  0.19920  Biso   1.000  H
  C21      1.0000 0.10640  0.09050  0.41290  Biso   1.000  C
  C22      1.0000 0.34290  0.63620  0.71040  Biso   1.000  C
  H12      1.0000 0.33660  0.69480  0.71170  Biso   1.000  H
  C23      1.0000 0.10630  0.00810  0.43390  Biso   1.000  C
  N5       1.0000 0.46650  0.51730  0.80780  Biso   1.000  N
  H13      1.0000 0.48520  0.53890  0.82360  Biso   1.000  H
  N6       1.0000 0.44030  0.56920  0.78580  Biso   1.000  N
  C24      1.0000 0.36460  0.46180  0.70980  Biso   1.000  C
  H14      1.0000 0.37190  0.40640  0.70720  Biso   1.000  H
  C25      1.0000 0.37460  0.61210  0.73530  Biso   1.000  C
  H15      1.0000 0.38960  0.65740  0.75180  Biso   1.000  H
  C26      1.0000 0.28730  0.58240  0.65730  Biso   1.000  C
  C27      1.0000 0.38400  0.52540  0.73620  Biso   1.000  C
  C28      1.0000 0.12440  0.16800  0.43850  Biso   1.000  C
  H16      1.0000 0.13450  0.16900  0.46780  Biso   1.000  H
  C29      1.0000 0.09150  0.16720  0.35080  Biso   1.000  C
  H17      1.0000 0.08020  0.16730  0.32120  Biso   1.000  H
  O31      1.0000 0.08360  0.95640  0.41700  Biso   1.000  O
  C30      1.0000 0.11950  0.41470  0.20340  Biso   1.000  C
  O32      1.0000 0.12980  0.49200  0.16240  Biso   1.000  O
  C31      1.0000 0.12240  0.41780  0.17040  Biso   1.000  C
  C32      1.0000 0.08930  0.09400  0.36790  Biso   1.000  C
  H18      1.0000 0.07670  0.04530  0.35080  Biso   1.000  H
  Mo13     1.0000 0.67362  0.98442  0.48721  Biso   1.000  Mo
  Mo14     1.0000 0.69348  0.21286  0.50748  Biso   1.000  Mo
  Mo15     1.0000 0.65235  0.35132  0.59034  Biso   1.000  Mo
  Mo16     1.0000 0.57250  0.18445  0.42900  Biso   1.000  Mo
  Mo17     1.0000 0.58280  0.29362  0.51381  Biso   1.000  Mo
  Mo18     1.0000 0.66897  0.87641  0.55285  Biso   1.000  Mo
  Mo19     1.0000 0.61758  0.14848  0.42458  Biso   1.000  Mo
  Mo20     1.0000 0.70620  0.29594  0.57507  Biso   1.000  Mo
  Mo21     1.0000 0.68709  0.00048  0.63855  Biso   1.000  Mo
  Mo22     1.0000 0.70280  0.17397  0.65120  Biso   1.000  Mo
  Mo23     1.0000 0.56708  0.06188  0.50306  Biso   1.000  Mo
  Zn5      1.0000 0.62910  0.36106  0.48523  Biso   1.000  Zn
  Mo24     1.0000 0.60814  0.93515  0.55294  Biso   1.000  Mo
  Zn6      1.0000 0.72567  0.05099  0.59381  Biso   1.000  Zn
  Zn7      1.0000 0.59930  0.94710  0.45615  Biso   1.000  Zn
  Zn8      1.0000 0.62291  0.15713  0.60630  Biso   1.000  Zn
  O33      1.0000 0.71400  0.07010  0.63150  Biso   1.000  O
  O34      1.0000 0.71740  0.17480  0.56740  Biso   1.000  O
  O35      1.0000 0.64390  0.91660  0.49280  Biso   1.000  O
  O36      1.0000 0.59080  0.07010  0.42960  Biso   1.000  O
  O37      1.0000 0.69650  0.96240  0.54960  Biso   1.000  O
  O38      1.0000 0.62000  0.35280  0.52690  Biso   1.000  O
  O39      1.0000 0.67220  0.31170  0.51400  Biso   1.000  O
  O40      1.0000 0.60850  0.25490  0.44500  Biso   1.000  O
  O41      1.0000 0.67870  0.28940  0.64070  Biso   1.000  O
  O42      1.0000 0.58620  0.96360  0.49250  Biso   1.000  O
  O43      1.0000 0.69300  0.89850  0.60980  Biso   1.000  O
  O44      1.0000 0.65870  0.20530  0.44870  Biso   1.000  O
  O45      1.0000 0.70010  0.07680  0.49910  Biso   1.000  O
  O46      1.0000 0.76920  0.02300  0.62760  Biso   1.000  O
  O47      1.0000 0.66640  0.11150  0.63760  Biso   1.000  O
  O48      1.0000 0.54750  0.10140  0.44050  Biso   1.000  O
  O49      1.0000 0.63290  0.85090  0.54470  Biso   1.000  O
  O50      1.0000 0.56670  0.28510  0.45890  Biso   1.000  O
  O51      1.0000 0.61760  0.27230  0.57650  Biso   1.000  O
  O52      1.0000 0.67990  0.38250  0.58220  Biso   1.000  O
  O53      1.0000 0.72740  0.25090  0.63680  Biso   1.000  O
  O54      1.0000 0.59960  0.05540  0.56510  Biso   1.000  O
  O55      1.0000 0.07000  0.63890  0.91220  Biso   1.000  O
  O56      1.0000 0.56220  0.19060  0.51380  Biso   1.000  O
  O57      1.0000 0.64030  0.02850  0.43530  Biso   1.000  O
  O58      1.0000 0.64690  0.93790  0.61770  Biso   1.000  O
  N7       1.0000 0.62000  0.90550  0.36280  Biso   1.000  N
  H19      1.0000 0.62280  0.92970  0.38480  Biso   1.000  H
  N8       1.0000 0.61030  0.80630  0.31690  Biso   1.000  N
  C33      1.0000 0.61480  0.88690  0.30710  Biso   1.000  C
  O59      1.0000 0.61460  0.84490  0.14640  Biso   1.000  O
  O60      1.0000 0.77820  0.15700  0.66050  Biso   1.000  O
  C34      1.0000 0.62620  0.74290  0.41760  Biso   1.000  C
  H20      1.0000 0.63910  0.79250  0.43370  Biso   1.000  H
  O61      1.0000 0.63100  0.48410  0.46990  Biso   1.000  O
  N9       1.0000 0.62300  0.95170  0.33620  Biso   1.000  N
  C35      1.0000 0.61590  0.90060  0.27200  Biso   1.000  C
  C36      1.0000 0.61240  0.82060  0.24720  Biso   1.000  C
  H21      1.0000 0.60910  0.76290  0.25410  Biso   1.000  H
  C37      1.0000 0.61230  0.81790  0.35120  Biso   1.000  C
  C38      1.0000 0.60900  0.74410  0.37270  Biso   1.000  C
  N10      1.0000 0.92850  0.91860  0.77220  Biso   1.000  N
  O62      1.0000 0.03130  0.54880  0.88990  Biso   1.000  O
  C39      1.0000 0.95920  0.92720  0.80140  Biso   1.000  C
  C40      1.0000 0.98100  0.84980  0.82220  Biso   1.000  C
  C41      1.0000 0.03270  0.78710  0.87080  Biso   1.000  C
  H22      1.0000 0.05420  0.79440  0.88740  Biso   1.000  H
  C42      1.0000 0.98830  0.68380  0.83690  Biso   1.000  C
  H23      1.0000 0.98030  0.62460  0.83290  Biso   1.000  H
  C43      1.0000 0.96950  0.75790  0.81560  Biso   1.000  C
  H24      1.0000 0.94810  0.74830  0.79580  Biso   1.000  H
  C44      1.0000 0.02100  0.70180  0.86560  Biso   1.000  C
  C45      1.0000 0.04170  0.62500  0.88990  Biso   1.000  C
  C46      1.0000 0.01380  0.86420  0.85230  Biso   1.000  C
  H25      1.0000 0.02210  0.92330  0.85930  Biso   1.000  H
  C47      1.0000 0.91800  0.00450  0.76510  Biso   1.000  C
  C48      1.0000 0.82130  0.06720  0.68350  Biso   1.000  C
  C49      1.0000 0.83270  0.97850  0.68550  Biso   1.000  C
  H26      1.0000 0.81870  0.93030  0.67030  Biso   1.000  H
  C50      1.0000 0.62330  0.99020  0.22670  Biso   1.000  C
  H27      1.0000 0.62710  0.04720  0.22000  Biso   1.000  H
  C51      1.0000 0.62170  0.98390  0.26040  Biso   1.000  C
  H28      1.0000 0.62450  0.03700  0.27560  Biso   1.000  H
  C52      1.0000 0.61390  0.82810  0.21470  Biso   1.000  C
  H29      1.0000 0.61130  0.77570  0.19920  Biso   1.000  H
  C53      1.0000 0.60640  0.59050  0.41290  Biso   1.000  C
  C54      1.0000 0.84290  0.13620  0.71040  Biso   1.000  C
  H30      1.0000 0.83660  0.19480  0.71170  Biso   1.000  H
  C55      1.0000 0.60630  0.50810  0.43390  Biso   1.000  C
  N11      1.0000 0.96650  0.01730  0.80780  Biso   1.000  N
  H31      1.0000 0.98520  0.03890  0.82360  Biso   1.000  H
  N12      1.0000 0.94030  0.06920  0.78580  Biso   1.000  N
  C56      1.0000 0.86460  0.96180  0.70980  Biso   1.000  C
  H32      1.0000 0.87190  0.90640  0.70720  Biso   1.000  H
  C57      1.0000 0.87460  0.11210  0.73530  Biso   1.000  C
  H33      1.0000 0.88960  0.15740  0.75180  Biso   1.000  H
  C58      1.0000 0.78730  0.08240  0.65730  Biso   1.000  C
  C59      1.0000 0.88400  0.02540  0.73620  Biso   1.000  C
  C60      1.0000 0.62440  0.66800  0.43850  Biso   1.000  C
  H34      1.0000 0.63450  0.66900  0.46780  Biso   1.000  H
  C61      1.0000 0.59150  0.66720  0.35080  Biso   1.000  C
  H35      1.0000 0.58020  0.66730  0.32120  Biso   1.000  H
  O63      1.0000 0.58360  0.45640  0.41700  Biso   1.000  O
  C62      1.0000 0.61950  0.91470  0.20340  Biso   1.000  C
  O64      1.0000 0.62980  0.99200  0.16240  Biso   1.000  O
  C63      1.0000 0.62240  0.91780  0.17040  Biso   1.000  C
  C64      1.0000 0.58930  0.59400  0.36790  Biso   1.000  C
  H36      1.0000 0.57670  0.54530  0.35080  Biso   1.000  H
  Mo25     1.0000 0.17362  0.51558  0.98721  Biso   1.000  Mo
  Mo26     1.0000 0.19348  0.28714  0.00748  Biso   1.000  Mo
  Mo27     1.0000 0.15235  0.14868  0.09034  Biso   1.000  Mo
  Mo28     1.0000 0.07250  0.31555  0.92900  Biso   1.000  Mo
  Mo29     1.0000 0.08280  0.20638  0.01381  Biso   1.000  Mo
  Mo30     1.0000 0.16897  0.62359  0.05285  Biso   1.000  Mo
  Mo31     1.0000 0.11758  0.35152  0.92458  Biso   1.000  Mo
  Mo32     1.0000 0.20620  0.20406  0.07507  Biso   1.000  Mo
  Mo33     1.0000 0.18709  0.49952  0.13855  Biso   1.000  Mo
  Mo34     1.0000 0.20280  0.32603  0.15120  Biso   1.000  Mo
  Mo35     1.0000 0.06708  0.43812  0.00306  Biso   1.000  Mo
  Zn9      1.0000 0.12910  0.13894  0.98523  Biso   1.000  Zn
  Mo36     1.0000 0.10814  0.56485  0.05294  Biso   1.000  Mo
  Zn10     1.0000 0.22567  0.44901  0.09381  Biso   1.000  Zn
  Zn11     1.0000 0.09930  0.55290  0.95615  Biso   1.000  Zn
  Zn12     1.0000 0.12291  0.34287  0.10630  Biso   1.000  Zn
  O65      1.0000 0.21400  0.42990  0.13150  Biso   1.000  O
  O66      1.0000 0.21740  0.32520  0.06740  Biso   1.000  O
  O67      1.0000 0.14390  0.58340  0.99280  Biso   1.000  O
  O68      1.0000 0.09080  0.42990  0.92960  Biso   1.000  O
  O69      1.0000 0.19650  0.53760  0.04960  Biso   1.000  O
  O70      1.0000 0.12000  0.14720  0.02690  Biso   1.000  O
  O71      1.0000 0.17220  0.18830  0.01400  Biso   1.000  O
  O72      1.0000 0.10850  0.24510  0.94500  Biso   1.000  O
  O73      1.0000 0.17870  0.21060  0.14070  Biso   1.000  O
  O74      1.0000 0.08620  0.53640  0.99250  Biso   1.000  O
  O75      1.0000 0.19300  0.60150  0.10980  Biso   1.000  O
  O76      1.0000 0.15870  0.29470  0.94870  Biso   1.000  O
  O77      1.0000 0.20010  0.42320  0.99910  Biso   1.000  O
  O78      1.0000 0.26920  0.47700  0.12760  Biso   1.000  O
  O79      1.0000 0.16640  0.38850  0.13760  Biso   1.000  O
  O80      1.0000 0.04750  0.39860  0.94050  Biso   1.000  O
  O81      1.0000 0.13290  0.64910  0.04470  Biso   1.000  O
  O82      1.0000 0.06670  0.21490  0.95890  Biso   1.000  O
  O83      1.0000 0.11760  0.22770  0.07650  Biso   1.000  O
  O84      1.0000 0.17990  0.11750  0.08220  Biso   1.000  O
  O85      1.0000 0.22740  0.24910  0.13680  Biso   1.000  O
  O86      1.0000 0.09960  0.44460  0.06510  Biso   1.000  O
  O87      1.0000 0.57000  0.86110  0.41220  Biso   1.000  O
  O88      1.0000 0.06220  0.30940  0.01380  Biso   1.000  O
  O89      1.0000 0.14030  0.47150  0.93530  Biso   1.000  O
  O90      1.0000 0.14690  0.56210  0.11770  Biso   1.000  O
  N13      1.0000 0.12000  0.59450  0.86280  Biso   1.000  N
  H37      1.0000 0.12280  0.57030  0.88480  Biso   1.000  H
  N14      1.0000 0.11030  0.69370  0.81690  Biso   1.000  N
  C65      1.0000 0.11480  0.61310  0.80710  Biso   1.000  C
  O91      1.0000 0.11460  0.65510  0.64640  Biso   1.000  O
  O92      1.0000 0.27820  0.34300  0.16050  Biso   1.000  O
  C66      1.0000 0.12620  0.75710  0.91760  Biso   1.000  C
  H38      1.0000 0.13910  0.70750  0.93370  Biso   1.000  H
  O93      1.0000 0.13100  0.01590  0.96990  Biso   1.000  O
  N15      1.0000 0.12300  0.54830  0.83620  Biso   1.000  N
  C67      1.0000 0.11590  0.59940  0.77200  Biso   1.000  C
  C68      1.0000 0.11240  0.67940  0.74720  Biso   1.000  C
  H39      1.0000 0.10910  0.73710  0.75410  Biso   1.000  H
  C69      1.0000 0.11230  0.68210  0.85120  Biso   1.000  C
  C70      1.0000 0.10900  0.75590  0.87270  Biso   1.000  C
  N16      1.0000 0.42850  0.58140  0.27220  Biso   1.000  N
  O94      1.0000 0.53130  0.95120  0.38990  Biso   1.000  O
  C71      1.0000 0.45920  0.57280  0.30140  Biso   1.000  C
  C72      1.0000 0.48100  0.65020  0.32220  Biso   1.000  C
  C73      1.0000 0.53270  0.71290  0.37080  Biso   1.000  C
  H40      1.0000 0.55420  0.70560  0.38740  Biso   1.000  H
  C74      1.0000 0.48830  0.81620  0.33690  Biso   1.000  C
  H41      1.0000 0.48030  0.87540  0.33290  Biso   1.000  H
  C75      1.0000 0.46950  0.74210  0.31560  Biso   1.000  C
  H42      1.0000 0.44810  0.75170  0.29580  Biso   1.000  H
  C76      1.0000 0.52100  0.79820  0.36560  Biso   1.000  C
  C77      1.0000 0.54170  0.87500  0.38990  Biso   1.000  C
  C78      1.0000 0.51380  0.63580  0.35230  Biso   1.000  C
  H43      1.0000 0.52210  0.57670  0.35930  Biso   1.000  H
  C79      1.0000 0.41800  0.49550  0.26510  Biso   1.000  C
  C80      1.0000 0.32130  0.43280  0.18350  Biso   1.000  C
  C81      1.0000 0.33270  0.52150  0.18550  Biso   1.000  C
  H44      1.0000 0.31870  0.56970  0.17030  Biso   1.000  H
  C82      1.0000 0.12330  0.50980  0.72670  Biso   1.000  C
  H45      1.0000 0.12710  0.45280  0.72000  Biso   1.000  H
  C83      1.0000 0.12170  0.51610  0.76040  Biso   1.000  C
  H46      1.0000 0.12450  0.46300  0.77560  Biso   1.000  H
  C84      1.0000 0.11390  0.67190  0.71470  Biso   1.000  C
  H47      1.0000 0.11130  0.72430  0.69920  Biso   1.000  H
  C85      1.0000 0.10640  0.90950  0.91290  Biso   1.000  C
  C86      1.0000 0.34290  0.36380  0.21040  Biso   1.000  C
  H48      1.0000 0.33660  0.30520  0.21170  Biso   1.000  H
  C87      1.0000 0.10630  0.99190  0.93390  Biso   1.000  C
  N17      1.0000 0.46650  0.48270  0.30780  Biso   1.000  N
  H49      1.0000 0.48520  0.46110  0.32360  Biso   1.000  H
  N18      1.0000 0.44030  0.43080  0.28580  Biso   1.000  N
  C88      1.0000 0.36460  0.53820  0.20980  Biso   1.000  C
  H50      1.0000 0.37190  0.59360  0.20720  Biso   1.000  H
  C89      1.0000 0.37460  0.38790  0.23530  Biso   1.000  C
  H51      1.0000 0.38960  0.34260  0.25180  Biso   1.000  H
  C90      1.0000 0.28730  0.41760  0.15730  Biso   1.000  C
  C91      1.0000 0.38400  0.47460  0.23620  Biso   1.000  C
  C92      1.0000 0.12440  0.83200  0.93850  Biso   1.000  C
  H52      1.0000 0.13450  0.83100  0.96780  Biso   1.000  H
  C93      1.0000 0.09150  0.83280  0.85080  Biso   1.000  C
  H53      1.0000 0.08020  0.83270  0.82120  Biso   1.000  H
  O95      1.0000 0.08360  0.04360  0.91700  Biso   1.000  O
  C94      1.0000 0.11950  0.58530  0.70340  Biso   1.000  C
  O96      1.0000 0.12980  0.50800  0.66240  Biso   1.000  O
  C95      1.0000 0.12240  0.58220  0.67040  Biso   1.000  C
  C96      1.0000 0.08930  0.90600  0.86790  Biso   1.000  C
  H54      1.0000 0.07670  0.95470  0.85080  Biso   1.000  H
  Mo37     1.0000 0.67362  0.01558  0.98721  Biso   1.000  Mo
  Mo38     1.0000 0.69348  0.78714  0.00748  Biso   1.000  Mo
  Mo39     1.0000 0.65235  0.64868  0.09034  Biso   1.000  Mo
  Mo40     1.0000 0.57250  0.81555  0.92900  Biso   1.000  Mo
  Mo41     1.0000 0.58280  0.70638  0.01381  Biso   1.000  Mo
  Mo42     1.0000 0.66897  0.12359  0.05285  Biso   1.000  Mo
  Mo43     1.0000 0.61758  0.85152  0.92458  Biso   1.000  Mo
  Mo44     1.0000 0.70620  0.70406  0.07507  Biso   1.000  Mo
  Mo45     1.0000 0.68709  0.99952  0.13855  Biso   1.000  Mo
  Mo46     1.0000 0.70280  0.82603  0.15120  Biso   1.000  Mo
  Mo47     1.0000 0.56708  0.93812  0.00306  Biso   1.000  Mo
  Zn13     1.0000 0.62910  0.63894  0.98523  Biso   1.000  Zn
  Mo48     1.0000 0.60814  0.06485  0.05294  Biso   1.000  Mo
  Zn14     1.0000 0.72567  0.94901  0.09381  Biso   1.000  Zn
  Zn15     1.0000 0.59930  0.05290  0.95615  Biso   1.000  Zn
  Zn16     1.0000 0.62291  0.84287  0.10630  Biso   1.000  Zn
  O97      1.0000 0.71400  0.92990  0.13150  Biso   1.000  O
  O98      1.0000 0.71740  0.82520  0.06740  Biso   1.000  O
  O99      1.0000 0.64390  0.08340  0.99280  Biso   1.000  O
  O100     1.0000 0.59080  0.92990  0.92960  Biso   1.000  O
  O101     1.0000 0.69650  0.03760  0.04960  Biso   1.000  O
  O102     1.0000 0.62000  0.64720  0.02690  Biso   1.000  O
  O103     1.0000 0.67220  0.68830  0.01400  Biso   1.000  O
  O104     1.0000 0.60850  0.74510  0.94500  Biso   1.000  O
  O105     1.0000 0.67870  0.71060  0.14070  Biso   1.000  O
  O106     1.0000 0.58620  0.03640  0.99250  Biso   1.000  O
  O107     1.0000 0.69300  0.10150  0.10980  Biso   1.000  O
  O108     1.0000 0.65870  0.79470  0.94870  Biso   1.000  O
  O109     1.0000 0.70010  0.92320  0.99910  Biso   1.000  O
  O110     1.0000 0.76920  0.97700  0.12760  Biso   1.000  O
  O111     1.0000 0.66640  0.88850  0.13760  Biso   1.000  O
  O112     1.0000 0.54750  0.89860  0.94050  Biso   1.000  O
  O113     1.0000 0.63290  0.14910  0.04470  Biso   1.000  O
  O114     1.0000 0.56670  0.71490  0.95890  Biso   1.000  O
  O115     1.0000 0.61760  0.72770  0.07650  Biso   1.000  O
  O116     1.0000 0.67990  0.61750  0.08220  Biso   1.000  O
  O117     1.0000 0.72740  0.74910  0.13680  Biso   1.000  O
  O118     1.0000 0.59960  0.94460  0.06510  Biso   1.000  O
  O119     1.0000 0.07000  0.36110  0.41220  Biso   1.000  O
  O120     1.0000 0.56220  0.80940  0.01380  Biso   1.000  O
  O121     1.0000 0.64030  0.97150  0.93530  Biso   1.000  O
  O122     1.0000 0.64690  0.06210  0.11770  Biso   1.000  O
  N19      1.0000 0.62000  0.09450  0.86280  Biso   1.000  N
  H55      1.0000 0.62280  0.07030  0.88480  Biso   1.000  H
  N20      1.0000 0.61030  0.19370  0.81690  Biso   1.000  N
  C97      1.0000 0.61480  0.11310  0.80710  Biso   1.000  C
  O123     1.0000 0.61460  0.15510  0.64640  Biso   1.000  O
  O124     1.0000 0.77820  0.84300  0.16050  Biso   1.000  O
  C98      1.0000 0.62620  0.25710  0.91760  Biso   1.000  C
  H56      1.0000 0.63910  0.20750  0.93370  Biso   1.000  H
  O125     1.0000 0.63100  0.51590  0.96990  Biso   1.000  O
  N21      1.0000 0.62300  0.04830  0.83620  Biso   1.000  N
  C99      1.0000 0.61590  0.09940  0.77200  Biso   1.000  C
  C100     1.0000 0.61240  0.17940  0.74720  Biso   1.000  C
  H57      1.0000 0.60910  0.23710  0.75410  Biso   1.000  H
  C101     1.0000 0.61230  0.18210  0.85120  Biso   1.000  C
  C102     1.0000 0.60900  0.25590  0.87270  Biso   1.000  C
  N22      1.0000 0.92850  0.08140  0.27220  Biso   1.000  N
  O126     1.0000 0.03130  0.45120  0.38990  Biso   1.000  O
  C103     1.0000 0.95920  0.07280  0.30140  Biso   1.000  C
  C104     1.0000 0.98100  0.15020  0.32220  Biso   1.000  C
  C105     1.0000 0.03270  0.21290  0.37080  Biso   1.000  C
  H58      1.0000 0.05420  0.20560  0.38740  Biso   1.000  H
  C106     1.0000 0.98830  0.31620  0.33690  Biso   1.000  C
  H59      1.0000 0.98030  0.37540  0.33290  Biso   1.000  H
  C107     1.0000 0.96950  0.24210  0.31560  Biso   1.000  C
  H60      1.0000 0.94810  0.25170  0.29580  Biso   1.000  H
  C108     1.0000 0.02100  0.29820  0.36560  Biso   1.000  C
  C109     1.0000 0.04170  0.37500  0.38990  Biso   1.000  C
  C110     1.0000 0.01380  0.13580  0.35230  Biso   1.000  C
  H61      1.0000 0.02210  0.07670  0.35930  Biso   1.000  H
  C111     1.0000 0.91800  0.99550  0.26510  Biso   1.000  C
  C112     1.0000 0.82130  0.93280  0.18350  Biso   1.000  C
  C113     1.0000 0.83270  0.02150  0.18550  Biso   1.000  C
  H62      1.0000 0.81870  0.06970  0.17030  Biso   1.000  H
  C114     1.0000 0.62330  0.00980  0.72670  Biso   1.000  C
  H63      1.0000 0.62710  0.95280  0.72000  Biso   1.000  H
  C115     1.0000 0.62170  0.01610  0.76040  Biso   1.000  C
  H64      1.0000 0.62450  0.96300  0.77560  Biso   1.000  H
  C116     1.0000 0.61390  0.17190  0.71470  Biso   1.000  C
  H65      1.0000 0.61130  0.22430  0.69920  Biso   1.000  H
  C117     1.0000 0.60640  0.40950  0.91290  Biso   1.000  C
  C118     1.0000 0.84290  0.86380  0.21040  Biso   1.000  C
  H66      1.0000 0.83660  0.80520  0.21170  Biso   1.000  H
  C119     1.0000 0.60630  0.49190  0.93390  Biso   1.000  C
  N23      1.0000 0.96650  0.98270  0.30780  Biso   1.000  N
  H67      1.0000 0.98520  0.96110  0.32360  Biso   1.000  H
  N24      1.0000 0.94030  0.93080  0.28580  Biso   1.000  N
  C120     1.0000 0.86460  0.03820  0.20980  Biso   1.000  C
  H68      1.0000 0.87190  0.09360  0.20720  Biso   1.000  H
  C121     1.0000 0.87460  0.88790  0.23530  Biso   1.000  C
  H69      1.0000 0.88960  0.84260  0.25180  Biso   1.000  H
  C122     1.0000 0.78730  0.91760  0.15730  Biso   1.000  C
  C123     1.0000 0.88400  0.97460  0.23620  Biso   1.000  C
  C124     1.0000 0.62440  0.33200  0.93850  Biso   1.000  C
  H70      1.0000 0.63450  0.33100  0.96780  Biso   1.000  H
  C125     1.0000 0.59150  0.33280  0.85080  Biso   1.000  C
  H71      1.0000 0.58020  0.33270  0.82120  Biso   1.000  H
  O127     1.0000 0.58360  0.54360  0.91700  Biso   1.000  O
  C126     1.0000 0.61950  0.08530  0.70340  Biso   1.000  C
  O128     1.0000 0.62980  0.00800  0.66240  Biso   1.000  O
  C127     1.0000 0.62240  0.08220  0.67040  Biso   1.000  C
  C128     1.0000 0.58930  0.40600  0.86790  Biso   1.000  C
  H72      1.0000 0.57670  0.45470  0.85080  Biso   1.000  H
  Mo49     1.0000 0.82638  0.48442  0.01279  Biso   1.000  Mo
  Mo50     1.0000 0.80652  0.71286  0.99252  Biso   1.000  Mo
  Mo51     1.0000 0.84765  0.85132  0.90966  Biso   1.000  Mo
  Mo52     1.0000 0.92750  0.68445  0.07100  Biso   1.000  Mo
  Mo53     1.0000 0.91720  0.79362  0.98619  Biso   1.000  Mo
  Mo54     1.0000 0.83103  0.37641  0.94715  Biso   1.000  Mo
  Mo55     1.0000 0.88242  0.64848  0.07542  Biso   1.000  Mo
  Mo56     1.0000 0.79380  0.79594  0.92493  Biso   1.000  Mo
  Mo57     1.0000 0.81291  0.50048  0.86145  Biso   1.000  Mo
  Mo58     1.0000 0.79720  0.67397  0.84880  Biso   1.000  Mo
  Mo59     1.0000 0.93292  0.56188  0.99694  Biso   1.000  Mo
  Zn17     1.0000 0.87090  0.86106  0.01477  Biso   1.000  Zn
  Mo60     1.0000 0.89186  0.43515  0.94706  Biso   1.000  Mo
  Zn18     1.0000 0.77433  0.55099  0.90619  Biso   1.000  Zn
  Zn19     1.0000 0.90070  0.44710  0.04385  Biso   1.000  Zn
  Zn20     1.0000 0.87709  0.65713  0.89370  Biso   1.000  Zn
  O129     1.0000 0.78600  0.57010  0.86850  Biso   1.000  O
  O130     1.0000 0.78260  0.67480  0.93260  Biso   1.000  O
  O131     1.0000 0.85610  0.41660  0.00720  Biso   1.000  O
  O132     1.0000 0.90920  0.57010  0.07040  Biso   1.000  O
  O133     1.0000 0.80350  0.46240  0.95040  Biso   1.000  O
  O134     1.0000 0.88000  0.85280  0.97310  Biso   1.000  O
  O135     1.0000 0.82780  0.81170  0.98600  Biso   1.000  O
  O136     1.0000 0.89150  0.75490  0.05500  Biso   1.000  O
  O137     1.0000 0.82130  0.78940  0.85930  Biso   1.000  O
  O138     1.0000 0.91380  0.46360  0.00750  Biso   1.000  O
  O139     1.0000 0.80700  0.39850  0.89020  Biso   1.000  O
  O140     1.0000 0.84130  0.70530  0.05130  Biso   1.000  O
  O141     1.0000 0.79990  0.57680  0.00090  Biso   1.000  O
  O142     1.0000 0.73080  0.52300  0.87240  Biso   1.000  O
  O143     1.0000 0.83360  0.61150  0.86240  Biso   1.000  O
  O144     1.0000 0.95250  0.60140  0.05950  Biso   1.000  O
  O145     1.0000 0.86710  0.35090  0.95530  Biso   1.000  O
  O146     1.0000 0.93330  0.78510  0.04110  Biso   1.000  O
  O147     1.0000 0.88240  0.77230  0.92350  Biso   1.000  O
  O148     1.0000 0.82010  0.88250  0.91780  Biso   1.000  O
  O149     1.0000 0.77260  0.75090  0.86320  Biso   1.000  O
  O150     1.0000 0.90040  0.55540  0.93490  Biso   1.000  O
  O151     1.0000 0.43000  0.13890  0.58780  Biso   1.000  O
  O152     1.0000 0.93780  0.69060  0.98620  Biso   1.000  O
  O153     1.0000 0.85970  0.52850  0.06470  Biso   1.000  O
  O154     1.0000 0.85310  0.43790  0.88230  Biso   1.000  O
  N25      1.0000 0.88000  0.40550  0.13720  Biso   1.000  N
  H73      1.0000 0.87720  0.42970  0.11520  Biso   1.000  H
  N26      1.0000 0.88970  0.30630  0.18310  Biso   1.000  N
  C129     1.0000 0.88520  0.38690  0.19290  Biso   1.000  C
  O155     1.0000 0.88540  0.34490  0.35360  Biso   1.000  O
  O156     1.0000 0.72180  0.65700  0.83950  Biso   1.000  O
  C130     1.0000 0.87380  0.24290  0.08240  Biso   1.000  C
  H74      1.0000 0.86090  0.29250  0.06630  Biso   1.000  H
  O157     1.0000 0.86900  0.98410  0.03010  Biso   1.000  O
  N27      1.0000 0.87700  0.45170  0.16380  Biso   1.000  N
  C131     1.0000 0.88410  0.40060  0.22800  Biso   1.000  C
  C132     1.0000 0.88760  0.32060  0.25280  Biso   1.000  C
  H75      1.0000 0.89090  0.26290  0.24590  Biso   1.000  H
  C133     1.0000 0.88770  0.31790  0.14880  Biso   1.000  C
  C134     1.0000 0.89100  0.24410  0.12730  Biso   1.000  C
  N28      1.0000 0.57150  0.41860  0.72780  Biso   1.000  N
  O158     1.0000 0.46870  0.04880  0.61010  Biso   1.000  O
  C135     1.0000 0.54080  0.42720  0.69860  Biso   1.000  C
  C136     1.0000 0.51900  0.34980  0.67780  Biso   1.000  C
  C137     1.0000 0.46730  0.28710  0.62920  Biso   1.000  C
  H76      1.0000 0.44580  0.29440  0.61260  Biso   1.000  H
  C138     1.0000 0.51170  0.18380  0.66310  Biso   1.000  C
  H77      1.0000 0.51970  0.12460  0.66710  Biso   1.000  H
  C139     1.0000 0.53050  0.25790  0.68440  Biso   1.000  C
  H78      1.0000 0.55190  0.24830  0.70420  Biso   1.000  H
  C140     1.0000 0.47900  0.20180  0.63440  Biso   1.000  C
  C141     1.0000 0.45830  0.12500  0.61010  Biso   1.000  C
  C142     1.0000 0.48620  0.36420  0.64770  Biso   1.000  C
  H79      1.0000 0.47790  0.42330  0.64070  Biso   1.000  H
  C143     1.0000 0.58200  0.50450  0.73490  Biso   1.000  C
  C144     1.0000 0.67870  0.56720  0.81650  Biso   1.000  C
  C145     1.0000 0.66730  0.47850  0.81450  Biso   1.000  C
  H80      1.0000 0.68130  0.43030  0.82970  Biso   1.000  H
  C146     1.0000 0.87670  0.49020  0.27330  Biso   1.000  C
  H81      1.0000 0.87290  0.54720  0.28000  Biso   1.000  H
  C147     1.0000 0.87830  0.48390  0.23960  Biso   1.000  C
  H82      1.0000 0.87550  0.53700  0.22440  Biso   1.000  H
  C148     1.0000 0.88610  0.32810  0.28530  Biso   1.000  C
  H83      1.0000 0.88870  0.27570  0.30080  Biso   1.000  H
  C149     1.0000 0.89360  0.09050  0.08710  Biso   1.000  C
  C150     1.0000 0.65710  0.63620  0.78960  Biso   1.000  C
  H84      1.0000 0.66340  0.69480  0.78830  Biso   1.000  H
  C151     1.0000 0.89370  0.00810  0.06610  Biso   1.000  C
  N29      1.0000 0.53350  0.51730  0.69220  Biso   1.000  N
  H85      1.0000 0.51480  0.53890  0.67640  Biso   1.000  H
  N30      1.0000 0.55970  0.56920  0.71420  Biso   1.000  N
  C152     1.0000 0.63540  0.46180  0.79020  Biso   1.000  C
  H86      1.0000 0.62810  0.40640  0.79280  Biso   1.000  H
  C153     1.0000 0.62540  0.61210  0.76470  Biso   1.000  C
  H87      1.0000 0.61040  0.65740  0.74820  Biso   1.000  H
  C154     1.0000 0.71270  0.58240  0.84270  Biso   1.000  C
  C155     1.0000 0.61600  0.52540  0.76380  Biso   1.000  C
  C156     1.0000 0.87560  0.16800  0.06150  Biso   1.000  C
  H88      1.0000 0.86550  0.16900  0.03220  Biso   1.000  H
  C157     1.0000 0.90850  0.16720  0.14920  Biso   1.000  C
  H89      1.0000 0.91980  0.16730  0.17880  Biso   1.000  H
  O159     1.0000 0.91640  0.95640  0.08300  Biso   1.000  O
  C158     1.0000 0.88050  0.41470  0.29660  Biso   1.000  C
  O160     1.0000 0.87020  0.49200  0.33760  Biso   1.000  O
  C159     1.0000 0.87760  0.41780  0.32960  Biso   1.000  C
  C160     1.0000 0.91070  0.09400  0.13210  Biso   1.000  C
  H90      1.0000 0.92330  0.04530  0.14920  Biso   1.000  H
  Mo61     1.0000 0.32638  0.98442  0.01279  Biso   1.000  Mo
  Mo62     1.0000 0.30652  0.21286  0.99252  Biso   1.000  Mo
  Mo63     1.0000 0.34765  0.35132  0.90966  Biso   1.000  Mo
  Mo64     1.0000 0.42750  0.18445  0.07100  Biso   1.000  Mo
  Mo65     1.0000 0.41720  0.29362  0.98619  Biso   1.000  Mo
  Mo66     1.0000 0.33103  0.87641  0.94715  Biso   1.000  Mo
  Mo67     1.0000 0.38242  0.14848  0.07542  Biso   1.000  Mo
  Mo68     1.0000 0.29380  0.29594  0.92493  Biso   1.000  Mo
  Mo69     1.0000 0.31291  0.00048  0.86145  Biso   1.000  Mo
  Mo70     1.0000 0.29720  0.17397  0.84880  Biso   1.000  Mo
  Mo71     1.0000 0.43292  0.06188  0.99694  Biso   1.000  Mo
  Zn21     1.0000 0.37090  0.36106  0.01477  Biso   1.000  Zn
  Mo72     1.0000 0.39186  0.93515  0.94706  Biso   1.000  Mo
  Zn22     1.0000 0.27433  0.05099  0.90619  Biso   1.000  Zn
  Zn23     1.0000 0.40070  0.94710  0.04385  Biso   1.000  Zn
  Zn24     1.0000 0.37709  0.15713  0.89370  Biso   1.000  Zn
  O161     1.0000 0.28600  0.07010  0.86850  Biso   1.000  O
  O162     1.0000 0.28260  0.17480  0.93260  Biso   1.000  O
  O163     1.0000 0.35610  0.91660  0.00720  Biso   1.000  O
  O164     1.0000 0.40920  0.07010  0.07040  Biso   1.000  O
  O165     1.0000 0.30350  0.96240  0.95040  Biso   1.000  O
  O166     1.0000 0.38000  0.35280  0.97310  Biso   1.000  O
  O167     1.0000 0.32780  0.31170  0.98600  Biso   1.000  O
  O168     1.0000 0.39150  0.25490  0.05500  Biso   1.000  O
  O169     1.0000 0.32130  0.28940  0.85930  Biso   1.000  O
  O170     1.0000 0.41380  0.96360  0.00750  Biso   1.000  O
  O171     1.0000 0.30700  0.89850  0.89020  Biso   1.000  O
  O172     1.0000 0.34130  0.20530  0.05130  Biso   1.000  O
  O173     1.0000 0.29990  0.07680  0.00090  Biso   1.000  O
  O174     1.0000 0.23080  0.02300  0.87240  Biso   1.000  O
  O175     1.0000 0.33360  0.11150  0.86240  Biso   1.000  O
  O176     1.0000 0.45250  0.10140  0.05950  Biso   1.000  O
  O177     1.0000 0.36710  0.85090  0.95530  Biso   1.000  O
  O178     1.0000 0.43330  0.28510  0.04110  Biso   1.000  O
  O179     1.0000 0.38240  0.27230  0.92350  Biso   1.000  O
  O180     1.0000 0.32010  0.38250  0.91780  Biso   1.000  O
  O181     1.0000 0.27260  0.25090  0.86320  Biso   1.000  O
  O182     1.0000 0.40040  0.05540  0.93490  Biso   1.000  O
  O183     1.0000 0.93000  0.63890  0.58780  Biso   1.000  O
  O184     1.0000 0.43780  0.19060  0.98620  Biso   1.000  O
  O185     1.0000 0.35970  0.02850  0.06470  Biso   1.000  O
  O186     1.0000 0.35310  0.93790  0.88230  Biso   1.000  O
  N31      1.0000 0.38000  0.90550  0.13720  Biso   1.000  N
  H91      1.0000 0.37720  0.92970  0.11520  Biso   1.000  H
  N32      1.0000 0.38970  0.80630  0.18310  Biso   1.000  N
  C161     1.0000 0.38520  0.88690  0.19290  Biso   1.000  C
  O187     1.0000 0.38540  0.84490  0.35360  Biso   1.000  O
  O188     1.0000 0.22180  0.15700  0.83950  Biso   1.000  O
  C162     1.0000 0.37380  0.74290  0.08240  Biso   1.000  C
  H92      1.0000 0.36090  0.79250  0.06630  Biso   1.000  H
  O189     1.0000 0.36900  0.48410  0.03010  Biso   1.000  O
  N33      1.0000 0.37700  0.95170  0.16380  Biso   1.000  N
  C163     1.0000 0.38410  0.90060  0.22800  Biso   1.000  C
  C164     1.0000 0.38760  0.82060  0.25280  Biso   1.000  C
  H93      1.0000 0.39090  0.76290  0.24590  Biso   1.000  H
  C165     1.0000 0.38770  0.81790  0.14880  Biso   1.000  C
  C166     1.0000 0.39100  0.74410  0.12730  Biso   1.000  C
  N34      1.0000 0.07150  0.91860  0.72780  Biso   1.000  N
  O190     1.0000 0.96870  0.54880  0.61010  Biso   1.000  O
  C167     1.0000 0.04080  0.92720  0.69860  Biso   1.000  C
  C168     1.0000 0.01900  0.84980  0.67780  Biso   1.000  C
  C169     1.0000 0.96730  0.78710  0.62920  Biso   1.000  C
  H94      1.0000 0.94580  0.79440  0.61260  Biso   1.000  H
  C170     1.0000 0.01170  0.68380  0.66310  Biso   1.000  C
  H95      1.0000 0.01970  0.62460  0.66710  Biso   1.000  H
  C171     1.0000 0.03050  0.75790  0.68440  Biso   1.000  C
  H96      1.0000 0.05190  0.74830  0.70420  Biso   1.000  H
  C172     1.0000 0.97900  0.70180  0.63440  Biso   1.000  C
  C173     1.0000 0.95830  0.62500  0.61010  Biso   1.000  C
  C174     1.0000 0.98620  0.86420  0.64770  Biso   1.000  C
  H97      1.0000 0.97790  0.92330  0.64070  Biso   1.000  H
  C175     1.0000 0.08200  0.00450  0.73490  Biso   1.000  C
  C176     1.0000 0.17870  0.06720  0.81650  Biso   1.000  C
  C177     1.0000 0.16730  0.97850  0.81450  Biso   1.000  C
  H98      1.0000 0.18130  0.93030  0.82970  Biso   1.000  H
  C178     1.0000 0.37670  0.99020  0.27330  Biso   1.000  C
  H99      1.0000 0.37290  0.04720  0.28000  Biso   1.000  H
  C179     1.0000 0.37830  0.98390  0.23960  Biso   1.000  C
  H100     1.0000 0.37550  0.03700  0.22440  Biso   1.000  H
  C180     1.0000 0.38610  0.82810  0.28530  Biso   1.000  C
  H101     1.0000 0.38870  0.77570  0.30080  Biso   1.000  H
  C181     1.0000 0.39360  0.59050  0.08710  Biso   1.000  C
  C182     1.0000 0.15710  0.13620  0.78960  Biso   1.000  C
  H102     1.0000 0.16340  0.19480  0.78830  Biso   1.000  H
  C183     1.0000 0.39370  0.50810  0.06610  Biso   1.000  C
  N35      1.0000 0.03350  0.01730  0.69220  Biso   1.000  N
  H103     1.0000 0.01480  0.03890  0.67640  Biso   1.000  H
  N36      1.0000 0.05970  0.06920  0.71420  Biso   1.000  N
  C184     1.0000 0.13540  0.96180  0.79020  Biso   1.000  C
  H104     1.0000 0.12810  0.90640  0.79280  Biso   1.000  H
  C185     1.0000 0.12540  0.11210  0.76470  Biso   1.000  C
  H105     1.0000 0.11040  0.15740  0.74820  Biso   1.000  H
  C186     1.0000 0.21270  0.08240  0.84270  Biso   1.000  C
  C187     1.0000 0.11600  0.02540  0.76380  Biso   1.000  C
  C188     1.0000 0.37560  0.66800  0.06150  Biso   1.000  C
  H106     1.0000 0.36550  0.66900  0.03220  Biso   1.000  H
  C189     1.0000 0.40850  0.66720  0.14920  Biso   1.000  C
  H107     1.0000 0.41980  0.66730  0.17880  Biso   1.000  H
  O191     1.0000 0.41640  0.45640  0.08300  Biso   1.000  O
  C190     1.0000 0.38050  0.91470  0.29660  Biso   1.000  C
  O192     1.0000 0.37020  0.99200  0.33760  Biso   1.000  O
  C191     1.0000 0.37760  0.91780  0.32960  Biso   1.000  C
  C192     1.0000 0.41070  0.59400  0.13210  Biso   1.000  C
  H108     1.0000 0.42330  0.54530  0.14920  Biso   1.000  H
  Mo73     1.0000 0.82638  0.51558  0.51279  Biso   1.000  Mo
  Mo74     1.0000 0.80652  0.28714  0.49252  Biso   1.000  Mo
  Mo75     1.0000 0.84765  0.14868  0.40966  Biso   1.000  Mo
  Mo76     1.0000 0.92750  0.31555  0.57100  Biso   1.000  Mo
  Mo77     1.0000 0.91720  0.20638  0.48619  Biso   1.000  Mo
  Mo78     1.0000 0.83103  0.62359  0.44715  Biso   1.000  Mo
  Mo79     1.0000 0.88242  0.35152  0.57542  Biso   1.000  Mo
  Mo80     1.0000 0.79380  0.20406  0.42493  Biso   1.000  Mo
  Mo81     1.0000 0.81291  0.49952  0.36145  Biso   1.000  Mo
  Mo82     1.0000 0.79720  0.32603  0.34880  Biso   1.000  Mo
  Mo83     1.0000 0.93292  0.43812  0.49694  Biso   1.000  Mo
  Zn25     1.0000 0.87090  0.13894  0.51477  Biso   1.000  Zn
  Mo84     1.0000 0.89186  0.56485  0.44706  Biso   1.000  Mo
  Zn26     1.0000 0.77433  0.44901  0.40619  Biso   1.000  Zn
  Zn27     1.0000 0.90070  0.55290  0.54385  Biso   1.000  Zn
  Zn28     1.0000 0.87709  0.34287  0.39370  Biso   1.000  Zn
  O193     1.0000 0.78600  0.42990  0.36850  Biso   1.000  O
  O194     1.0000 0.78260  0.32520  0.43260  Biso   1.000  O
  O195     1.0000 0.85610  0.58340  0.50720  Biso   1.000  O
  O196     1.0000 0.90920  0.42990  0.57040  Biso   1.000  O
  O197     1.0000 0.80350  0.53760  0.45040  Biso   1.000  O
  O198     1.0000 0.88000  0.14720  0.47310  Biso   1.000  O
  O199     1.0000 0.82780  0.18830  0.48600  Biso   1.000  O
  O200     1.0000 0.89150  0.24510  0.55500  Biso   1.000  O
  O201     1.0000 0.82130  0.21060  0.35930  Biso   1.000  O
  O202     1.0000 0.91380  0.53640  0.50750  Biso   1.000  O
  O203     1.0000 0.80700  0.60150  0.39020  Biso   1.000  O
  O204     1.0000 0.84130  0.29470  0.55130  Biso   1.000  O
  O205     1.0000 0.79990  0.42320  0.50090  Biso   1.000  O
  O206     1.0000 0.73080  0.47700  0.37240  Biso   1.000  O
  O207     1.0000 0.83360  0.38850  0.36240  Biso   1.000  O
  O208     1.0000 0.95250  0.39860  0.55950  Biso   1.000  O
  O209     1.0000 0.86710  0.64910  0.45530  Biso   1.000  O
  O210     1.0000 0.93330  0.21490  0.54110  Biso   1.000  O
  O211     1.0000 0.88240  0.22770  0.42350  Biso   1.000  O
  O212     1.0000 0.82010  0.11750  0.41780  Biso   1.000  O
  O213     1.0000 0.77260  0.24910  0.36320  Biso   1.000  O
  O214     1.0000 0.90040  0.44460  0.43490  Biso   1.000  O
  O215     1.0000 0.43000  0.86110  0.08780  Biso   1.000  O
  O216     1.0000 0.93780  0.30940  0.48620  Biso   1.000  O
  O217     1.0000 0.85970  0.47150  0.56470  Biso   1.000  O
  O218     1.0000 0.85310  0.56210  0.38230  Biso   1.000  O
  N37      1.0000 0.88000  0.59450  0.63720  Biso   1.000  N
  H109     1.0000 0.87720  0.57030  0.61520  Biso   1.000  H
  N38      1.0000 0.88970  0.69370  0.68310  Biso   1.000  N
  C193     1.0000 0.88520  0.61310  0.69290  Biso   1.000  C
  O219     1.0000 0.88540  0.65510  0.85360  Biso   1.000  O
  O220     1.0000 0.72180  0.34300  0.33950  Biso   1.000  O
  C194     1.0000 0.87380  0.75710  0.58240  Biso   1.000  C
  H110     1.0000 0.86090  0.70750  0.56630  Biso   1.000  H
  O221     1.0000 0.86900  0.01590  0.53010  Biso   1.000  O
  N39      1.0000 0.87700  0.54830  0.66380  Biso   1.000  N
  C195     1.0000 0.88410  0.59940  0.72800  Biso   1.000  C
  C196     1.0000 0.88760  0.67940  0.75280  Biso   1.000  C
  H111     1.0000 0.89090  0.73710  0.74590  Biso   1.000  H
  C197     1.0000 0.88770  0.68210  0.64880  Biso   1.000  C
  C198     1.0000 0.89100  0.75590  0.62730  Biso   1.000  C
  N40      1.0000 0.57150  0.58140  0.22780  Biso   1.000  N
  O222     1.0000 0.46870  0.95120  0.11010  Biso   1.000  O
  C199     1.0000 0.54080  0.57280  0.19860  Biso   1.000  C
  C200     1.0000 0.51900  0.65020  0.17780  Biso   1.000  C
  C201     1.0000 0.46730  0.71290  0.12920  Biso   1.000  C
  H112     1.0000 0.44580  0.70560  0.11260  Biso   1.000  H
  C202     1.0000 0.51170  0.81620  0.16310  Biso   1.000  C
  H113     1.0000 0.51970  0.87540  0.16710  Biso   1.000  H
  C203     1.0000 0.53050  0.74210  0.18440  Biso   1.000  C
  H114     1.0000 0.55190  0.75170  0.20420  Biso   1.000  H
  C204     1.0000 0.47900  0.79820  0.13440  Biso   1.000  C
  C205     1.0000 0.45830  0.87500  0.11010  Biso   1.000  C
  C206     1.0000 0.48620  0.63580  0.14770  Biso   1.000  C
  H115     1.0000 0.47790  0.57670  0.14070  Biso   1.000  H
  C207     1.0000 0.58200  0.49550  0.23490  Biso   1.000  C
  C208     1.0000 0.67870  0.43280  0.31650  Biso   1.000  C
  C209     1.0000 0.66730  0.52150  0.31450  Biso   1.000  C
  H116     1.0000 0.68130  0.56970  0.32970  Biso   1.000  H
  C210     1.0000 0.87670  0.50980  0.77330  Biso   1.000  C
  H117     1.0000 0.87290  0.45280  0.78000  Biso   1.000  H
  C211     1.0000 0.87830  0.51610  0.73960  Biso   1.000  C
  H118     1.0000 0.87550  0.46300  0.72440  Biso   1.000  H
  C212     1.0000 0.88610  0.67190  0.78530  Biso   1.000  C
  H119     1.0000 0.88870  0.72430  0.80080  Biso   1.000  H
  C213     1.0000 0.89360  0.90950  0.58710  Biso   1.000  C
  C214     1.0000 0.65710  0.36380  0.28960  Biso   1.000  C
  H120     1.0000 0.66340  0.30520  0.28830  Biso   1.000  H
  C215     1.0000 0.89370  0.99190  0.56610  Biso   1.000  C
  N41      1.0000 0.53350  0.48270  0.19220  Biso   1.000  N
  H121     1.0000 0.51480  0.46110  0.17640  Biso   1.000  H
  N42      1.0000 0.55970  0.43080  0.21420  Biso   1.000  N
  C216     1.0000 0.63540  0.53820  0.29020  Biso   1.000  C
  H122     1.0000 0.62810  0.59360  0.29280  Biso   1.000  H
  C217     1.0000 0.62540  0.38790  0.26470  Biso   1.000  C
  H123     1.0000 0.61040  0.34260  0.24820  Biso   1.000  H
  C218     1.0000 0.71270  0.41760  0.34270  Biso   1.000  C
  C219     1.0000 0.61600  0.47460  0.26380  Biso   1.000  C
  C220     1.0000 0.87560  0.83200  0.56150  Biso   1.000  C
  H124     1.0000 0.86550  0.83100  0.53220  Biso   1.000  H
  C221     1.0000 0.90850  0.83280  0.64920  Biso   1.000  C
  H125     1.0000 0.91980  0.83270  0.67880  Biso   1.000  H
  O223     1.0000 0.91640  0.04360  0.58300  Biso   1.000  O
  C222     1.0000 0.88050  0.58530  0.79660  Biso   1.000  C
  O224     1.0000 0.87020  0.50800  0.83760  Biso   1.000  O
  C223     1.0000 0.87760  0.58220  0.82960  Biso   1.000  C
  C224     1.0000 0.91070  0.90600  0.63210  Biso   1.000  C
  H126     1.0000 0.92330  0.95470  0.64920  Biso   1.000  H
  Mo85     1.0000 0.32638  0.01558  0.51279  Biso   1.000  Mo
  Mo86     1.0000 0.30652  0.78714  0.49252  Biso   1.000  Mo
  Mo87     1.0000 0.34765  0.64868  0.40966  Biso   1.000  Mo
  Mo88     1.0000 0.42750  0.81555  0.57100  Biso   1.000  Mo
  Mo89     1.0000 0.41720  0.70638  0.48619  Biso   1.000  Mo
  Mo90     1.0000 0.33103  0.12359  0.44715  Biso   1.000  Mo
  Mo91     1.0000 0.38242  0.85152  0.57542  Biso   1.000  Mo
  Mo92     1.0000 0.29380  0.70406  0.42493  Biso   1.000  Mo
  Mo93     1.0000 0.31291  0.99952  0.36145  Biso   1.000  Mo
  Mo94     1.0000 0.29720  0.82603  0.34880  Biso   1.000  Mo
  Mo95     1.0000 0.43292  0.93812  0.49694  Biso   1.000  Mo
  Zn29     1.0000 0.37090  0.63894  0.51477  Biso   1.000  Zn
  Mo96     1.0000 0.39186  0.06485  0.44706  Biso   1.000  Mo
  Zn30     1.0000 0.27433  0.94901  0.40619  Biso   1.000  Zn
  Zn31     1.0000 0.40070  0.05290  0.54385  Biso   1.000  Zn
  Zn32     1.0000 0.37709  0.84287  0.39370  Biso   1.000  Zn
  O225     1.0000 0.28600  0.92990  0.36850  Biso   1.000  O
  O226     1.0000 0.28260  0.82520  0.43260  Biso   1.000  O
  O227     1.0000 0.35610  0.08340  0.50720  Biso   1.000  O
  O228     1.0000 0.40920  0.92990  0.57040  Biso   1.000  O
  O229     1.0000 0.30350  0.03760  0.45040  Biso   1.000  O
  O230     1.0000 0.38000  0.64720  0.47310  Biso   1.000  O
  O231     1.0000 0.32780  0.68830  0.48600  Biso   1.000  O
  O232     1.0000 0.39150  0.74510  0.55500  Biso   1.000  O
  O233     1.0000 0.32130  0.71060  0.35930  Biso   1.000  O
  O234     1.0000 0.41380  0.03640  0.50750  Biso   1.000  O
  O235     1.0000 0.30700  0.10150  0.39020  Biso   1.000  O
  O236     1.0000 0.34130  0.79470  0.55130  Biso   1.000  O
  O237     1.0000 0.29990  0.92320  0.50090  Biso   1.000  O
  O238     1.0000 0.23080  0.97700  0.37240  Biso   1.000  O
  O239     1.0000 0.33360  0.88850  0.36240  Biso   1.000  O
  O240     1.0000 0.45250  0.89860  0.55950  Biso   1.000  O
  O241     1.0000 0.36710  0.14910  0.45530  Biso   1.000  O
  O242     1.0000 0.43330  0.71490  0.54110  Biso   1.000  O
  O243     1.0000 0.38240  0.72770  0.42350  Biso   1.000  O
  O244     1.0000 0.32010  0.61750  0.41780  Biso   1.000  O
  O245     1.0000 0.27260  0.74910  0.36320  Biso   1.000  O
  O246     1.0000 0.40040  0.94460  0.43490  Biso   1.000  O
  O247     1.0000 0.93000  0.36110  0.08780  Biso   1.000  O
  O248     1.0000 0.43780  0.80940  0.48620  Biso   1.000  O
  O249     1.0000 0.35970  0.97150  0.56470  Biso   1.000  O
  O250     1.0000 0.35310  0.06210  0.38230  Biso   1.000  O
  N43      1.0000 0.38000  0.09450  0.63720  Biso   1.000  N
  H127     1.0000 0.37720  0.07030  0.61520  Biso   1.000  H
  N44      1.0000 0.38970  0.19370  0.68310  Biso   1.000  N
  C225     1.0000 0.38520  0.11310  0.69290  Biso   1.000  C
  O251     1.0000 0.38540  0.15510  0.85360  Biso   1.000  O
  O252     1.0000 0.22180  0.84300  0.33950  Biso   1.000  O
  C226     1.0000 0.37380  0.25710  0.58240  Biso   1.000  C
  H128     1.0000 0.36090  0.20750  0.56630  Biso   1.000  H
  O253     1.0000 0.36900  0.51590  0.53010  Biso   1.000  O
  N45      1.0000 0.37700  0.04830  0.66380  Biso   1.000  N
  C227     1.0000 0.38410  0.09940  0.72800  Biso   1.000  C
  C228     1.0000 0.38760  0.17940  0.75280  Biso   1.000  C
  H129     1.0000 0.39090  0.23710  0.74590  Biso   1.000  H
  C229     1.0000 0.38770  0.18210  0.64880  Biso   1.000  C
  C230     1.0000 0.39100  0.25590  0.62730  Biso   1.000  C
  N46      1.0000 0.07150  0.08140  0.22780  Biso   1.000  N
  O254     1.0000 0.96870  0.45120  0.11010  Biso   1.000  O
  C231     1.0000 0.04080  0.07280  0.19860  Biso   1.000  C
  C232     1.0000 0.01900  0.15020  0.17780  Biso   1.000  C
  C233     1.0000 0.96730  0.21290  0.12920  Biso   1.000  C
  H130     1.0000 0.94580  0.20560  0.11260  Biso   1.000  H
  C234     1.0000 0.01170  0.31620  0.16310  Biso   1.000  C
  H131     1.0000 0.01970  0.37540  0.16710  Biso   1.000  H
  C235     1.0000 0.03050  0.24210  0.18440  Biso   1.000  C
  H132     1.0000 0.05190  0.25170  0.20420  Biso   1.000  H
  C236     1.0000 0.97900  0.29820  0.13440  Biso   1.000  C
  C237     1.0000 0.95830  0.37500  0.11010  Biso   1.000  C
  C238     1.0000 0.98620  0.13580  0.14770  Biso   1.000  C
  H133     1.0000 0.97790  0.07670  0.14070  Biso   1.000  H
  C239     1.0000 0.08200  0.99550  0.23490  Biso   1.000  C
  C240     1.0000 0.17870  0.93280  0.31650  Biso   1.000  C
  C241     1.0000 0.16730  0.02150  0.31450  Biso   1.000  C
  H134     1.0000 0.18130  0.06970  0.32970  Biso   1.000  H
  C242     1.0000 0.37670  0.00980  0.77330  Biso   1.000  C
  H135     1.0000 0.37290  0.95280  0.78000  Biso   1.000  H
  C243     1.0000 0.37830  0.01610  0.73960  Biso   1.000  C
  H136     1.0000 0.37550  0.96300  0.72440  Biso   1.000  H
  C244     1.0000 0.38610  0.17190  0.78530  Biso   1.000  C
  H137     1.0000 0.38870  0.22430  0.80080  Biso   1.000  H
  C245     1.0000 0.39360  0.40950  0.58710  Biso   1.000  C
  C246     1.0000 0.15710  0.86380  0.28960  Biso   1.000  C
  H138     1.0000 0.16340  0.80520  0.28830  Biso   1.000  H
  C247     1.0000 0.39370  0.49190  0.56610  Biso   1.000  C
  N47      1.0000 0.03350  0.98270  0.19220  Biso   1.000  N
  H139     1.0000 0.01480  0.96110  0.17640  Biso   1.000  H
  N48      1.0000 0.05970  0.93080  0.21420  Biso   1.000  N
  C248     1.0000 0.13540  0.03820  0.29020  Biso   1.000  C
  H140     1.0000 0.12810  0.09360  0.29280  Biso   1.000  H
  C249     1.0000 0.12540  0.88790  0.26470  Biso   1.000  C
  H141     1.0000 0.11040  0.84260  0.24820  Biso   1.000  H
  C250     1.0000 0.21270  0.91760  0.34270  Biso   1.000  C
  C251     1.0000 0.11600  0.97460  0.26380  Biso   1.000  C
  C252     1.0000 0.37560  0.33200  0.56150  Biso   1.000  C
  H142     1.0000 0.36550  0.33100  0.53220  Biso   1.000  H
  C253     1.0000 0.40850  0.33280  0.64920  Biso   1.000  C
  H143     1.0000 0.41980  0.33270  0.67880  Biso   1.000  H
  O255     1.0000 0.41640  0.54360  0.58300  Biso   1.000  O
  C254     1.0000 0.38050  0.08530  0.79660  Biso   1.000  C
  O256     1.0000 0.37020  0.00800  0.83760  Biso   1.000  O
  C255     1.0000 0.37760  0.08220  0.82960  Biso   1.000  C
  C256     1.0000 0.41070  0.40600  0.63210  Biso   1.000  C
  H144     1.0000 0.42330  0.45470  0.64920  Biso   1.000  H
