data_UDIHIZ_charged
_audit_creation_date              2014-07-02
_audit_creation_method            'Materials Studio'
_symmetry_space_group_name_H-M    'P1'
_symmetry_Int_Tables_number       1
_symmetry_cell_setting            triclinic
loop_
_symmetry_equiv_pos_as_xyz
  x,y,z
_cell_length_a                    12.7819
_cell_length_b                    12.7819
_cell_length_c                    85.2940
_cell_angle_alpha                 90.0000
_cell_angle_beta                  90.0000
_cell_angle_gamma                 120.0000
loop_
_atom_site_label
_atom_site_type_symbol
_atom_site_fract_x
_atom_site_fract_y
_atom_site_fract_z
_atom_site_U_iso_or_equiv
_atom_site_adp_type
_atom_site_occupancy
Nd1    Nd    0.52852   0.98684   0.00472   0.01267  Uiso   1.00
Nd2    Nd    0.38676   0.79548   0.04633   0.01267  Uiso   1.00
Nd3    Nd    0.69387   0.03489   0.95943   0.01267  Uiso   1.00
Nd4    Nd    0.45832   0.47148   0.67139   0.01267  Uiso   1.00
Nd5    Nd    0.40872   0.61324   0.71299   0.01267  Uiso   1.00
Nd6    Nd    0.34102   0.30613   0.62610   0.01267  Uiso   1.00
Nd7    Nd    0.01316   0.54168   0.33806   0.01267  Uiso   1.00
Nd8    Nd    0.20452   0.59128   0.37966   0.01267  Uiso   1.00
Nd9    Nd    0.96511   0.65898   0.29276   0.01267  Uiso   1.00
Nd10   Nd    0.47148   0.01316   0.50472   0.01267  Uiso   1.00
Nd11   Nd    0.61324   0.20452   0.54633   0.01267  Uiso   1.00
Nd12   Nd    0.30613   0.96511   0.45943   0.01267  Uiso   1.00
Nd13   Nd    0.54168   0.52852   0.17139   0.01267  Uiso   1.00
Nd14   Nd    0.59128   0.38676   0.21299   0.01267  Uiso   1.00
Nd15   Nd    0.65898   0.69387   0.12610   0.01267  Uiso   1.00
Nd16   Nd    0.98684   0.45832   0.83806   0.01267  Uiso   1.00
Nd17   Nd    0.79548   0.40872   0.87966   0.01267  Uiso   1.00
Nd18   Nd    0.03489   0.34102   0.79276   0.01267  Uiso   1.00
Nd19   Nd    0.54168   0.01316   0.66194   0.01267  Uiso   1.00
Nd20   Nd    0.59128   0.20452   0.62034   0.01267  Uiso   1.00
Nd21   Nd    0.65898   0.96511   0.70724   0.01267  Uiso   1.00
Nd22   Nd    0.98684   0.52852   0.99528   0.01267  Uiso   1.00
Nd23   Nd    0.79548   0.38676   0.95367   0.01267  Uiso   1.00
Nd24   Nd    0.03489   0.69387   0.04057   0.01267  Uiso   1.00
Nd25   Nd    0.47148   0.45832   0.32861   0.01267  Uiso   1.00
Nd26   Nd    0.61324   0.40872   0.28701   0.01267  Uiso   1.00
Nd27   Nd    0.30613   0.34102   0.37390   0.01267  Uiso   1.00
Nd28   Nd    0.45832   0.98684   0.16194   0.01267  Uiso   1.00
Nd29   Nd    0.40872   0.79548   0.12034   0.01267  Uiso   1.00
Nd30   Nd    0.34102   0.03489   0.20724   0.01267  Uiso   1.00
Nd31   Nd    0.01316   0.47148   0.49528   0.01267  Uiso   1.00
Nd32   Nd    0.20452   0.61324   0.45367   0.01267  Uiso   1.00
Nd33   Nd    0.96511   0.30613   0.54057   0.01267  Uiso   1.00
Nd34   Nd    0.52852   0.54168   0.82861   0.01267  Uiso   1.00
Nd35   Nd    0.38676   0.59128   0.78701   0.01267  Uiso   1.00
Nd36   Nd    0.69387   0.65898   0.87390   0.01267  Uiso   1.00
Nd37   Nd    0.52484   0.04968   0.08333   0.01267  Uiso   1.00
Nd38   Nd    0.52484   0.47516   0.75000   0.01267  Uiso   1.00
Nd39   Nd    0.95032   0.47516   0.41667   0.01267  Uiso   1.00
Nd40   Nd    0.47516   0.95032   0.58333   0.01267  Uiso   1.00
Nd41   Nd    0.47516   0.52484   0.25000   0.01267  Uiso   1.00
Nd42   Nd    0.04968   0.52484   0.91667   0.01267  Uiso   1.00
H1     H     0.82150   0.23720   0.03850   0.01267  Uiso   1.00
H2     H     0.79400   0.32620   0.04790   0.01267  Uiso   1.00
H3     H     0.63280   0.36740   0.03100   0.01267  Uiso   1.00
H4     H     0.57770   0.29490   0.04660   0.01267  Uiso   1.00
H5     H     0.50970   0.24520   0.03060   0.01267  Uiso   1.00
H6     H     0.09500   0.82360   0.09220   0.01267  Uiso   1.00
H7     H     0.15100   0.94230   0.10220   0.01267  Uiso   1.00
H8     H     0.13570   0.06570   0.08030   0.01267  Uiso   1.00
H9     H     0.06460   0.94290   0.07120   0.01267  Uiso   1.00
H10    H     0.17770   0.05230   0.06350   0.01267  Uiso   1.00
H11    H     0.93170   0.03920   0.99720   0.01267  Uiso   1.00
H12    H     0.95900   0.16460   0.00370   0.01267  Uiso   1.00
H13    H     0.11000   0.14030   0.97830   0.01267  Uiso   1.00
H14    H     0.13780   0.26070   0.98670   0.01267  Uiso   1.00
H15    H     0.12500   0.25030   0.96840   0.01267  Uiso   1.00
H16    H     0.45740   0.57700   0.01150   0.01267  Uiso   1.00
H17    H     0.34770   0.55810   0.00120   0.01267  Uiso   1.00
H18    H     0.32340   0.39050   0.02730   0.01267  Uiso   1.00
H19    H     0.22420   0.37330   0.01510   0.01267  Uiso   1.00
H20    H     0.19760   0.36830   0.03310   0.01267  Uiso   1.00
H21    H     0.41570   0.17850   0.70517   0.01267  Uiso   1.00
H22    H     0.53220   0.20600   0.71457   0.01267  Uiso   1.00
H23    H     0.73460   0.36720   0.69767   0.01267  Uiso   1.00
H24    H     0.71720   0.42230   0.71327   0.01267  Uiso   1.00
H25    H     0.73550   0.49030   0.69727   0.01267  Uiso   1.00
H26    H     0.72860   0.90500   0.75887   0.01267  Uiso   1.00
H27    H     0.79130   0.84900   0.76887   0.01267  Uiso   1.00
H28    H     0.93000   0.86430   0.74697   0.01267  Uiso   1.00
H29    H     0.87830   0.93540   0.73787   0.01267  Uiso   1.00
H30    H     0.87460   0.82230   0.73017   0.01267  Uiso   1.00
H31    H     0.10750   0.06830   0.66387   0.01267  Uiso   1.00
H32    H     0.20560   0.04100   0.67037   0.01267  Uiso   1.00
H33    H     0.03030   0.89000   0.64497   0.01267  Uiso   1.00
H34    H     0.12290   0.86220   0.65337   0.01267  Uiso   1.00
H35    H     0.12530   0.87500   0.63507   0.01267  Uiso   1.00
H36    H     0.11960   0.54260   0.67817   0.01267  Uiso   1.00
H37    H     0.21040   0.65230   0.66787   0.01267  Uiso   1.00
H38    H     0.06710   0.67660   0.69397   0.01267  Uiso   1.00
H39    H     0.14910   0.77580   0.68177   0.01267  Uiso   1.00
H40    H     0.17070   0.80240   0.69977   0.01267  Uiso   1.00
H41    H     0.76280   0.58430   0.37183   0.01267  Uiso   1.00
H42    H     0.67380   0.46780   0.38123   0.01267  Uiso   1.00
H43    H     0.63260   0.26540   0.36433   0.01267  Uiso   1.00
H44    H     0.70510   0.28280   0.37993   0.01267  Uiso   1.00
H45    H     0.75480   0.26450   0.36393   0.01267  Uiso   1.00
H46    H     0.17640   0.27140   0.42553   0.01267  Uiso   1.00
H47    H     0.05770   0.20870   0.43553   0.01267  Uiso   1.00
H48    H     0.93430   0.07000   0.41363   0.01267  Uiso   1.00
H49    H     0.05710   0.12170   0.40453   0.01267  Uiso   1.00
H50    H     0.94770   0.12540   0.39683   0.01267  Uiso   1.00
H51    H     0.96080   0.89250   0.33053   0.01267  Uiso   1.00
H52    H     0.83540   0.79440   0.33703   0.01267  Uiso   1.00
H53    H     0.85970   0.96970   0.31163   0.01267  Uiso   1.00
H54    H     0.73930   0.87710   0.32003   0.01267  Uiso   1.00
H55    H     0.74970   0.87470   0.30173   0.01267  Uiso   1.00
H56    H     0.42300   0.88040   0.34483   0.01267  Uiso   1.00
H57    H     0.44190   0.78960   0.33453   0.01267  Uiso   1.00
H58    H     0.60950   0.93290   0.36063   0.01267  Uiso   1.00
H59    H     0.62670   0.85090   0.34843   0.01267  Uiso   1.00
H60    H     0.63170   0.82930   0.36643   0.01267  Uiso   1.00
H61    H     0.17850   0.76280   0.53850   0.01267  Uiso   1.00
H62    H     0.20600   0.67380   0.54790   0.01267  Uiso   1.00
H63    H     0.36720   0.63260   0.53100   0.01267  Uiso   1.00
H64    H     0.42230   0.70510   0.54660   0.01267  Uiso   1.00
H65    H     0.49030   0.75480   0.53060   0.01267  Uiso   1.00
H66    H     0.90500   0.17640   0.59220   0.01267  Uiso   1.00
H67    H     0.84900   0.05770   0.60220   0.01267  Uiso   1.00
H68    H     0.86430   0.93430   0.58030   0.01267  Uiso   1.00
H69    H     0.93540   0.05710   0.57120   0.01267  Uiso   1.00
H70    H     0.82230   0.94770   0.56350   0.01267  Uiso   1.00
H71    H     0.06830   0.96080   0.49720   0.01267  Uiso   1.00
H72    H     0.04100   0.83540   0.50370   0.01267  Uiso   1.00
H73    H     0.89000   0.85970   0.47830   0.01267  Uiso   1.00
H74    H     0.86220   0.73930   0.48670   0.01267  Uiso   1.00
H75    H     0.87500   0.74970   0.46840   0.01267  Uiso   1.00
H76    H     0.54260   0.42300   0.51150   0.01267  Uiso   1.00
H77    H     0.65230   0.44190   0.50120   0.01267  Uiso   1.00
H78    H     0.67660   0.60950   0.52730   0.01267  Uiso   1.00
H79    H     0.77580   0.62670   0.51510   0.01267  Uiso   1.00
H80    H     0.80240   0.63170   0.53310   0.01267  Uiso   1.00
H81    H     0.58430   0.82150   0.20517   0.01267  Uiso   1.00
H82    H     0.46780   0.79400   0.21457   0.01267  Uiso   1.00
H83    H     0.26540   0.63280   0.19767   0.01267  Uiso   1.00
H84    H     0.28280   0.57770   0.21327   0.01267  Uiso   1.00
H85    H     0.26450   0.50970   0.19727   0.01267  Uiso   1.00
H86    H     0.27140   0.09500   0.25887   0.01267  Uiso   1.00
H87    H     0.20870   0.15100   0.26887   0.01267  Uiso   1.00
H88    H     0.07000   0.13570   0.24697   0.01267  Uiso   1.00
H89    H     0.12170   0.06460   0.23787   0.01267  Uiso   1.00
H90    H     0.12540   0.17770   0.23017   0.01267  Uiso   1.00
H91    H     0.89250   0.93170   0.16387   0.01267  Uiso   1.00
H92    H     0.79440   0.95900   0.17037   0.01267  Uiso   1.00
H93    H     0.96970   0.11000   0.14497   0.01267  Uiso   1.00
H94    H     0.87710   0.13780   0.15337   0.01267  Uiso   1.00
H95    H     0.87470   0.12500   0.13507   0.01267  Uiso   1.00
H96    H     0.88040   0.45740   0.17817   0.01267  Uiso   1.00
H97    H     0.78960   0.34770   0.16787   0.01267  Uiso   1.00
H98    H     0.93290   0.32340   0.19397   0.01267  Uiso   1.00
H99    H     0.85090   0.22420   0.18177   0.01267  Uiso   1.00
H100   H     0.82930   0.19760   0.19977   0.01267  Uiso   1.00
H101   H     0.23720   0.41570   0.87183   0.01267  Uiso   1.00
H102   H     0.32620   0.53220   0.88123   0.01267  Uiso   1.00
H103   H     0.36740   0.73460   0.86433   0.01267  Uiso   1.00
H104   H     0.29490   0.71720   0.87993   0.01267  Uiso   1.00
H105   H     0.24520   0.73550   0.86393   0.01267  Uiso   1.00
H106   H     0.82360   0.72860   0.92553   0.01267  Uiso   1.00
H107   H     0.94230   0.79130   0.93553   0.01267  Uiso   1.00
H108   H     0.06570   0.93000   0.91363   0.01267  Uiso   1.00
H109   H     0.94290   0.87830   0.90453   0.01267  Uiso   1.00
H110   H     0.05230   0.87460   0.89683   0.01267  Uiso   1.00
H111   H     0.03920   0.10750   0.83053   0.01267  Uiso   1.00
H112   H     0.16460   0.20560   0.83703   0.01267  Uiso   1.00
H113   H     0.14030   0.03030   0.81163   0.01267  Uiso   1.00
H114   H     0.26070   0.12290   0.82003   0.01267  Uiso   1.00
H115   H     0.25030   0.12530   0.80173   0.01267  Uiso   1.00
H116   H     0.57700   0.11960   0.84483   0.01267  Uiso   1.00
H117   H     0.55810   0.21040   0.83453   0.01267  Uiso   1.00
H118   H     0.39050   0.06710   0.86063   0.01267  Uiso   1.00
H119   H     0.37330   0.14910   0.84843   0.01267  Uiso   1.00
H120   H     0.36830   0.17070   0.86643   0.01267  Uiso   1.00
H121   H     0.58430   0.76280   0.62817   0.01267  Uiso   1.00
H122   H     0.46780   0.67380   0.61877   0.01267  Uiso   1.00
H123   H     0.26540   0.63260   0.63567   0.01267  Uiso   1.00
H124   H     0.28280   0.70510   0.62007   0.01267  Uiso   1.00
H125   H     0.26450   0.75480   0.63607   0.01267  Uiso   1.00
H126   H     0.27140   0.17640   0.57447   0.01267  Uiso   1.00
H127   H     0.20870   0.05770   0.56447   0.01267  Uiso   1.00
H128   H     0.07000   0.93430   0.58637   0.01267  Uiso   1.00
H129   H     0.12170   0.05710   0.59547   0.01267  Uiso   1.00
H130   H     0.12540   0.94770   0.60317   0.01267  Uiso   1.00
H131   H     0.89250   0.96080   0.66947   0.01267  Uiso   1.00
H132   H     0.79440   0.83540   0.66297   0.01267  Uiso   1.00
H133   H     0.96970   0.85970   0.68837   0.01267  Uiso   1.00
H134   H     0.87710   0.73930   0.67997   0.01267  Uiso   1.00
H135   H     0.87470   0.74970   0.69827   0.01267  Uiso   1.00
H136   H     0.88040   0.42300   0.65517   0.01267  Uiso   1.00
H137   H     0.78960   0.44190   0.66547   0.01267  Uiso   1.00
H138   H     0.93290   0.60950   0.63937   0.01267  Uiso   1.00
H139   H     0.85090   0.62670   0.65157   0.01267  Uiso   1.00
H140   H     0.82930   0.63170   0.63357   0.01267  Uiso   1.00
H141   H     0.23720   0.82150   0.96150   0.01267  Uiso   1.00
H142   H     0.32620   0.79400   0.95210   0.01267  Uiso   1.00
H143   H     0.36740   0.63280   0.96900   0.01267  Uiso   1.00
H144   H     0.29490   0.57770   0.95340   0.01267  Uiso   1.00
H145   H     0.24520   0.50970   0.96940   0.01267  Uiso   1.00
H146   H     0.82360   0.09500   0.90780   0.01267  Uiso   1.00
H147   H     0.94230   0.15100   0.89780   0.01267  Uiso   1.00
H148   H     0.06570   0.13570   0.91970   0.01267  Uiso   1.00
H149   H     0.94290   0.06460   0.92880   0.01267  Uiso   1.00
H150   H     0.05230   0.17770   0.93650   0.01267  Uiso   1.00
H151   H     0.03920   0.93170   0.00280   0.01267  Uiso   1.00
H152   H     0.16460   0.95900   0.99630   0.01267  Uiso   1.00
H153   H     0.14030   0.11000   0.02170   0.01267  Uiso   1.00
H154   H     0.26070   0.13780   0.01330   0.01267  Uiso   1.00
H155   H     0.25030   0.12500   0.03160   0.01267  Uiso   1.00
H156   H     0.57700   0.45740   0.98850   0.01267  Uiso   1.00
H157   H     0.55810   0.34770   0.99880   0.01267  Uiso   1.00
H158   H     0.39050   0.32340   0.97270   0.01267  Uiso   1.00
H159   H     0.37330   0.22420   0.98490   0.01267  Uiso   1.00
H160   H     0.36830   0.19760   0.96690   0.01267  Uiso   1.00
H161   H     0.17850   0.41570   0.29483   0.01267  Uiso   1.00
H162   H     0.20600   0.53220   0.28543   0.01267  Uiso   1.00
H163   H     0.36720   0.73460   0.30233   0.01267  Uiso   1.00
H164   H     0.42230   0.71720   0.28673   0.01267  Uiso   1.00
H165   H     0.49030   0.73550   0.30273   0.01267  Uiso   1.00
H166   H     0.90500   0.72860   0.24113   0.01267  Uiso   1.00
H167   H     0.84900   0.79130   0.23113   0.01267  Uiso   1.00
H168   H     0.86430   0.93000   0.25303   0.01267  Uiso   1.00
H169   H     0.93540   0.87830   0.26213   0.01267  Uiso   1.00
H170   H     0.82230   0.87460   0.26983   0.01267  Uiso   1.00
H171   H     0.06830   0.10750   0.33613   0.01267  Uiso   1.00
H172   H     0.04100   0.20560   0.32963   0.01267  Uiso   1.00
H173   H     0.89000   0.03030   0.35503   0.01267  Uiso   1.00
H174   H     0.86220   0.12290   0.34663   0.01267  Uiso   1.00
H175   H     0.87500   0.12530   0.36493   0.01267  Uiso   1.00
H176   H     0.54260   0.11960   0.32183   0.01267  Uiso   1.00
H177   H     0.65230   0.21040   0.33213   0.01267  Uiso   1.00
H178   H     0.67660   0.06710   0.30603   0.01267  Uiso   1.00
H179   H     0.77580   0.14910   0.31823   0.01267  Uiso   1.00
H180   H     0.80240   0.17070   0.30023   0.01267  Uiso   1.00
H181   H     0.41570   0.23720   0.12817   0.01267  Uiso   1.00
H182   H     0.53220   0.32620   0.11877   0.01267  Uiso   1.00
H183   H     0.73460   0.36740   0.13567   0.01267  Uiso   1.00
H184   H     0.71720   0.29490   0.12007   0.01267  Uiso   1.00
H185   H     0.73550   0.24520   0.13607   0.01267  Uiso   1.00
H186   H     0.72860   0.82360   0.07447   0.01267  Uiso   1.00
H187   H     0.79130   0.94230   0.06447   0.01267  Uiso   1.00
H188   H     0.93000   0.06570   0.08637   0.01267  Uiso   1.00
H189   H     0.87830   0.94290   0.09547   0.01267  Uiso   1.00
H190   H     0.87460   0.05230   0.10317   0.01267  Uiso   1.00
H191   H     0.10750   0.03920   0.16947   0.01267  Uiso   1.00
H192   H     0.20560   0.16460   0.16297   0.01267  Uiso   1.00
H193   H     0.03030   0.14030   0.18837   0.01267  Uiso   1.00
H194   H     0.12290   0.26070   0.17997   0.01267  Uiso   1.00
H195   H     0.12530   0.25030   0.19827   0.01267  Uiso   1.00
H196   H     0.11960   0.57700   0.15517   0.01267  Uiso   1.00
H197   H     0.21040   0.55810   0.16547   0.01267  Uiso   1.00
H198   H     0.06710   0.39050   0.13937   0.01267  Uiso   1.00
H199   H     0.14910   0.37330   0.15157   0.01267  Uiso   1.00
H200   H     0.17070   0.36830   0.13357   0.01267  Uiso   1.00
H201   H     0.76280   0.17850   0.46150   0.01267  Uiso   1.00
H202   H     0.67380   0.20600   0.45210   0.01267  Uiso   1.00
H203   H     0.63260   0.36720   0.46900   0.01267  Uiso   1.00
H204   H     0.70510   0.42230   0.45340   0.01267  Uiso   1.00
H205   H     0.75480   0.49030   0.46940   0.01267  Uiso   1.00
H206   H     0.17640   0.90500   0.40780   0.01267  Uiso   1.00
H207   H     0.05770   0.84900   0.39780   0.01267  Uiso   1.00
H208   H     0.93430   0.86430   0.41970   0.01267  Uiso   1.00
H209   H     0.05710   0.93540   0.42880   0.01267  Uiso   1.00
H210   H     0.94770   0.82230   0.43650   0.01267  Uiso   1.00
H211   H     0.96080   0.06830   0.50280   0.01267  Uiso   1.00
H212   H     0.83540   0.04100   0.49630   0.01267  Uiso   1.00
H213   H     0.85970   0.89000   0.52170   0.01267  Uiso   1.00
H214   H     0.73930   0.86220   0.51330   0.01267  Uiso   1.00
H215   H     0.74970   0.87500   0.53160   0.01267  Uiso   1.00
H216   H     0.42300   0.54260   0.48850   0.01267  Uiso   1.00
H217   H     0.44190   0.65230   0.49880   0.01267  Uiso   1.00
H218   H     0.60950   0.67660   0.47270   0.01267  Uiso   1.00
H219   H     0.62670   0.77580   0.48490   0.01267  Uiso   1.00
H220   H     0.63170   0.80240   0.46690   0.01267  Uiso   1.00
H221   H     0.82150   0.58430   0.79483   0.01267  Uiso   1.00
H222   H     0.79400   0.46780   0.78543   0.01267  Uiso   1.00
H223   H     0.63280   0.26540   0.80233   0.01267  Uiso   1.00
H224   H     0.57770   0.28280   0.78673   0.01267  Uiso   1.00
H225   H     0.50970   0.26450   0.80273   0.01267  Uiso   1.00
H226   H     0.09500   0.27140   0.74113   0.01267  Uiso   1.00
H227   H     0.15100   0.20870   0.73113   0.01267  Uiso   1.00
H228   H     0.13570   0.07000   0.75303   0.01267  Uiso   1.00
H229   H     0.06460   0.12170   0.76213   0.01267  Uiso   1.00
H230   H     0.17770   0.12540   0.76983   0.01267  Uiso   1.00
H231   H     0.93170   0.89250   0.83613   0.01267  Uiso   1.00
H232   H     0.95900   0.79440   0.82963   0.01267  Uiso   1.00
H233   H     0.11000   0.96970   0.85503   0.01267  Uiso   1.00
H234   H     0.13780   0.87710   0.84663   0.01267  Uiso   1.00
H235   H     0.12500   0.87470   0.86493   0.01267  Uiso   1.00
H236   H     0.45740   0.88040   0.82183   0.01267  Uiso   1.00
H237   H     0.34770   0.78960   0.83213   0.01267  Uiso   1.00
H238   H     0.32340   0.93290   0.80603   0.01267  Uiso   1.00
H239   H     0.22420   0.85090   0.81823   0.01267  Uiso   1.00
H240   H     0.19760   0.82930   0.80023   0.01267  Uiso   1.00
C1     C     0.65680   0.21810   0.03287   0.01267  Uiso   1.00
C2     C     0.59430   0.09960   0.04262   0.01267  Uiso   1.00
C3     C     0.78800   0.29040   0.03767   0.01267  Uiso   1.00
C4     C     0.38990   0.86050   0.97427   0.01267  Uiso   1.00
C5     C     0.58760   0.28810   0.03553   0.01267  Uiso   1.00
C6     C     0.22280   0.96970   0.08028   0.01267  Uiso   1.00
C7     C     0.25210   0.89740   0.06805   0.01267  Uiso   1.00
C8     C     0.17010   0.89600   0.09491   0.01267  Uiso   1.00
C9     C     0.25150   0.85930   0.10298   0.01267  Uiso   1.00
C10    C     0.14310   0.01140   0.07318   0.01267  Uiso   1.00
C11    C     0.96320   0.16190   0.97960   0.01267  Uiso   1.00
C12    C     0.27090   0.93930   0.02291   0.01267  Uiso   1.00
C13    C     0.91440   0.10440   0.99577   0.01267  Uiso   1.00
C14    C     0.78310   0.05530   0.99863   0.01267  Uiso   1.00
C15    C     0.09590   0.20740   0.97814   0.01267  Uiso   1.00
C16    C     0.30750   0.54370   0.02519   0.01267  Uiso   1.00
C17    C     0.20080   0.56640   0.02435   0.01267  Uiso   1.00
C18    C     0.39320   0.59620   0.01060   0.01267  Uiso   1.00
C19    C     0.44670   0.72780   0.00924   0.01267  Uiso   1.00
C20    C     0.25860   0.40600   0.02516   0.01267  Uiso   1.00
C21    C     0.56130   0.34320   0.69954   0.01267  Uiso   1.00
C22    C     0.50530   0.40570   0.70929   0.01267  Uiso   1.00
C23    C     0.50240   0.21200   0.70434   0.01267  Uiso   1.00
C24    C     0.47060   0.61010   0.64094   0.01267  Uiso   1.00
C25    C     0.70050   0.41240   0.70220   0.01267  Uiso   1.00
C26    C     0.74690   0.77720   0.74695   0.01267  Uiso   1.00
C27    C     0.64530   0.74790   0.73472   0.01267  Uiso   1.00
C28    C     0.72590   0.82990   0.76158   0.01267  Uiso   1.00
C29    C     0.60780   0.74850   0.76965   0.01267  Uiso   1.00
C30    C     0.86830   0.85690   0.73985   0.01267  Uiso   1.00
C31    C     0.19870   0.03680   0.64627   0.01267  Uiso   1.00
C32    C     0.66840   0.72910   0.68958   0.01267  Uiso   1.00
C33    C     0.19000   0.08560   0.66244   0.01267  Uiso   1.00
C34    C     0.27220   0.21690   0.66530   0.01267  Uiso   1.00
C35    C     0.11150   0.90410   0.64481   0.01267  Uiso   1.00
C36    C     0.23620   0.69250   0.69186   0.01267  Uiso   1.00
C37    C     0.36560   0.79920   0.69102   0.01267  Uiso   1.00
C38    C     0.20300   0.60680   0.67727   0.01267  Uiso   1.00
C39    C     0.28110   0.55330   0.67591   0.01267  Uiso   1.00
C40    C     0.14740   0.74140   0.69183   0.01267  Uiso   1.00
C41    C     0.78190   0.43870   0.36620   0.01267  Uiso   1.00
C42    C     0.90040   0.49470   0.37595   0.01267  Uiso   1.00
C43    C     0.70960   0.49760   0.37100   0.01267  Uiso   1.00
C44    C     0.13950   0.52940   0.30760   0.01267  Uiso   1.00
C45    C     0.71190   0.29950   0.36886   0.01267  Uiso   1.00
C46    C     0.03030   0.25310   0.41361   0.01267  Uiso   1.00
C47    C     0.10260   0.35470   0.40138   0.01267  Uiso   1.00
C48    C     0.10400   0.27410   0.42824   0.01267  Uiso   1.00
C49    C     0.14070   0.39220   0.43631   0.01267  Uiso   1.00
C50    C     0.98860   0.13170   0.40651   0.01267  Uiso   1.00
C51    C     0.83810   0.80130   0.31293   0.01267  Uiso   1.00
C52    C     0.06070   0.33160   0.35624   0.01267  Uiso   1.00
C53    C     0.89560   0.81000   0.32910   0.01267  Uiso   1.00
C54    C     0.94470   0.72780   0.33196   0.01267  Uiso   1.00
C55    C     0.79260   0.88850   0.31147   0.01267  Uiso   1.00
C56    C     0.45630   0.76380   0.35852   0.01267  Uiso   1.00
C57    C     0.43360   0.63440   0.35768   0.01267  Uiso   1.00
C58    C     0.40380   0.79700   0.34393   0.01267  Uiso   1.00
C59    C     0.27220   0.71890   0.34257   0.01267  Uiso   1.00
C60    C     0.59400   0.85260   0.35849   0.01267  Uiso   1.00
C61    C     0.34320   0.78190   0.53287   0.01267  Uiso   1.00
C62    C     0.40570   0.90040   0.54262   0.01267  Uiso   1.00
C63    C     0.21200   0.70960   0.53767   0.01267  Uiso   1.00
C64    C     0.61010   0.13950   0.47427   0.01267  Uiso   1.00
C65    C     0.41240   0.71190   0.53553   0.01267  Uiso   1.00
C66    C     0.77720   0.03030   0.58028   0.01267  Uiso   1.00
C67    C     0.74790   0.10260   0.56805   0.01267  Uiso   1.00
C68    C     0.82990   0.10400   0.59491   0.01267  Uiso   1.00
C69    C     0.74850   0.14070   0.60298   0.01267  Uiso   1.00
C70    C     0.85690   0.98860   0.57318   0.01267  Uiso   1.00
C71    C     0.03680   0.83810   0.47960   0.01267  Uiso   1.00
C72    C     0.72910   0.06070   0.52291   0.01267  Uiso   1.00
C73    C     0.08560   0.89560   0.49577   0.01267  Uiso   1.00
C74    C     0.21690   0.94470   0.49863   0.01267  Uiso   1.00
C75    C     0.90410   0.79260   0.47814   0.01267  Uiso   1.00
C76    C     0.69250   0.45630   0.52519   0.01267  Uiso   1.00
C77    C     0.79920   0.43360   0.52435   0.01267  Uiso   1.00
C78    C     0.60680   0.40380   0.51060   0.01267  Uiso   1.00
C79    C     0.55330   0.27220   0.50924   0.01267  Uiso   1.00
C80    C     0.74140   0.59400   0.52516   0.01267  Uiso   1.00
C81    C     0.43870   0.65680   0.19954   0.01267  Uiso   1.00
C82    C     0.49470   0.59430   0.20929   0.01267  Uiso   1.00
C83    C     0.49760   0.78800   0.20434   0.01267  Uiso   1.00
C84    C     0.52940   0.38990   0.14094   0.01267  Uiso   1.00
C85    C     0.29950   0.58760   0.20220   0.01267  Uiso   1.00
C86    C     0.25310   0.22280   0.24695   0.01267  Uiso   1.00
C87    C     0.35470   0.25210   0.23472   0.01267  Uiso   1.00
C88    C     0.27410   0.17010   0.26158   0.01267  Uiso   1.00
C89    C     0.39220   0.25150   0.26965   0.01267  Uiso   1.00
C90    C     0.13170   0.14310   0.23985   0.01267  Uiso   1.00
C91    C     0.80130   0.96320   0.14627   0.01267  Uiso   1.00
C92    C     0.33160   0.27090   0.18958   0.01267  Uiso   1.00
C93    C     0.81000   0.91440   0.16244   0.01267  Uiso   1.00
C94    C     0.72780   0.78310   0.16530   0.01267  Uiso   1.00
C95    C     0.88850   0.09590   0.14481   0.01267  Uiso   1.00
C96    C     0.76380   0.30750   0.19186   0.01267  Uiso   1.00
C97    C     0.63440   0.20080   0.19102   0.01267  Uiso   1.00
C98    C     0.79700   0.39320   0.17727   0.01267  Uiso   1.00
C99    C     0.71890   0.44670   0.17591   0.01267  Uiso   1.00
C100   C     0.85260   0.25860   0.19183   0.01267  Uiso   1.00
C101   C     0.21810   0.56130   0.86620   0.01267  Uiso   1.00
C102   C     0.09960   0.50530   0.87595   0.01267  Uiso   1.00
C103   C     0.29040   0.50240   0.87100   0.01267  Uiso   1.00
C104   C     0.86050   0.47060   0.80760   0.01267  Uiso   1.00
C105   C     0.28810   0.70050   0.86886   0.01267  Uiso   1.00
C106   C     0.96970   0.74690   0.91361   0.01267  Uiso   1.00
C107   C     0.89740   0.64530   0.90138   0.01267  Uiso   1.00
C108   C     0.89600   0.72590   0.92824   0.01267  Uiso   1.00
C109   C     0.85930   0.60780   0.93631   0.01267  Uiso   1.00
C110   C     0.01140   0.86830   0.90651   0.01267  Uiso   1.00
C111   C     0.16190   0.19870   0.81293   0.01267  Uiso   1.00
C112   C     0.93930   0.66840   0.85624   0.01267  Uiso   1.00
C113   C     0.10440   0.19000   0.82910   0.01267  Uiso   1.00
C114   C     0.05530   0.27220   0.83196   0.01267  Uiso   1.00
C115   C     0.20740   0.11150   0.81147   0.01267  Uiso   1.00
C116   C     0.54370   0.23620   0.85852   0.01267  Uiso   1.00
C117   C     0.56640   0.36560   0.85768   0.01267  Uiso   1.00
C118   C     0.59620   0.20300   0.84393   0.01267  Uiso   1.00
C119   C     0.72780   0.28110   0.84257   0.01267  Uiso   1.00
C120   C     0.40600   0.14740   0.85849   0.01267  Uiso   1.00
C121   C     0.43870   0.78190   0.63380   0.01267  Uiso   1.00
C122   C     0.49470   0.90040   0.62405   0.01267  Uiso   1.00
C123   C     0.49760   0.70960   0.62900   0.01267  Uiso   1.00
C124   C     0.52940   0.13950   0.69240   0.01267  Uiso   1.00
C125   C     0.29950   0.71190   0.63114   0.01267  Uiso   1.00
C126   C     0.25310   0.03030   0.58639   0.01267  Uiso   1.00
C127   C     0.35470   0.10260   0.59862   0.01267  Uiso   1.00
C128   C     0.27410   0.10400   0.57176   0.01267  Uiso   1.00
C129   C     0.39220   0.14070   0.56369   0.01267  Uiso   1.00
C130   C     0.13170   0.98860   0.59349   0.01267  Uiso   1.00
C131   C     0.80130   0.83810   0.68707   0.01267  Uiso   1.00
C132   C     0.33160   0.06070   0.64376   0.01267  Uiso   1.00
C133   C     0.81000   0.89560   0.67090   0.01267  Uiso   1.00
C134   C     0.72780   0.94470   0.66804   0.01267  Uiso   1.00
C135   C     0.88850   0.79260   0.68853   0.01267  Uiso   1.00
C136   C     0.76380   0.45630   0.64148   0.01267  Uiso   1.00
C137   C     0.63440   0.43360   0.64232   0.01267  Uiso   1.00
C138   C     0.79700   0.40380   0.65607   0.01267  Uiso   1.00
C139   C     0.71890   0.27220   0.65743   0.01267  Uiso   1.00
C140   C     0.85260   0.59400   0.64151   0.01267  Uiso   1.00
C141   C     0.21810   0.65680   0.96713   0.01267  Uiso   1.00
C142   C     0.09960   0.59430   0.95738   0.01267  Uiso   1.00
C143   C     0.29040   0.78800   0.96233   0.01267  Uiso   1.00
C144   C     0.86050   0.38990   0.02573   0.01267  Uiso   1.00
C145   C     0.28810   0.58760   0.96447   0.01267  Uiso   1.00
C146   C     0.96970   0.22280   0.91972   0.01267  Uiso   1.00
C147   C     0.89740   0.25210   0.93195   0.01267  Uiso   1.00
C148   C     0.89600   0.17010   0.90509   0.01267  Uiso   1.00
C149   C     0.85930   0.25150   0.89702   0.01267  Uiso   1.00
C150   C     0.01140   0.14310   0.92682   0.01267  Uiso   1.00
C151   C     0.16190   0.96320   0.02040   0.01267  Uiso   1.00
C152   C     0.93930   0.27090   0.97709   0.01267  Uiso   1.00
C153   C     0.10440   0.91440   0.00423   0.01267  Uiso   1.00
C154   C     0.05530   0.78310   0.00137   0.01267  Uiso   1.00
C155   C     0.20740   0.09590   0.02186   0.01267  Uiso   1.00
C156   C     0.54370   0.30750   0.97481   0.01267  Uiso   1.00
C157   C     0.56640   0.20080   0.97565   0.01267  Uiso   1.00
C158   C     0.59620   0.39320   0.98940   0.01267  Uiso   1.00
C159   C     0.72780   0.44670   0.99076   0.01267  Uiso   1.00
C160   C     0.40600   0.25860   0.97484   0.01267  Uiso   1.00
C161   C     0.34320   0.56130   0.30046   0.01267  Uiso   1.00
C162   C     0.40570   0.50530   0.29071   0.01267  Uiso   1.00
C163   C     0.21200   0.50240   0.29566   0.01267  Uiso   1.00
C164   C     0.61010   0.47060   0.35906   0.01267  Uiso   1.00
C165   C     0.41240   0.70050   0.29780   0.01267  Uiso   1.00
C166   C     0.77720   0.74690   0.25305   0.01267  Uiso   1.00
C167   C     0.74790   0.64530   0.26528   0.01267  Uiso   1.00
C168   C     0.82990   0.72590   0.23842   0.01267  Uiso   1.00
C169   C     0.74850   0.60780   0.23035   0.01267  Uiso   1.00
C170   C     0.85690   0.86830   0.26015   0.01267  Uiso   1.00
C171   C     0.03680   0.19870   0.35373   0.01267  Uiso   1.00
C172   C     0.72910   0.66840   0.31042   0.01267  Uiso   1.00
C173   C     0.08560   0.19000   0.33756   0.01267  Uiso   1.00
C174   C     0.21690   0.27220   0.33470   0.01267  Uiso   1.00
C175   C     0.90410   0.11150   0.35519   0.01267  Uiso   1.00
C176   C     0.69250   0.23620   0.30814   0.01267  Uiso   1.00
C177   C     0.79920   0.36560   0.30898   0.01267  Uiso   1.00
C178   C     0.60680   0.20300   0.32273   0.01267  Uiso   1.00
C179   C     0.55330   0.28110   0.32409   0.01267  Uiso   1.00
C180   C     0.74140   0.14740   0.30817   0.01267  Uiso   1.00
C181   C     0.56130   0.21810   0.13380   0.01267  Uiso   1.00
C182   C     0.50530   0.09960   0.12405   0.01267  Uiso   1.00
C183   C     0.50240   0.29040   0.12900   0.01267  Uiso   1.00
C184   C     0.47060   0.86050   0.19240   0.01267  Uiso   1.00
C185   C     0.70050   0.28810   0.13114   0.01267  Uiso   1.00
C186   C     0.74690   0.96970   0.08639   0.01267  Uiso   1.00
C187   C     0.64530   0.89740   0.09862   0.01267  Uiso   1.00
C188   C     0.72590   0.89600   0.07176   0.01267  Uiso   1.00
C189   C     0.60780   0.85930   0.06369   0.01267  Uiso   1.00
C190   C     0.86830   0.01140   0.09349   0.01267  Uiso   1.00
C191   C     0.19870   0.16190   0.18707   0.01267  Uiso   1.00
C192   C     0.66840   0.93930   0.14376   0.01267  Uiso   1.00
C193   C     0.19000   0.10440   0.17090   0.01267  Uiso   1.00
C194   C     0.27220   0.05530   0.16804   0.01267  Uiso   1.00
C195   C     0.11150   0.20740   0.18853   0.01267  Uiso   1.00
C196   C     0.23620   0.54370   0.14148   0.01267  Uiso   1.00
C197   C     0.36560   0.56640   0.14232   0.01267  Uiso   1.00
C198   C     0.20300   0.59620   0.15607   0.01267  Uiso   1.00
C199   C     0.28110   0.72780   0.15743   0.01267  Uiso   1.00
C200   C     0.14740   0.40600   0.14151   0.01267  Uiso   1.00
C201   C     0.78190   0.34320   0.46713   0.01267  Uiso   1.00
C202   C     0.90040   0.40570   0.45738   0.01267  Uiso   1.00
C203   C     0.70960   0.21200   0.46233   0.01267  Uiso   1.00
C204   C     0.13950   0.61010   0.52573   0.01267  Uiso   1.00
C205   C     0.71190   0.41240   0.46447   0.01267  Uiso   1.00
C206   C     0.03030   0.77720   0.41972   0.01267  Uiso   1.00
C207   C     0.10260   0.74790   0.43195   0.01267  Uiso   1.00
C208   C     0.10400   0.82990   0.40509   0.01267  Uiso   1.00
C209   C     0.14070   0.74850   0.39702   0.01267  Uiso   1.00
C210   C     0.98860   0.85690   0.42682   0.01267  Uiso   1.00
C211   C     0.83810   0.03680   0.52040   0.01267  Uiso   1.00
C212   C     0.06070   0.72910   0.47709   0.01267  Uiso   1.00
C213   C     0.89560   0.08560   0.50423   0.01267  Uiso   1.00
C214   C     0.94470   0.21690   0.50137   0.01267  Uiso   1.00
C215   C     0.79260   0.90410   0.52186   0.01267  Uiso   1.00
C216   C     0.45630   0.69250   0.47481   0.01267  Uiso   1.00
C217   C     0.43360   0.79920   0.47565   0.01267  Uiso   1.00
C218   C     0.40380   0.60680   0.48940   0.01267  Uiso   1.00
C219   C     0.27220   0.55330   0.49076   0.01267  Uiso   1.00
C220   C     0.59400   0.74140   0.47484   0.01267  Uiso   1.00
C221   C     0.65680   0.43870   0.80046   0.01267  Uiso   1.00
C222   C     0.59430   0.49470   0.79071   0.01267  Uiso   1.00
C223   C     0.78800   0.49760   0.79566   0.01267  Uiso   1.00
C224   C     0.38990   0.52940   0.85906   0.01267  Uiso   1.00
C225   C     0.58760   0.29950   0.79780   0.01267  Uiso   1.00
C226   C     0.22280   0.25310   0.75305   0.01267  Uiso   1.00
C227   C     0.25210   0.35470   0.76528   0.01267  Uiso   1.00
C228   C     0.17010   0.27410   0.73842   0.01267  Uiso   1.00
C229   C     0.25150   0.39220   0.73035   0.01267  Uiso   1.00
C230   C     0.14310   0.13170   0.76015   0.01267  Uiso   1.00
C231   C     0.96320   0.80130   0.85373   0.01267  Uiso   1.00
C232   C     0.27090   0.33160   0.81042   0.01267  Uiso   1.00
C233   C     0.91440   0.81000   0.83756   0.01267  Uiso   1.00
C234   C     0.78310   0.72780   0.83470   0.01267  Uiso   1.00
C235   C     0.09590   0.88850   0.85519   0.01267  Uiso   1.00
C236   C     0.30750   0.76380   0.80814   0.01267  Uiso   1.00
C237   C     0.20080   0.63440   0.80898   0.01267  Uiso   1.00
C238   C     0.39320   0.79700   0.82273   0.01267  Uiso   1.00
C239   C     0.44670   0.71890   0.82409   0.01267  Uiso   1.00
C240   C     0.25860   0.85260   0.80817   0.01267  Uiso   1.00
N1     N     0.66240   0.83020   0.93860   0.01267  Uiso   1.00
N2     N     0.16780   0.33760   0.60527   0.01267  Uiso   1.00
N3     N     0.16980   0.83220   0.27193   0.01267  Uiso   1.00
N4     N     0.33760   0.16980   0.43860   0.01267  Uiso   1.00
N5     N     0.83220   0.66240   0.10527   0.01267  Uiso   1.00
N6     N     0.83020   0.16780   0.77193   0.01267  Uiso   1.00
N7     N     0.83220   0.16980   0.72807   0.01267  Uiso   1.00
N8     N     0.83020   0.66240   0.06140   0.01267  Uiso   1.00
N9     N     0.33760   0.16780   0.39473   0.01267  Uiso   1.00
N10    N     0.16780   0.83020   0.22807   0.01267  Uiso   1.00
N11    N     0.16980   0.33760   0.56140   0.01267  Uiso   1.00
N12    N     0.66240   0.83220   0.89473   0.01267  Uiso   1.00
O1     O     0.64550   0.18570   0.01654   0.01267  Uiso   1.00
O2     O     0.54000   0.00150   0.03514   0.01267  Uiso   1.00
O3     O     0.59970   0.11490   0.05684   0.01267  Uiso   1.00
O4     O     0.35030   0.85990   0.98847   0.01267  Uiso   1.00
O5     O     0.49680   0.92610   0.97099   0.01267  Uiso   1.00
O6     O     0.34140   0.07330   0.08396   0.01267  Uiso   1.00
O7     O     0.35620   0.93310   0.06384   0.01267  Uiso   1.00
O8     O     0.79950   0.15900   0.93709   0.01267  Uiso   1.00
O9     O     0.34740   0.87200   0.09662   0.01267  Uiso   1.00
O10    O     0.58770   0.81100   0.05007   0.01267  Uiso   1.00
O11    O     0.89940   0.07630   0.96730   0.01267  Uiso   1.00
O12    O     0.36090   0.99850   0.01461   0.01267  Uiso   1.00
O13    O     0.25570   0.86220   0.03327   0.01267  Uiso   1.00
O14    O     0.71710   0.07080   0.98840   0.01267  Uiso   1.00
O15    O     0.73810   0.00990   0.01131   0.01267  Uiso   1.00
O16    O     0.37610   0.60090   0.03914   0.01267  Uiso   1.00
O17    O     0.19000   0.62900   0.03526   0.01267  Uiso   1.00
O18    O     0.52370   0.13430   0.98728   0.01267  Uiso   1.00
O19    O     0.42320   0.78750   0.01871   0.01267  Uiso   1.00
O20    O     0.51760   0.78280   0.99784   0.01267  Uiso   1.00
O21    O     0.71010   0.27020   0.08694   0.01267  Uiso   1.00
O22    O     0.28550   0.65410   0.06836   0.01267  Uiso   1.00
O23    O     0.54830   0.04160   0.93849   0.01267  Uiso   1.00
O24    O     0.67570   0.84870   0.97310   0.01267  Uiso   1.00
O25    O     0.57350   0.84060   0.94189   0.01267  Uiso   1.00
O26    O     0.76150   0.91530   0.94178   0.01267  Uiso   1.00
O27    O     0.65290   0.74690   0.93000   0.01267  Uiso   1.00
O28    O     0.54020   0.35450   0.68321   0.01267  Uiso   1.00
O29    O     0.46150   0.46000   0.70181   0.01267  Uiso   1.00
O30    O     0.51520   0.40030   0.72351   0.01267  Uiso   1.00
O31    O     0.50960   0.64970   0.65514   0.01267  Uiso   1.00
O32    O     0.42930   0.50320   0.63766   0.01267  Uiso   1.00
O33    O     0.73190   0.65860   0.75063   0.01267  Uiso   1.00
O34    O     0.57690   0.64380   0.73051   0.01267  Uiso   1.00
O35    O     0.35950   0.20050   0.60376   0.01267  Uiso   1.00
O36    O     0.52460   0.65260   0.76329   0.01267  Uiso   1.00
O37    O     0.22330   0.41230   0.71674   0.01267  Uiso   1.00
O38    O     0.17690   0.10060   0.63397   0.01267  Uiso   1.00
O39    O     0.63760   0.63910   0.68128   0.01267  Uiso   1.00
O40    O     0.60650   0.74430   0.69994   0.01267  Uiso   1.00
O41    O     0.35370   0.28290   0.65507   0.01267  Uiso   1.00
O42    O     0.27180   0.26190   0.67798   0.01267  Uiso   1.00
O43    O     0.22480   0.62390   0.70581   0.01267  Uiso   1.00
O44    O     0.43900   0.81000   0.70193   0.01267  Uiso   1.00
O45    O     0.61060   0.47630   0.65395   0.01267  Uiso   1.00
O46    O     0.36430   0.57680   0.68538   0.01267  Uiso   1.00
O47    O     0.26520   0.48240   0.66451   0.01267  Uiso   1.00
O48    O     0.56010   0.28990   0.75361   0.01267  Uiso   1.00
O49    O     0.36860   0.71450   0.73503   0.01267  Uiso   1.00
O50    O     0.49330   0.45170   0.60516   0.01267  Uiso   1.00
O51    O     0.17300   0.32430   0.63977   0.01267  Uiso   1.00
O52    O     0.26710   0.42650   0.60856   0.01267  Uiso   1.00
O53    O     0.15380   0.23850   0.60845   0.01267  Uiso   1.00
O54    O     0.09400   0.34710   0.59667   0.01267  Uiso   1.00
O55    O     0.81430   0.45980   0.34987   0.01267  Uiso   1.00
O56    O     0.99850   0.53850   0.36847   0.01267  Uiso   1.00
O57    O     0.88510   0.48480   0.39017   0.01267  Uiso   1.00
O58    O     0.14010   0.49040   0.32180   0.01267  Uiso   1.00
O59    O     0.07390   0.57070   0.30432   0.01267  Uiso   1.00
O60    O     0.92670   0.26810   0.41729   0.01267  Uiso   1.00
O61    O     0.06690   0.42310   0.39717   0.01267  Uiso   1.00
O62    O     0.84100   0.64050   0.27042   0.01267  Uiso   1.00
O63    O     0.12800   0.47540   0.42995   0.01267  Uiso   1.00
O64    O     0.18900   0.77670   0.38340   0.01267  Uiso   1.00
O65    O     0.92370   0.82310   0.30063   0.01267  Uiso   1.00
O66    O     0.00150   0.36240   0.34794   0.01267  Uiso   1.00
O67    O     0.13780   0.39350   0.36660   0.01267  Uiso   1.00
O68    O     0.92920   0.64630   0.32173   0.01267  Uiso   1.00
O69    O     0.99010   0.72820   0.34464   0.01267  Uiso   1.00
O70    O     0.39910   0.77520   0.37247   0.01267  Uiso   1.00
O71    O     0.37100   0.56100   0.36859   0.01267  Uiso   1.00
O72    O     0.86570   0.38940   0.32061   0.01267  Uiso   1.00
O73    O     0.21250   0.63570   0.35204   0.01267  Uiso   1.00
O74    O     0.21720   0.73480   0.33117   0.01267  Uiso   1.00
O75    O     0.72980   0.43990   0.42027   0.01267  Uiso   1.00
O76    O     0.34590   0.63140   0.40169   0.01267  Uiso   1.00
O77    O     0.95840   0.50670   0.27182   0.01267  Uiso   1.00
O78    O     0.15130   0.82700   0.30643   0.01267  Uiso   1.00
O79    O     0.15940   0.73290   0.27522   0.01267  Uiso   1.00
O80    O     0.08470   0.84620   0.27511   0.01267  Uiso   1.00
O81    O     0.25310   0.90600   0.26333   0.01267  Uiso   1.00
O82    O     0.35450   0.81430   0.51654   0.01267  Uiso   1.00
O83    O     0.46000   0.99850   0.53514   0.01267  Uiso   1.00
O84    O     0.40030   0.88510   0.55684   0.01267  Uiso   1.00
O85    O     0.64970   0.14010   0.48847   0.01267  Uiso   1.00
O86    O     0.50320   0.07390   0.47099   0.01267  Uiso   1.00
O87    O     0.65860   0.92670   0.58396   0.01267  Uiso   1.00
O88    O     0.64380   0.06690   0.56384   0.01267  Uiso   1.00
O89    O     0.20050   0.84100   0.43709   0.01267  Uiso   1.00
O90    O     0.65260   0.12800   0.59662   0.01267  Uiso   1.00
O91    O     0.41230   0.18900   0.55007   0.01267  Uiso   1.00
O92    O     0.10060   0.92370   0.46730   0.01267  Uiso   1.00
O93    O     0.63910   0.00150   0.51461   0.01267  Uiso   1.00
O94    O     0.74430   0.13780   0.53327   0.01267  Uiso   1.00
O95    O     0.28290   0.92920   0.48840   0.01267  Uiso   1.00
O96    O     0.26190   0.99010   0.51131   0.01267  Uiso   1.00
O97    O     0.62390   0.39910   0.53914   0.01267  Uiso   1.00
O98    O     0.81000   0.37100   0.53526   0.01267  Uiso   1.00
O99    O     0.47630   0.86570   0.48728   0.01267  Uiso   1.00
O100   O     0.57680   0.21250   0.51871   0.01267  Uiso   1.00
O101   O     0.48240   0.21720   0.49784   0.01267  Uiso   1.00
O102   O     0.28990   0.72980   0.58694   0.01267  Uiso   1.00
O103   O     0.71450   0.34590   0.56836   0.01267  Uiso   1.00
O104   O     0.45170   0.95840   0.43849   0.01267  Uiso   1.00
O105   O     0.32430   0.15130   0.47310   0.01267  Uiso   1.00
O106   O     0.42650   0.15940   0.44189   0.01267  Uiso   1.00
O107   O     0.23850   0.08470   0.44178   0.01267  Uiso   1.00
O108   O     0.34710   0.25310   0.43000   0.01267  Uiso   1.00
O109   O     0.45980   0.64550   0.18321   0.01267  Uiso   1.00
O110   O     0.53850   0.54000   0.20181   0.01267  Uiso   1.00
O111   O     0.48480   0.59970   0.22351   0.01267  Uiso   1.00
O112   O     0.49040   0.35030   0.15514   0.01267  Uiso   1.00
O113   O     0.57070   0.49680   0.13766   0.01267  Uiso   1.00
O114   O     0.26810   0.34140   0.25063   0.01267  Uiso   1.00
O115   O     0.42310   0.35620   0.23051   0.01267  Uiso   1.00
O116   O     0.64050   0.79950   0.10376   0.01267  Uiso   1.00
O117   O     0.47540   0.34740   0.26329   0.01267  Uiso   1.00
O118   O     0.77670   0.58770   0.21674   0.01267  Uiso   1.00
O119   O     0.82310   0.89940   0.13397   0.01267  Uiso   1.00
O120   O     0.36240   0.36090   0.18128   0.01267  Uiso   1.00
O121   O     0.39350   0.25570   0.19994   0.01267  Uiso   1.00
O122   O     0.64630   0.71710   0.15507   0.01267  Uiso   1.00
O123   O     0.72820   0.73810   0.17798   0.01267  Uiso   1.00
O124   O     0.77520   0.37610   0.20581   0.01267  Uiso   1.00
O125   O     0.56100   0.19000   0.20193   0.01267  Uiso   1.00
O126   O     0.38940   0.52370   0.15395   0.01267  Uiso   1.00
O127   O     0.63570   0.42320   0.18538   0.01267  Uiso   1.00
O128   O     0.73480   0.51760   0.16451   0.01267  Uiso   1.00
O129   O     0.43990   0.71010   0.25361   0.01267  Uiso   1.00
O130   O     0.63140   0.28550   0.23503   0.01267  Uiso   1.00
O131   O     0.50670   0.54830   0.10516   0.01267  Uiso   1.00
O132   O     0.82700   0.67570   0.13977   0.01267  Uiso   1.00
O133   O     0.73290   0.57350   0.10856   0.01267  Uiso   1.00
O134   O     0.84620   0.76150   0.10845   0.01267  Uiso   1.00
O135   O     0.90600   0.65290   0.09667   0.01267  Uiso   1.00
O136   O     0.18570   0.54020   0.84987   0.01267  Uiso   1.00
O137   O     0.00150   0.46150   0.86847   0.01267  Uiso   1.00
O138   O     0.11490   0.51520   0.89017   0.01267  Uiso   1.00
O139   O     0.85990   0.50960   0.82180   0.01267  Uiso   1.00
O140   O     0.92610   0.42930   0.80432   0.01267  Uiso   1.00
O141   O     0.07330   0.73190   0.91729   0.01267  Uiso   1.00
O142   O     0.93310   0.57690   0.89717   0.01267  Uiso   1.00
O143   O     0.15900   0.35950   0.77042   0.01267  Uiso   1.00
O144   O     0.87200   0.52460   0.92995   0.01267  Uiso   1.00
O145   O     0.81100   0.22330   0.88340   0.01267  Uiso   1.00
O146   O     0.07630   0.17690   0.80063   0.01267  Uiso   1.00
O147   O     0.99850   0.63760   0.84794   0.01267  Uiso   1.00
O148   O     0.86220   0.60650   0.86660   0.01267  Uiso   1.00
O149   O     0.07080   0.35370   0.82173   0.01267  Uiso   1.00
O150   O     0.00990   0.27180   0.84464   0.01267  Uiso   1.00
O151   O     0.60090   0.22480   0.87247   0.01267  Uiso   1.00
O152   O     0.62900   0.43900   0.86859   0.01267  Uiso   1.00
O153   O     0.13430   0.61060   0.82061   0.01267  Uiso   1.00
O154   O     0.78750   0.36430   0.85204   0.01267  Uiso   1.00
O155   O     0.78280   0.26520   0.83117   0.01267  Uiso   1.00
O156   O     0.27020   0.56010   0.92027   0.01267  Uiso   1.00
O157   O     0.65410   0.36860   0.90169   0.01267  Uiso   1.00
O158   O     0.04160   0.49330   0.77182   0.01267  Uiso   1.00
O159   O     0.84870   0.17300   0.80643   0.01267  Uiso   1.00
O160   O     0.84060   0.26710   0.77522   0.01267  Uiso   1.00
O161   O     0.91530   0.15380   0.77511   0.01267  Uiso   1.00
O162   O     0.74690   0.09400   0.76333   0.01267  Uiso   1.00
O163   O     0.45980   0.81430   0.65013   0.01267  Uiso   1.00
O164   O     0.53850   0.99850   0.63153   0.01267  Uiso   1.00
O165   O     0.48480   0.88510   0.60983   0.01267  Uiso   1.00
O166   O     0.49040   0.14010   0.67820   0.01267  Uiso   1.00
O167   O     0.57070   0.07390   0.69568   0.01267  Uiso   1.00
O168   O     0.26810   0.92670   0.58271   0.01267  Uiso   1.00
O169   O     0.42310   0.06690   0.60283   0.01267  Uiso   1.00
O170   O     0.64050   0.84100   0.72958   0.01267  Uiso   1.00
O171   O     0.47540   0.12800   0.57005   0.01267  Uiso   1.00
O172   O     0.77670   0.18900   0.61660   0.01267  Uiso   1.00
O173   O     0.82310   0.92370   0.69937   0.01267  Uiso   1.00
O174   O     0.36240   0.00150   0.65206   0.01267  Uiso   1.00
O175   O     0.39350   0.13780   0.63340   0.01267  Uiso   1.00
O176   O     0.64630   0.92920   0.67827   0.01267  Uiso   1.00
O177   O     0.72820   0.99010   0.65536   0.01267  Uiso   1.00
O178   O     0.77520   0.39910   0.62753   0.01267  Uiso   1.00
O179   O     0.56100   0.37100   0.63141   0.01267  Uiso   1.00
O180   O     0.38940   0.86570   0.67939   0.01267  Uiso   1.00
O181   O     0.63570   0.21250   0.64796   0.01267  Uiso   1.00
O182   O     0.73480   0.21720   0.66883   0.01267  Uiso   1.00
O183   O     0.43990   0.72980   0.57973   0.01267  Uiso   1.00
O184   O     0.63140   0.34590   0.59831   0.01267  Uiso   1.00
O185   O     0.50670   0.95840   0.72818   0.01267  Uiso   1.00
O186   O     0.82700   0.15130   0.69357   0.01267  Uiso   1.00
O187   O     0.73290   0.15940   0.72478   0.01267  Uiso   1.00
O188   O     0.84620   0.08470   0.72489   0.01267  Uiso   1.00
O189   O     0.90600   0.25310   0.73667   0.01267  Uiso   1.00
O190   O     0.18570   0.64550   0.98346   0.01267  Uiso   1.00
O191   O     0.00150   0.54000   0.96486   0.01267  Uiso   1.00
O192   O     0.11490   0.59970   0.94316   0.01267  Uiso   1.00
O193   O     0.85990   0.35030   0.01153   0.01267  Uiso   1.00
O194   O     0.92610   0.49680   0.02901   0.01267  Uiso   1.00
O195   O     0.07330   0.34140   0.91604   0.01267  Uiso   1.00
O196   O     0.93310   0.35620   0.93616   0.01267  Uiso   1.00
O197   O     0.15900   0.79950   0.06291   0.01267  Uiso   1.00
O198   O     0.87200   0.34740   0.90338   0.01267  Uiso   1.00
O199   O     0.81100   0.58770   0.94993   0.01267  Uiso   1.00
O200   O     0.07630   0.89940   0.03270   0.01267  Uiso   1.00
O201   O     0.99850   0.36090   0.98539   0.01267  Uiso   1.00
O202   O     0.86220   0.25570   0.96673   0.01267  Uiso   1.00
O203   O     0.07080   0.71710   0.01160   0.01267  Uiso   1.00
O204   O     0.00990   0.73810   0.98869   0.01267  Uiso   1.00
O205   O     0.60090   0.37610   0.96086   0.01267  Uiso   1.00
O206   O     0.62900   0.19000   0.96474   0.01267  Uiso   1.00
O207   O     0.13430   0.52370   0.01272   0.01267  Uiso   1.00
O208   O     0.78750   0.42320   0.98129   0.01267  Uiso   1.00
O209   O     0.78280   0.51760   0.00216   0.01267  Uiso   1.00
O210   O     0.27020   0.71010   0.91306   0.01267  Uiso   1.00
O211   O     0.65410   0.28550   0.93164   0.01267  Uiso   1.00
O212   O     0.04160   0.54830   0.06151   0.01267  Uiso   1.00
O213   O     0.84870   0.67570   0.02690   0.01267  Uiso   1.00
O214   O     0.84060   0.57350   0.05811   0.01267  Uiso   1.00
O215   O     0.91530   0.76150   0.05822   0.01267  Uiso   1.00
O216   O     0.74690   0.65290   0.07000   0.01267  Uiso   1.00
O217   O     0.35450   0.54020   0.31679   0.01267  Uiso   1.00
O218   O     0.46000   0.46150   0.29819   0.01267  Uiso   1.00
O219   O     0.40030   0.51520   0.27649   0.01267  Uiso   1.00
O220   O     0.64970   0.50960   0.34486   0.01267  Uiso   1.00
O221   O     0.50320   0.42930   0.36234   0.01267  Uiso   1.00
O222   O     0.65860   0.73190   0.24937   0.01267  Uiso   1.00
O223   O     0.64380   0.57690   0.26949   0.01267  Uiso   1.00
O224   O     0.20050   0.35950   0.39624   0.01267  Uiso   1.00
O225   O     0.65260   0.52460   0.23671   0.01267  Uiso   1.00
O226   O     0.41230   0.22330   0.28326   0.01267  Uiso   1.00
O227   O     0.10060   0.17690   0.36603   0.01267  Uiso   1.00
O228   O     0.63910   0.63760   0.31872   0.01267  Uiso   1.00
O229   O     0.74430   0.60650   0.30006   0.01267  Uiso   1.00
O230   O     0.28290   0.35370   0.34493   0.01267  Uiso   1.00
O231   O     0.26190   0.27180   0.32202   0.01267  Uiso   1.00
O232   O     0.62390   0.22480   0.29419   0.01267  Uiso   1.00
O233   O     0.81000   0.43900   0.29807   0.01267  Uiso   1.00
O234   O     0.47630   0.61060   0.34605   0.01267  Uiso   1.00
O235   O     0.57680   0.36430   0.31462   0.01267  Uiso   1.00
O236   O     0.48240   0.26520   0.33549   0.01267  Uiso   1.00
O237   O     0.28990   0.56010   0.24639   0.01267  Uiso   1.00
O238   O     0.71450   0.36860   0.26497   0.01267  Uiso   1.00
O239   O     0.45170   0.49330   0.39484   0.01267  Uiso   1.00
O240   O     0.32430   0.17300   0.36023   0.01267  Uiso   1.00
O241   O     0.42650   0.26710   0.39144   0.01267  Uiso   1.00
O242   O     0.23850   0.15380   0.39155   0.01267  Uiso   1.00
O243   O     0.34710   0.09400   0.40333   0.01267  Uiso   1.00
O244   O     0.54020   0.18570   0.15013   0.01267  Uiso   1.00
O245   O     0.46150   0.00150   0.13153   0.01267  Uiso   1.00
O246   O     0.51520   0.11490   0.10983   0.01267  Uiso   1.00
O247   O     0.50960   0.85990   0.17820   0.01267  Uiso   1.00
O248   O     0.42930   0.92610   0.19568   0.01267  Uiso   1.00
O249   O     0.73190   0.07330   0.08271   0.01267  Uiso   1.00
O250   O     0.57690   0.93310   0.10283   0.01267  Uiso   1.00
O251   O     0.35950   0.15900   0.22958   0.01267  Uiso   1.00
O252   O     0.52460   0.87200   0.07005   0.01267  Uiso   1.00
O253   O     0.22330   0.81100   0.11660   0.01267  Uiso   1.00
O254   O     0.17690   0.07630   0.19937   0.01267  Uiso   1.00
O255   O     0.63760   0.99850   0.15206   0.01267  Uiso   1.00
O256   O     0.60650   0.86220   0.13340   0.01267  Uiso   1.00
O257   O     0.35370   0.07080   0.17827   0.01267  Uiso   1.00
O258   O     0.27180   0.00990   0.15536   0.01267  Uiso   1.00
O259   O     0.22480   0.60090   0.12753   0.01267  Uiso   1.00
O260   O     0.43900   0.62900   0.13141   0.01267  Uiso   1.00
O261   O     0.61060   0.13430   0.17939   0.01267  Uiso   1.00
O262   O     0.36430   0.78750   0.14796   0.01267  Uiso   1.00
O263   O     0.26520   0.78280   0.16883   0.01267  Uiso   1.00
O264   O     0.56010   0.27020   0.07973   0.01267  Uiso   1.00
O265   O     0.36860   0.65410   0.09831   0.01267  Uiso   1.00
O266   O     0.49330   0.04160   0.22818   0.01267  Uiso   1.00
O267   O     0.17300   0.84870   0.19357   0.01267  Uiso   1.00
O268   O     0.26710   0.84060   0.22478   0.01267  Uiso   1.00
O269   O     0.15380   0.91530   0.22489   0.01267  Uiso   1.00
O270   O     0.09400   0.74690   0.23667   0.01267  Uiso   1.00
O271   O     0.81430   0.35450   0.48346   0.01267  Uiso   1.00
O272   O     0.99850   0.46000   0.46486   0.01267  Uiso   1.00
O273   O     0.88510   0.40030   0.44316   0.01267  Uiso   1.00
O274   O     0.14010   0.64970   0.51153   0.01267  Uiso   1.00
O275   O     0.07390   0.50320   0.52901   0.01267  Uiso   1.00
O276   O     0.92670   0.65860   0.41604   0.01267  Uiso   1.00
O277   O     0.06690   0.64380   0.43616   0.01267  Uiso   1.00
O278   O     0.84100   0.20050   0.56291   0.01267  Uiso   1.00
O279   O     0.12800   0.65260   0.40338   0.01267  Uiso   1.00
O280   O     0.18900   0.41230   0.44993   0.01267  Uiso   1.00
O281   O     0.92370   0.10060   0.53270   0.01267  Uiso   1.00
O282   O     0.00150   0.63910   0.48539   0.01267  Uiso   1.00
O283   O     0.13780   0.74430   0.46673   0.01267  Uiso   1.00
O284   O     0.92920   0.28290   0.51160   0.01267  Uiso   1.00
O285   O     0.99010   0.26190   0.48869   0.01267  Uiso   1.00
O286   O     0.39910   0.62390   0.46086   0.01267  Uiso   1.00
O287   O     0.37100   0.81000   0.46474   0.01267  Uiso   1.00
O288   O     0.86570   0.47630   0.51272   0.01267  Uiso   1.00
O289   O     0.21250   0.57680   0.48129   0.01267  Uiso   1.00
O290   O     0.21720   0.48240   0.50216   0.01267  Uiso   1.00
O291   O     0.72980   0.28990   0.41306   0.01267  Uiso   1.00
O292   O     0.34590   0.71450   0.43164   0.01267  Uiso   1.00
O293   O     0.95840   0.45170   0.56151   0.01267  Uiso   1.00
O294   O     0.15130   0.32430   0.52690   0.01267  Uiso   1.00
O295   O     0.15940   0.42650   0.55811   0.01267  Uiso   1.00
O296   O     0.08470   0.23850   0.55822   0.01267  Uiso   1.00
O297   O     0.25310   0.34710   0.57000   0.01267  Uiso   1.00
O298   O     0.64550   0.45980   0.81679   0.01267  Uiso   1.00
O299   O     0.54000   0.53850   0.79819   0.01267  Uiso   1.00
O300   O     0.59970   0.48480   0.77649   0.01267  Uiso   1.00
O301   O     0.35030   0.49040   0.84486   0.01267  Uiso   1.00
O302   O     0.49680   0.57070   0.86234   0.01267  Uiso   1.00
O303   O     0.34140   0.26810   0.74937   0.01267  Uiso   1.00
O304   O     0.35620   0.42310   0.76949   0.01267  Uiso   1.00
O305   O     0.79950   0.64050   0.89624   0.01267  Uiso   1.00
O306   O     0.34740   0.47540   0.73671   0.01267  Uiso   1.00
O307   O     0.58770   0.77670   0.78326   0.01267  Uiso   1.00
O308   O     0.89940   0.82310   0.86603   0.01267  Uiso   1.00
O309   O     0.36090   0.36240   0.81872   0.01267  Uiso   1.00
O310   O     0.25570   0.39350   0.80006   0.01267  Uiso   1.00
O311   O     0.71710   0.64630   0.84493   0.01267  Uiso   1.00
O312   O     0.73810   0.72820   0.82202   0.01267  Uiso   1.00
O313   O     0.37610   0.77520   0.79419   0.01267  Uiso   1.00
O314   O     0.19000   0.56100   0.79807   0.01267  Uiso   1.00
O315   O     0.52370   0.38940   0.84605   0.01267  Uiso   1.00
O316   O     0.42320   0.63570   0.81462   0.01267  Uiso   1.00
O317   O     0.51760   0.73480   0.83549   0.01267  Uiso   1.00
O318   O     0.71010   0.43990   0.74639   0.01267  Uiso   1.00
O319   O     0.28550   0.63140   0.76497   0.01267  Uiso   1.00
O320   O     0.54830   0.50670   0.89484   0.01267  Uiso   1.00
O321   O     0.67570   0.82700   0.86023   0.01267  Uiso   1.00
O322   O     0.57350   0.73290   0.89144   0.01267  Uiso   1.00
O323   O     0.76150   0.84620   0.89155   0.01267  Uiso   1.00
O324   O     0.65290   0.90600   0.90333   0.01267  Uiso   1.00
C241   C     0.27040   0.25690   0.10560   0.01267  Uiso   1.00
O325   O     0.34730   0.27330   0.09491   0.01267  Uiso   1.00
O326   O     0.29490   0.34430   0.11453   0.01267  Uiso   1.00
O327   O     0.19220   0.14980   0.10934   0.01267  Uiso   1.00
C242   C     0.98650   0.72960   0.77227   0.01267  Uiso   1.00
O328   O     0.92600   0.65270   0.76158   0.01267  Uiso   1.00
O329   O     0.04940   0.70510   0.78120   0.01267  Uiso   1.00
O330   O     0.95760   0.80780   0.77601   0.01267  Uiso   1.00
C243   C     0.74310   0.01350   0.43893   0.01267  Uiso   1.00
O331   O     0.72670   0.07400   0.42824   0.01267  Uiso   1.00
O332   O     0.65570   0.95060   0.44786   0.01267  Uiso   1.00
O333   O     0.85020   0.04240   0.44267   0.01267  Uiso   1.00
C244   C     0.72960   0.74310   0.60560   0.01267  Uiso   1.00
O334   O     0.65270   0.72670   0.59491   0.01267  Uiso   1.00
O335   O     0.70510   0.65570   0.61453   0.01267  Uiso   1.00
O336   O     0.80780   0.85020   0.60934   0.01267  Uiso   1.00
C245   C     0.01350   0.27040   0.27227   0.01267  Uiso   1.00
O337   O     0.07400   0.34730   0.26158   0.01267  Uiso   1.00
O338   O     0.95060   0.29490   0.28120   0.01267  Uiso   1.00
O339   O     0.04240   0.19220   0.27601   0.01267  Uiso   1.00
C246   C     0.25690   0.98650   0.93893   0.01267  Uiso   1.00
O340   O     0.27330   0.92600   0.92824   0.01267  Uiso   1.00
O341   O     0.34430   0.04940   0.94786   0.01267  Uiso   1.00
O342   O     0.14980   0.95760   0.94267   0.01267  Uiso   1.00
C247   C     0.01350   0.74310   0.56107   0.01267  Uiso   1.00
O343   O     0.07400   0.72670   0.57176   0.01267  Uiso   1.00
O344   O     0.95060   0.65570   0.55214   0.01267  Uiso   1.00
O345   O     0.04240   0.85020   0.55733   0.01267  Uiso   1.00
C248   C     0.25690   0.27040   0.89440   0.01267  Uiso   1.00
O346   O     0.27330   0.34730   0.90509   0.01267  Uiso   1.00
O347   O     0.34430   0.29490   0.88547   0.01267  Uiso   1.00
O348   O     0.14980   0.19220   0.89066   0.01267  Uiso   1.00
C249   C     0.72960   0.98650   0.22773   0.01267  Uiso   1.00
O349   O     0.65270   0.92600   0.23842   0.01267  Uiso   1.00
O350   O     0.70510   0.04940   0.21880   0.01267  Uiso   1.00
O351   O     0.80780   0.95760   0.22399   0.01267  Uiso   1.00
C250   C     0.98650   0.25690   0.06107   0.01267  Uiso   1.00
O352   O     0.92600   0.27330   0.07176   0.01267  Uiso   1.00
O353   O     0.04940   0.34430   0.05214   0.01267  Uiso   1.00
O354   O     0.95760   0.14980   0.05733   0.01267  Uiso   1.00
C251   C     0.74310   0.72960   0.39440   0.01267  Uiso   1.00
O355   O     0.72670   0.65270   0.40509   0.01267  Uiso   1.00
O356   O     0.65570   0.70510   0.38547   0.01267  Uiso   1.00
O357   O     0.85020   0.80780   0.39066   0.01267  Uiso   1.00
C252   C     0.27040   0.01350   0.72773   0.01267  Uiso   1.00
O358   O     0.34730   0.07400   0.73842   0.01267  Uiso   1.00
O359   O     0.29490   0.95060   0.71880   0.01267  Uiso   1.00
O360   O     0.19220   0.04240   0.72399   0.01267  Uiso   1.00
