data_image0
_cell_length_a       32.652
_cell_length_b       32.652
_cell_length_c       32.652
_cell_angle_alpha    90
_cell_angle_beta     90
_cell_angle_gamma    90

_symmetry_space_group_name_H-M    "P 1"
_symmetry_int_tables_number       1

loop_
  _symmetry_equiv_pos_as_xyz
  'x, y, z'

loop_
  _atom_site_label
  _atom_site_occupancy
  _atom_site_fract_x
  _atom_site_fract_y
  _atom_site_fract_z
  _atom_site_thermal_displace_type
  _atom_site_B_iso_or_equiv
  _atom_site_type_symbol
  Zn1      1.0000 0.30822  0.63752  0.02570  Biso   1.000  Zn
  Zn2      1.0000 0.13793  0.58404  0.98307  Biso   1.000  Zn
  P1       1.0000 0.20419  0.63841  0.02681  Biso   1.000  P
  P2       1.0000 0.13521  0.49524  0.94124  Biso   1.000  P
  O1       1.0000 0.08417  0.64483  0.17848  Biso   1.000  O
  O2       1.0000 0.06999  0.64344  0.11223  Biso   1.000  O
  O3       1.0000 0.24992  0.63893  0.02229  Biso   1.000  O
  O4       1.0000 0.18447  0.67393  0.00481  Biso   1.000  O
  O5       1.0000 0.18623  0.59745  0.01397  Biso   1.000  O
  O6       1.0000 0.20613  0.41460  0.06140  Biso   1.000  O
  O7       1.0000 0.17250  0.35820  0.07440  Biso   1.000  O
  O8       1.0000 0.14134  0.52677  0.97481  Biso   1.000  O
  O9       1.0000 0.17394  0.49114  0.91635  Biso   1.000  O
  O10      1.0000 0.09788  0.50428  0.91515  Biso   1.000  O
  C1       1.0000 0.09407  0.64503  0.14158  Biso   1.000  C
  C2       1.0000 0.13882  0.64670  0.13134  Biso   1.000  C
  C3       1.0000 0.15123  0.64307  0.09166  Biso   1.000  C
  H1       1.0000 0.13150  0.63960  0.07140  Biso   1.000  H
  C4       1.0000 0.19169  0.64440  0.08034  Biso   1.000  C
  C5       1.0000 0.22070  0.65140  0.11060  Biso   1.000  C
  H2       1.0000 0.24830  0.65380  0.10370  Biso   1.000  H
  C6       1.0000 0.20860  0.65490  0.15090  Biso   1.000  C
  H3       1.0000 0.22820  0.65870  0.17120  Biso   1.000  H
  C7       1.0000 0.16830  0.65270  0.16120  Biso   1.000  C
  H4       1.0000 0.16050  0.65530  0.18840  Biso   1.000  H
  C8       1.0000 0.17600  0.39110  0.05580  Biso   1.000  C
  C9       1.0000 0.14700  0.40180  0.02280  Biso   1.000  C
  C10      1.0000 0.15273  0.43692  0.00036  Biso   1.000  C
  H5       1.0000 0.17460  0.45400  0.00670  Biso   1.000  H
  C11      1.0000 0.12643  0.44768  0.96821  Biso   1.000  C
  C12      1.0000 0.09380  0.42230  0.96040  Biso   1.000  C
  H6       1.0000 0.07600  0.42870  0.93920  Biso   1.000  H
  C13      1.0000 0.08700  0.38820  0.98270  Biso   1.000  C
  H7       1.0000 0.06480  0.37150  0.97640  Biso   1.000  H
  C14      1.0000 0.11280  0.37800  0.01490  Biso   1.000  C
  H8       1.0000 0.10710  0.35520  0.03110  Biso   1.000  H
  Zn3      1.0000 0.19178  0.86248  0.02570  Biso   1.000  Zn
  Zn4      1.0000 0.36207  0.91596  0.98307  Biso   1.000  Zn
  P3       1.0000 0.29581  0.86159  0.02681  Biso   1.000  P
  P4       1.0000 0.36479  0.00476  0.94124  Biso   1.000  P
  O11      1.0000 0.41583  0.85517  0.17848  Biso   1.000  O
  O12      1.0000 0.43001  0.85656  0.11223  Biso   1.000  O
  O13      1.0000 0.25008  0.86107  0.02229  Biso   1.000  O
  O14      1.0000 0.31553  0.82607  0.00481  Biso   1.000  O
  O15      1.0000 0.31377  0.90255  0.01397  Biso   1.000  O
  O16      1.0000 0.29387  0.08540  0.06140  Biso   1.000  O
  O17      1.0000 0.32750  0.14180  0.07440  Biso   1.000  O
  O18      1.0000 0.35866  0.97323  0.97481  Biso   1.000  O
  O19      1.0000 0.32606  0.00886  0.91635  Biso   1.000  O
  O20      1.0000 0.40212  0.99572  0.91515  Biso   1.000  O
  C15      1.0000 0.40593  0.85497  0.14158  Biso   1.000  C
  C16      1.0000 0.36118  0.85330  0.13134  Biso   1.000  C
  C17      1.0000 0.34877  0.85693  0.09166  Biso   1.000  C
  H9       1.0000 0.36850  0.86040  0.07140  Biso   1.000  H
  C18      1.0000 0.30831  0.85560  0.08034  Biso   1.000  C
  C19      1.0000 0.27930  0.84860  0.11060  Biso   1.000  C
  H10      1.0000 0.25170  0.84620  0.10370  Biso   1.000  H
  C20      1.0000 0.29140  0.84510  0.15090  Biso   1.000  C
  H11      1.0000 0.27180  0.84130  0.17120  Biso   1.000  H
  C21      1.0000 0.33170  0.84730  0.16120  Biso   1.000  C
  H12      1.0000 0.33950  0.84470  0.18840  Biso   1.000  H
  C22      1.0000 0.32400  0.10890  0.05580  Biso   1.000  C
  C23      1.0000 0.35300  0.09820  0.02280  Biso   1.000  C
  C24      1.0000 0.34727  0.06308  0.00036  Biso   1.000  C
  H13      1.0000 0.32540  0.04600  0.00670  Biso   1.000  H
  C25      1.0000 0.37357  0.05232  0.96821  Biso   1.000  C
  C26      1.0000 0.40620  0.07770  0.96040  Biso   1.000  C
  H14      1.0000 0.42400  0.07130  0.93920  Biso   1.000  H
  C27      1.0000 0.41300  0.11180  0.98270  Biso   1.000  C
  H15      1.0000 0.43520  0.12850  0.97640  Biso   1.000  H
  C28      1.0000 0.38720  0.12200  0.01490  Biso   1.000  C
  H16      1.0000 0.39290  0.14480  0.03110  Biso   1.000  H
  Zn5      1.0000 0.19178  0.63752  0.47430  Biso   1.000  Zn
  Zn6      1.0000 0.36207  0.58404  0.51693  Biso   1.000  Zn
  P5       1.0000 0.29581  0.63841  0.47319  Biso   1.000  P
  P6       1.0000 0.36479  0.49524  0.55876  Biso   1.000  P
  O21      1.0000 0.41583  0.64483  0.32152  Biso   1.000  O
  O22      1.0000 0.43001  0.64344  0.38777  Biso   1.000  O
  O23      1.0000 0.25008  0.63893  0.47771  Biso   1.000  O
  O24      1.0000 0.31553  0.67393  0.49519  Biso   1.000  O
  O25      1.0000 0.31377  0.59745  0.48603  Biso   1.000  O
  O26      1.0000 0.29387  0.41460  0.43860  Biso   1.000  O
  O27      1.0000 0.32750  0.35820  0.42560  Biso   1.000  O
  O28      1.0000 0.35866  0.52677  0.52519  Biso   1.000  O
  O29      1.0000 0.32606  0.49114  0.58365  Biso   1.000  O
  O30      1.0000 0.40212  0.50428  0.58485  Biso   1.000  O
  C29      1.0000 0.40593  0.64503  0.35842  Biso   1.000  C
  C30      1.0000 0.36118  0.64670  0.36866  Biso   1.000  C
  C31      1.0000 0.34877  0.64307  0.40834  Biso   1.000  C
  H17      1.0000 0.36850  0.63960  0.42860  Biso   1.000  H
  C32      1.0000 0.30831  0.64440  0.41966  Biso   1.000  C
  C33      1.0000 0.27930  0.65140  0.38940  Biso   1.000  C
  H18      1.0000 0.25170  0.65380  0.39630  Biso   1.000  H
  C34      1.0000 0.29140  0.65490  0.34910  Biso   1.000  C
  H19      1.0000 0.27180  0.65870  0.32880  Biso   1.000  H
  C35      1.0000 0.33170  0.65270  0.33880  Biso   1.000  C
  H20      1.0000 0.33950  0.65530  0.31160  Biso   1.000  H
  C36      1.0000 0.32400  0.39110  0.44420  Biso   1.000  C
  C37      1.0000 0.35300  0.40180  0.47720  Biso   1.000  C
  C38      1.0000 0.34727  0.43692  0.49964  Biso   1.000  C
  H21      1.0000 0.32540  0.45400  0.49330  Biso   1.000  H
  C39      1.0000 0.37357  0.44768  0.53179  Biso   1.000  C
  C40      1.0000 0.40620  0.42230  0.53960  Biso   1.000  C
  H22      1.0000 0.42400  0.42870  0.56080  Biso   1.000  H
  C41      1.0000 0.41300  0.38820  0.51730  Biso   1.000  C
  H23      1.0000 0.43520  0.37150  0.52360  Biso   1.000  H
  C42      1.0000 0.38720  0.37800  0.48510  Biso   1.000  C
  H24      1.0000 0.39290  0.35520  0.46890  Biso   1.000  H
  Zn7      1.0000 0.30822  0.86248  0.47430  Biso   1.000  Zn
  Zn8      1.0000 0.13793  0.91596  0.51693  Biso   1.000  Zn
  P7       1.0000 0.20419  0.86159  0.47319  Biso   1.000  P
  P8       1.0000 0.13521  0.00476  0.55876  Biso   1.000  P
  O31      1.0000 0.08417  0.85517  0.32152  Biso   1.000  O
  O32      1.0000 0.06999  0.85656  0.38777  Biso   1.000  O
  O33      1.0000 0.24992  0.86107  0.47771  Biso   1.000  O
  O34      1.0000 0.18447  0.82607  0.49519  Biso   1.000  O
  O35      1.0000 0.18623  0.90255  0.48603  Biso   1.000  O
  O36      1.0000 0.20613  0.08540  0.43860  Biso   1.000  O
  O37      1.0000 0.17250  0.14180  0.42560  Biso   1.000  O
  O38      1.0000 0.14134  0.97323  0.52519  Biso   1.000  O
  O39      1.0000 0.17394  0.00886  0.58365  Biso   1.000  O
  O40      1.0000 0.09788  0.99572  0.58485  Biso   1.000  O
  C43      1.0000 0.09407  0.85497  0.35842  Biso   1.000  C
  C44      1.0000 0.13882  0.85330  0.36866  Biso   1.000  C
  C45      1.0000 0.15123  0.85693  0.40834  Biso   1.000  C
  H25      1.0000 0.13150  0.86040  0.42860  Biso   1.000  H
  C46      1.0000 0.19169  0.85560  0.41966  Biso   1.000  C
  C47      1.0000 0.22070  0.84860  0.38940  Biso   1.000  C
  H26      1.0000 0.24830  0.84620  0.39630  Biso   1.000  H
  C48      1.0000 0.20860  0.84510  0.34910  Biso   1.000  C
  H27      1.0000 0.22820  0.84130  0.32880  Biso   1.000  H
  C49      1.0000 0.16830  0.84730  0.33880  Biso   1.000  C
  H28      1.0000 0.16050  0.84470  0.31160  Biso   1.000  H
  C50      1.0000 0.17600  0.10890  0.44420  Biso   1.000  C
  C51      1.0000 0.14700  0.09820  0.47720  Biso   1.000  C
  C52      1.0000 0.15273  0.06308  0.49964  Biso   1.000  C
  H29      1.0000 0.17460  0.04600  0.49330  Biso   1.000  H
  C53      1.0000 0.12643  0.05232  0.53179  Biso   1.000  C
  C54      1.0000 0.09380  0.07770  0.53960  Biso   1.000  C
  H30      1.0000 0.07600  0.07130  0.56080  Biso   1.000  H
  C55      1.0000 0.08700  0.11180  0.51730  Biso   1.000  C
  H31      1.0000 0.06480  0.12850  0.52360  Biso   1.000  H
  C56      1.0000 0.11280  0.12200  0.48510  Biso   1.000  C
  H32      1.0000 0.10710  0.14480  0.46890  Biso   1.000  H
  Zn9      1.0000 0.02570  0.30822  0.63752  Biso   1.000  Zn
  Zn10     1.0000 0.98307  0.13793  0.58404  Biso   1.000  Zn
  P9       1.0000 0.02681  0.20419  0.63841  Biso   1.000  P
  P10      1.0000 0.94124  0.13521  0.49524  Biso   1.000  P
  O41      1.0000 0.17848  0.08417  0.64483  Biso   1.000  O
  O42      1.0000 0.11223  0.06999  0.64344  Biso   1.000  O
  O43      1.0000 0.02229  0.24992  0.63893  Biso   1.000  O
  O44      1.0000 0.00481  0.18447  0.67393  Biso   1.000  O
  O45      1.0000 0.01397  0.18623  0.59745  Biso   1.000  O
  O46      1.0000 0.06140  0.20613  0.41460  Biso   1.000  O
  O47      1.0000 0.07440  0.17250  0.35820  Biso   1.000  O
  O48      1.0000 0.97481  0.14134  0.52677  Biso   1.000  O
  O49      1.0000 0.91635  0.17394  0.49114  Biso   1.000  O
  O50      1.0000 0.91515  0.09788  0.50428  Biso   1.000  O
  C57      1.0000 0.14158  0.09407  0.64503  Biso   1.000  C
  C58      1.0000 0.13134  0.13882  0.64670  Biso   1.000  C
  C59      1.0000 0.09166  0.15123  0.64307  Biso   1.000  C
  H33      1.0000 0.07140  0.13150  0.63960  Biso   1.000  H
  C60      1.0000 0.08034  0.19169  0.64440  Biso   1.000  C
  C61      1.0000 0.11060  0.22070  0.65140  Biso   1.000  C
  H34      1.0000 0.10370  0.24830  0.65380  Biso   1.000  H
  C62      1.0000 0.15090  0.20860  0.65490  Biso   1.000  C
  H35      1.0000 0.17120  0.22820  0.65870  Biso   1.000  H
  C63      1.0000 0.16120  0.16830  0.65270  Biso   1.000  C
  H36      1.0000 0.18840  0.16050  0.65530  Biso   1.000  H
  C64      1.0000 0.05580  0.17600  0.39110  Biso   1.000  C
  C65      1.0000 0.02280  0.14700  0.40180  Biso   1.000  C
  C66      1.0000 0.00036  0.15273  0.43692  Biso   1.000  C
  H37      1.0000 0.00670  0.17460  0.45400  Biso   1.000  H
  C67      1.0000 0.96821  0.12643  0.44768  Biso   1.000  C
  C68      1.0000 0.96040  0.09380  0.42230  Biso   1.000  C
  H38      1.0000 0.93920  0.07600  0.42870  Biso   1.000  H
  C69      1.0000 0.98270  0.08700  0.38820  Biso   1.000  C
  H39      1.0000 0.97640  0.06480  0.37150  Biso   1.000  H
  C70      1.0000 0.01490  0.11280  0.37800  Biso   1.000  C
  H40      1.0000 0.03110  0.10710  0.35520  Biso   1.000  H
  Zn11     1.0000 0.02570  0.19178  0.86248  Biso   1.000  Zn
  Zn12     1.0000 0.98307  0.36207  0.91596  Biso   1.000  Zn
  P11      1.0000 0.02681  0.29581  0.86159  Biso   1.000  P
  P12      1.0000 0.94124  0.36479  0.00476  Biso   1.000  P
  O51      1.0000 0.17848  0.41583  0.85517  Biso   1.000  O
  O52      1.0000 0.11223  0.43001  0.85656  Biso   1.000  O
  O53      1.0000 0.02229  0.25008  0.86107  Biso   1.000  O
  O54      1.0000 0.00481  0.31553  0.82607  Biso   1.000  O
  O55      1.0000 0.01397  0.31377  0.90255  Biso   1.000  O
  O56      1.0000 0.06140  0.29387  0.08540  Biso   1.000  O
  O57      1.0000 0.07440  0.32750  0.14180  Biso   1.000  O
  O58      1.0000 0.97481  0.35866  0.97323  Biso   1.000  O
  O59      1.0000 0.91635  0.32606  0.00886  Biso   1.000  O
  O60      1.0000 0.91515  0.40212  0.99572  Biso   1.000  O
  C71      1.0000 0.14158  0.40593  0.85497  Biso   1.000  C
  C72      1.0000 0.13134  0.36118  0.85330  Biso   1.000  C
  C73      1.0000 0.09166  0.34877  0.85693  Biso   1.000  C
  H41      1.0000 0.07140  0.36850  0.86040  Biso   1.000  H
  C74      1.0000 0.08034  0.30831  0.85560  Biso   1.000  C
  C75      1.0000 0.11060  0.27930  0.84860  Biso   1.000  C
  H42      1.0000 0.10370  0.25170  0.84620  Biso   1.000  H
  C76      1.0000 0.15090  0.29140  0.84510  Biso   1.000  C
  H43      1.0000 0.17120  0.27180  0.84130  Biso   1.000  H
  C77      1.0000 0.16120  0.33170  0.84730  Biso   1.000  C
  H44      1.0000 0.18840  0.33950  0.84470  Biso   1.000  H
  C78      1.0000 0.05580  0.32400  0.10890  Biso   1.000  C
  C79      1.0000 0.02280  0.35300  0.09820  Biso   1.000  C
  C80      1.0000 0.00036  0.34727  0.06308  Biso   1.000  C
  H45      1.0000 0.00670  0.32540  0.04600  Biso   1.000  H
  C81      1.0000 0.96821  0.37357  0.05232  Biso   1.000  C
  C82      1.0000 0.96040  0.40620  0.07770  Biso   1.000  C
  H46      1.0000 0.93920  0.42400  0.07130  Biso   1.000  H
  C83      1.0000 0.98270  0.41300  0.11180  Biso   1.000  C
  H47      1.0000 0.97640  0.43520  0.12850  Biso   1.000  H
  C84      1.0000 0.01490  0.38720  0.12200  Biso   1.000  C
  H48      1.0000 0.03110  0.39290  0.14480  Biso   1.000  H
  Zn13     1.0000 0.47430  0.19178  0.63752  Biso   1.000  Zn
  Zn14     1.0000 0.51693  0.36207  0.58404  Biso   1.000  Zn
  P13      1.0000 0.47319  0.29581  0.63841  Biso   1.000  P
  P14      1.0000 0.55876  0.36479  0.49524  Biso   1.000  P
  O61      1.0000 0.32152  0.41583  0.64483  Biso   1.000  O
  O62      1.0000 0.38777  0.43001  0.64344  Biso   1.000  O
  O63      1.0000 0.47771  0.25008  0.63893  Biso   1.000  O
  O64      1.0000 0.49519  0.31553  0.67393  Biso   1.000  O
  O65      1.0000 0.48603  0.31377  0.59745  Biso   1.000  O
  O66      1.0000 0.43860  0.29387  0.41460  Biso   1.000  O
  O67      1.0000 0.42560  0.32750  0.35820  Biso   1.000  O
  O68      1.0000 0.52519  0.35866  0.52677  Biso   1.000  O
  O69      1.0000 0.58365  0.32606  0.49114  Biso   1.000  O
  O70      1.0000 0.58485  0.40212  0.50428  Biso   1.000  O
  C85      1.0000 0.35842  0.40593  0.64503  Biso   1.000  C
  C86      1.0000 0.36866  0.36118  0.64670  Biso   1.000  C
  C87      1.0000 0.40834  0.34877  0.64307  Biso   1.000  C
  H49      1.0000 0.42860  0.36850  0.63960  Biso   1.000  H
  C88      1.0000 0.41966  0.30831  0.64440  Biso   1.000  C
  C89      1.0000 0.38940  0.27930  0.65140  Biso   1.000  C
  H50      1.0000 0.39630  0.25170  0.65380  Biso   1.000  H
  C90      1.0000 0.34910  0.29140  0.65490  Biso   1.000  C
  H51      1.0000 0.32880  0.27180  0.65870  Biso   1.000  H
  C91      1.0000 0.33880  0.33170  0.65270  Biso   1.000  C
  H52      1.0000 0.31160  0.33950  0.65530  Biso   1.000  H
  C92      1.0000 0.44420  0.32400  0.39110  Biso   1.000  C
  C93      1.0000 0.47720  0.35300  0.40180  Biso   1.000  C
  C94      1.0000 0.49964  0.34727  0.43692  Biso   1.000  C
  H53      1.0000 0.49330  0.32540  0.45400  Biso   1.000  H
  C95      1.0000 0.53179  0.37357  0.44768  Biso   1.000  C
  C96      1.0000 0.53960  0.40620  0.42230  Biso   1.000  C
  H54      1.0000 0.56080  0.42400  0.42870  Biso   1.000  H
  C97      1.0000 0.51730  0.41300  0.38820  Biso   1.000  C
  H55      1.0000 0.52360  0.43520  0.37150  Biso   1.000  H
  C98      1.0000 0.48510  0.38720  0.37800  Biso   1.000  C
  H56      1.0000 0.46890  0.39290  0.35520  Biso   1.000  H
  Zn15     1.0000 0.47430  0.30822  0.86248  Biso   1.000  Zn
  Zn16     1.0000 0.51693  0.13793  0.91596  Biso   1.000  Zn
  P15      1.0000 0.47319  0.20419  0.86159  Biso   1.000  P
  P16      1.0000 0.55876  0.13521  0.00476  Biso   1.000  P
  O71      1.0000 0.32152  0.08417  0.85517  Biso   1.000  O
  O72      1.0000 0.38777  0.06999  0.85656  Biso   1.000  O
  O73      1.0000 0.47771  0.24992  0.86107  Biso   1.000  O
  O74      1.0000 0.49519  0.18447  0.82607  Biso   1.000  O
  O75      1.0000 0.48603  0.18623  0.90255  Biso   1.000  O
  O76      1.0000 0.43860  0.20613  0.08540  Biso   1.000  O
  O77      1.0000 0.42560  0.17250  0.14180  Biso   1.000  O
  O78      1.0000 0.52519  0.14134  0.97323  Biso   1.000  O
  O79      1.0000 0.58365  0.17394  0.00886  Biso   1.000  O
  O80      1.0000 0.58485  0.09788  0.99572  Biso   1.000  O
  C99      1.0000 0.35842  0.09407  0.85497  Biso   1.000  C
  C100     1.0000 0.36866  0.13882  0.85330  Biso   1.000  C
  C101     1.0000 0.40834  0.15123  0.85693  Biso   1.000  C
  H57      1.0000 0.42860  0.13150  0.86040  Biso   1.000  H
  C102     1.0000 0.41966  0.19169  0.85560  Biso   1.000  C
  C103     1.0000 0.38940  0.22070  0.84860  Biso   1.000  C
  H58      1.0000 0.39630  0.24830  0.84620  Biso   1.000  H
  C104     1.0000 0.34910  0.20860  0.84510  Biso   1.000  C
  H59      1.0000 0.32880  0.22820  0.84130  Biso   1.000  H
  C105     1.0000 0.33880  0.16830  0.84730  Biso   1.000  C
  H60      1.0000 0.31160  0.16050  0.84470  Biso   1.000  H
  C106     1.0000 0.44420  0.17600  0.10890  Biso   1.000  C
  C107     1.0000 0.47720  0.14700  0.09820  Biso   1.000  C
  C108     1.0000 0.49964  0.15273  0.06308  Biso   1.000  C
  H61      1.0000 0.49330  0.17460  0.04600  Biso   1.000  H
  C109     1.0000 0.53179  0.12643  0.05232  Biso   1.000  C
  C110     1.0000 0.53960  0.09380  0.07770  Biso   1.000  C
  H62      1.0000 0.56080  0.07600  0.07130  Biso   1.000  H
  C111     1.0000 0.51730  0.08700  0.11180  Biso   1.000  C
  H63      1.0000 0.52360  0.06480  0.12850  Biso   1.000  H
  C112     1.0000 0.48510  0.11280  0.12200  Biso   1.000  C
  H64      1.0000 0.46890  0.10710  0.14480  Biso   1.000  H
  Zn17     1.0000 0.63752  0.02570  0.30822  Biso   1.000  Zn
  Zn18     1.0000 0.58404  0.98307  0.13793  Biso   1.000  Zn
  P17      1.0000 0.63841  0.02681  0.20419  Biso   1.000  P
  P18      1.0000 0.49524  0.94124  0.13521  Biso   1.000  P
  O81      1.0000 0.64483  0.17848  0.08417  Biso   1.000  O
  O82      1.0000 0.64344  0.11223  0.06999  Biso   1.000  O
  O83      1.0000 0.63893  0.02229  0.24992  Biso   1.000  O
  O84      1.0000 0.67393  0.00481  0.18447  Biso   1.000  O
  O85      1.0000 0.59745  0.01397  0.18623  Biso   1.000  O
  O86      1.0000 0.41460  0.06140  0.20613  Biso   1.000  O
  O87      1.0000 0.35820  0.07440  0.17250  Biso   1.000  O
  O88      1.0000 0.52677  0.97481  0.14134  Biso   1.000  O
  O89      1.0000 0.49114  0.91635  0.17394  Biso   1.000  O
  O90      1.0000 0.50428  0.91515  0.09788  Biso   1.000  O
  C113     1.0000 0.64503  0.14158  0.09407  Biso   1.000  C
  C114     1.0000 0.64670  0.13134  0.13882  Biso   1.000  C
  C115     1.0000 0.64307  0.09166  0.15123  Biso   1.000  C
  H65      1.0000 0.63960  0.07140  0.13150  Biso   1.000  H
  C116     1.0000 0.64440  0.08034  0.19169  Biso   1.000  C
  C117     1.0000 0.65140  0.11060  0.22070  Biso   1.000  C
  H66      1.0000 0.65380  0.10370  0.24830  Biso   1.000  H
  C118     1.0000 0.65490  0.15090  0.20860  Biso   1.000  C
  H67      1.0000 0.65870  0.17120  0.22820  Biso   1.000  H
  C119     1.0000 0.65270  0.16120  0.16830  Biso   1.000  C
  H68      1.0000 0.65530  0.18840  0.16050  Biso   1.000  H
  C120     1.0000 0.39110  0.05580  0.17600  Biso   1.000  C
  C121     1.0000 0.40180  0.02280  0.14700  Biso   1.000  C
  C122     1.0000 0.43692  0.00036  0.15273  Biso   1.000  C
  H69      1.0000 0.45400  0.00670  0.17460  Biso   1.000  H
  C123     1.0000 0.44768  0.96821  0.12643  Biso   1.000  C
  C124     1.0000 0.42230  0.96040  0.09380  Biso   1.000  C
  H70      1.0000 0.42870  0.93920  0.07600  Biso   1.000  H
  C125     1.0000 0.38820  0.98270  0.08700  Biso   1.000  C
  H71      1.0000 0.37150  0.97640  0.06480  Biso   1.000  H
  C126     1.0000 0.37800  0.01490  0.11280  Biso   1.000  C
  H72      1.0000 0.35520  0.03110  0.10710  Biso   1.000  H
  Zn19     1.0000 0.86248  0.02570  0.19178  Biso   1.000  Zn
  Zn20     1.0000 0.91596  0.98307  0.36207  Biso   1.000  Zn
  P19      1.0000 0.86159  0.02681  0.29581  Biso   1.000  P
  P20      1.0000 0.00476  0.94124  0.36479  Biso   1.000  P
  O91      1.0000 0.85517  0.17848  0.41583  Biso   1.000  O
  O92      1.0000 0.85656  0.11223  0.43001  Biso   1.000  O
  O93      1.0000 0.86107  0.02229  0.25008  Biso   1.000  O
  O94      1.0000 0.82607  0.00481  0.31553  Biso   1.000  O
  O95      1.0000 0.90255  0.01397  0.31377  Biso   1.000  O
  O96      1.0000 0.08540  0.06140  0.29387  Biso   1.000  O
  O97      1.0000 0.14180  0.07440  0.32750  Biso   1.000  O
  O98      1.0000 0.97323  0.97481  0.35866  Biso   1.000  O
  O99      1.0000 0.00886  0.91635  0.32606  Biso   1.000  O
  O100     1.0000 0.99572  0.91515  0.40212  Biso   1.000  O
  C127     1.0000 0.85497  0.14158  0.40593  Biso   1.000  C
  C128     1.0000 0.85330  0.13134  0.36118  Biso   1.000  C
  C129     1.0000 0.85693  0.09166  0.34877  Biso   1.000  C
  H73      1.0000 0.86040  0.07140  0.36850  Biso   1.000  H
  C130     1.0000 0.85560  0.08034  0.30831  Biso   1.000  C
  C131     1.0000 0.84860  0.11060  0.27930  Biso   1.000  C
  H74      1.0000 0.84620  0.10370  0.25170  Biso   1.000  H
  C132     1.0000 0.84510  0.15090  0.29140  Biso   1.000  C
  H75      1.0000 0.84130  0.17120  0.27180  Biso   1.000  H
  C133     1.0000 0.84730  0.16120  0.33170  Biso   1.000  C
  H76      1.0000 0.84470  0.18840  0.33950  Biso   1.000  H
  C134     1.0000 0.10890  0.05580  0.32400  Biso   1.000  C
  C135     1.0000 0.09820  0.02280  0.35300  Biso   1.000  C
  C136     1.0000 0.06308  0.00036  0.34727  Biso   1.000  C
  H77      1.0000 0.04600  0.00670  0.32540  Biso   1.000  H
  C137     1.0000 0.05232  0.96821  0.37357  Biso   1.000  C
  C138     1.0000 0.07770  0.96040  0.40620  Biso   1.000  C
  H78      1.0000 0.07130  0.93920  0.42400  Biso   1.000  H
  C139     1.0000 0.11180  0.98270  0.41300  Biso   1.000  C
  H79      1.0000 0.12850  0.97640  0.43520  Biso   1.000  H
  C140     1.0000 0.12200  0.01490  0.38720  Biso   1.000  C
  H80      1.0000 0.14480  0.03110  0.39290  Biso   1.000  H
  Zn21     1.0000 0.63752  0.47430  0.19178  Biso   1.000  Zn
  Zn22     1.0000 0.58404  0.51693  0.36207  Biso   1.000  Zn
  P21      1.0000 0.63841  0.47319  0.29581  Biso   1.000  P
  P22      1.0000 0.49524  0.55876  0.36479  Biso   1.000  P
  O101     1.0000 0.64483  0.32152  0.41583  Biso   1.000  O
  O102     1.0000 0.64344  0.38777  0.43001  Biso   1.000  O
  O103     1.0000 0.63893  0.47771  0.25008  Biso   1.000  O
  O104     1.0000 0.67393  0.49519  0.31553  Biso   1.000  O
  O105     1.0000 0.59745  0.48603  0.31377  Biso   1.000  O
  O106     1.0000 0.41460  0.43860  0.29387  Biso   1.000  O
  O107     1.0000 0.35820  0.42560  0.32750  Biso   1.000  O
  O108     1.0000 0.52677  0.52519  0.35866  Biso   1.000  O
  O109     1.0000 0.49114  0.58365  0.32606  Biso   1.000  O
  O110     1.0000 0.50428  0.58485  0.40212  Biso   1.000  O
  C141     1.0000 0.64503  0.35842  0.40593  Biso   1.000  C
  C142     1.0000 0.64670  0.36866  0.36118  Biso   1.000  C
  C143     1.0000 0.64307  0.40834  0.34877  Biso   1.000  C
  H81      1.0000 0.63960  0.42860  0.36850  Biso   1.000  H
  C144     1.0000 0.64440  0.41966  0.30831  Biso   1.000  C
  C145     1.0000 0.65140  0.38940  0.27930  Biso   1.000  C
  H82      1.0000 0.65380  0.39630  0.25170  Biso   1.000  H
  C146     1.0000 0.65490  0.34910  0.29140  Biso   1.000  C
  H83      1.0000 0.65870  0.32880  0.27180  Biso   1.000  H
  C147     1.0000 0.65270  0.33880  0.33170  Biso   1.000  C
  H84      1.0000 0.65530  0.31160  0.33950  Biso   1.000  H
  C148     1.0000 0.39110  0.44420  0.32400  Biso   1.000  C
  C149     1.0000 0.40180  0.47720  0.35300  Biso   1.000  C
  C150     1.0000 0.43692  0.49964  0.34727  Biso   1.000  C
  H85      1.0000 0.45400  0.49330  0.32540  Biso   1.000  H
  C151     1.0000 0.44768  0.53179  0.37357  Biso   1.000  C
  C152     1.0000 0.42230  0.53960  0.40620  Biso   1.000  C
  H86      1.0000 0.42870  0.56080  0.42400  Biso   1.000  H
  C153     1.0000 0.38820  0.51730  0.41300  Biso   1.000  C
  H87      1.0000 0.37150  0.52360  0.43520  Biso   1.000  H
  C154     1.0000 0.37800  0.48510  0.38720  Biso   1.000  C
  H88      1.0000 0.35520  0.46890  0.39290  Biso   1.000  H
  Zn23     1.0000 0.86248  0.47430  0.30822  Biso   1.000  Zn
  Zn24     1.0000 0.91596  0.51693  0.13793  Biso   1.000  Zn
  P23      1.0000 0.86159  0.47319  0.20419  Biso   1.000  P
  P24      1.0000 0.00476  0.55876  0.13521  Biso   1.000  P
  O111     1.0000 0.85517  0.32152  0.08417  Biso   1.000  O
  O112     1.0000 0.85656  0.38777  0.06999  Biso   1.000  O
  O113     1.0000 0.86107  0.47771  0.24992  Biso   1.000  O
  O114     1.0000 0.82607  0.49519  0.18447  Biso   1.000  O
  O115     1.0000 0.90255  0.48603  0.18623  Biso   1.000  O
  O116     1.0000 0.08540  0.43860  0.20613  Biso   1.000  O
  O117     1.0000 0.14180  0.42560  0.17250  Biso   1.000  O
  O118     1.0000 0.97323  0.52519  0.14134  Biso   1.000  O
  O119     1.0000 0.00886  0.58365  0.17394  Biso   1.000  O
  O120     1.0000 0.99572  0.58485  0.09788  Biso   1.000  O
  C155     1.0000 0.85497  0.35842  0.09407  Biso   1.000  C
  C156     1.0000 0.85330  0.36866  0.13882  Biso   1.000  C
  C157     1.0000 0.85693  0.40834  0.15123  Biso   1.000  C
  H89      1.0000 0.86040  0.42860  0.13150  Biso   1.000  H
  C158     1.0000 0.85560  0.41966  0.19169  Biso   1.000  C
  C159     1.0000 0.84860  0.38940  0.22070  Biso   1.000  C
  H90      1.0000 0.84620  0.39630  0.24830  Biso   1.000  H
  C160     1.0000 0.84510  0.34910  0.20860  Biso   1.000  C
  H91      1.0000 0.84130  0.32880  0.22820  Biso   1.000  H
  C161     1.0000 0.84730  0.33880  0.16830  Biso   1.000  C
  H92      1.0000 0.84470  0.31160  0.16050  Biso   1.000  H
  C162     1.0000 0.10890  0.44420  0.17600  Biso   1.000  C
  C163     1.0000 0.09820  0.47720  0.14700  Biso   1.000  C
  C164     1.0000 0.06308  0.49964  0.15273  Biso   1.000  C
  H93      1.0000 0.04600  0.49330  0.17460  Biso   1.000  H
  C165     1.0000 0.05232  0.53179  0.12643  Biso   1.000  C
  C166     1.0000 0.07770  0.53960  0.09380  Biso   1.000  C
  H94      1.0000 0.07130  0.56080  0.07600  Biso   1.000  H
  C167     1.0000 0.11180  0.51730  0.08700  Biso   1.000  C
  H95      1.0000 0.12850  0.52360  0.06480  Biso   1.000  H
  C168     1.0000 0.12200  0.48510  0.11280  Biso   1.000  C
  H96      1.0000 0.14480  0.46890  0.10710  Biso   1.000  H
  Zn25     1.0000 0.63752  0.30822  0.47430  Biso   1.000  Zn
  Zn26     1.0000 0.58404  0.13793  0.51693  Biso   1.000  Zn
  P25      1.0000 0.63841  0.20419  0.47319  Biso   1.000  P
  P26      1.0000 0.49524  0.13521  0.55876  Biso   1.000  P
  O121     1.0000 0.64483  0.08417  0.32152  Biso   1.000  O
  O122     1.0000 0.64344  0.06999  0.38777  Biso   1.000  O
  O123     1.0000 0.63893  0.24992  0.47771  Biso   1.000  O
  O124     1.0000 0.67393  0.18447  0.49519  Biso   1.000  O
  O125     1.0000 0.59745  0.18623  0.48603  Biso   1.000  O
  O126     1.0000 0.41460  0.20613  0.43860  Biso   1.000  O
  O127     1.0000 0.35820  0.17250  0.42560  Biso   1.000  O
  O128     1.0000 0.52677  0.14134  0.52519  Biso   1.000  O
  O129     1.0000 0.49114  0.17394  0.58365  Biso   1.000  O
  O130     1.0000 0.50428  0.09788  0.58485  Biso   1.000  O
  C169     1.0000 0.64503  0.09407  0.35842  Biso   1.000  C
  C170     1.0000 0.64670  0.13882  0.36866  Biso   1.000  C
  C171     1.0000 0.64307  0.15123  0.40834  Biso   1.000  C
  H97      1.0000 0.63960  0.13150  0.42860  Biso   1.000  H
  C172     1.0000 0.64440  0.19169  0.41966  Biso   1.000  C
  C173     1.0000 0.65140  0.22070  0.38940  Biso   1.000  C
  H98      1.0000 0.65380  0.24830  0.39630  Biso   1.000  H
  C174     1.0000 0.65490  0.20860  0.34910  Biso   1.000  C
  H99      1.0000 0.65870  0.22820  0.32880  Biso   1.000  H
  C175     1.0000 0.65270  0.16830  0.33880  Biso   1.000  C
  H100     1.0000 0.65530  0.16050  0.31160  Biso   1.000  H
  C176     1.0000 0.39110  0.17600  0.44420  Biso   1.000  C
  C177     1.0000 0.40180  0.14700  0.47720  Biso   1.000  C
  C178     1.0000 0.43692  0.15273  0.49964  Biso   1.000  C
  H101     1.0000 0.45400  0.17460  0.49330  Biso   1.000  H
  C179     1.0000 0.44768  0.12643  0.53179  Biso   1.000  C
  C180     1.0000 0.42230  0.09380  0.53960  Biso   1.000  C
  H102     1.0000 0.42870  0.07600  0.56080  Biso   1.000  H
  C181     1.0000 0.38820  0.08700  0.51730  Biso   1.000  C
  H103     1.0000 0.37150  0.06480  0.52360  Biso   1.000  H
  C182     1.0000 0.37800  0.11280  0.48510  Biso   1.000  C
  H104     1.0000 0.35520  0.10710  0.46890  Biso   1.000  H
  Zn27     1.0000 0.86248  0.19178  0.47430  Biso   1.000  Zn
  Zn28     1.0000 0.91596  0.36207  0.51693  Biso   1.000  Zn
  P27      1.0000 0.86159  0.29581  0.47319  Biso   1.000  P
  P28      1.0000 0.00476  0.36479  0.55876  Biso   1.000  P
  O131     1.0000 0.85517  0.41583  0.32152  Biso   1.000  O
  O132     1.0000 0.85656  0.43001  0.38777  Biso   1.000  O
  O133     1.0000 0.86107  0.25008  0.47771  Biso   1.000  O
  O134     1.0000 0.82607  0.31553  0.49519  Biso   1.000  O
  O135     1.0000 0.90255  0.31377  0.48603  Biso   1.000  O
  O136     1.0000 0.08540  0.29387  0.43860  Biso   1.000  O
  O137     1.0000 0.14180  0.32750  0.42560  Biso   1.000  O
  O138     1.0000 0.97323  0.35866  0.52519  Biso   1.000  O
  O139     1.0000 0.00886  0.32606  0.58365  Biso   1.000  O
  O140     1.0000 0.99572  0.40212  0.58485  Biso   1.000  O
  C183     1.0000 0.85497  0.40593  0.35842  Biso   1.000  C
  C184     1.0000 0.85330  0.36118  0.36866  Biso   1.000  C
  C185     1.0000 0.85693  0.34877  0.40834  Biso   1.000  C
  H105     1.0000 0.86040  0.36850  0.42860  Biso   1.000  H
  C186     1.0000 0.85560  0.30831  0.41966  Biso   1.000  C
  C187     1.0000 0.84860  0.27930  0.38940  Biso   1.000  C
  H106     1.0000 0.84620  0.25170  0.39630  Biso   1.000  H
  C188     1.0000 0.84510  0.29140  0.34910  Biso   1.000  C
  H107     1.0000 0.84130  0.27180  0.32880  Biso   1.000  H
  C189     1.0000 0.84730  0.33170  0.33880  Biso   1.000  C
  H108     1.0000 0.84470  0.33950  0.31160  Biso   1.000  H
  C190     1.0000 0.10890  0.32400  0.44420  Biso   1.000  C
  C191     1.0000 0.09820  0.35300  0.47720  Biso   1.000  C
  C192     1.0000 0.06308  0.34727  0.49964  Biso   1.000  C
  H109     1.0000 0.04600  0.32540  0.49330  Biso   1.000  H
  C193     1.0000 0.05232  0.37357  0.53179  Biso   1.000  C
  C194     1.0000 0.07770  0.40620  0.53960  Biso   1.000  C
  H110     1.0000 0.07130  0.42400  0.56080  Biso   1.000  H
  C195     1.0000 0.11180  0.41300  0.51730  Biso   1.000  C
  H111     1.0000 0.12850  0.43520  0.52360  Biso   1.000  H
  C196     1.0000 0.12200  0.38720  0.48510  Biso   1.000  C
  H112     1.0000 0.14480  0.39290  0.46890  Biso   1.000  H
  Zn29     1.0000 0.63752  0.19178  0.02570  Biso   1.000  Zn
  Zn30     1.0000 0.58404  0.36207  0.98307  Biso   1.000  Zn
  P29      1.0000 0.63841  0.29581  0.02681  Biso   1.000  P
  P30      1.0000 0.49524  0.36479  0.94124  Biso   1.000  P
  O141     1.0000 0.64483  0.41583  0.17848  Biso   1.000  O
  O142     1.0000 0.64344  0.43001  0.11223  Biso   1.000  O
  O143     1.0000 0.63893  0.25008  0.02229  Biso   1.000  O
  O144     1.0000 0.67393  0.31553  0.00481  Biso   1.000  O
  O145     1.0000 0.59745  0.31377  0.01397  Biso   1.000  O
  O146     1.0000 0.41460  0.29387  0.06140  Biso   1.000  O
  O147     1.0000 0.35820  0.32750  0.07440  Biso   1.000  O
  O148     1.0000 0.52677  0.35866  0.97481  Biso   1.000  O
  O149     1.0000 0.49114  0.32606  0.91635  Biso   1.000  O
  O150     1.0000 0.50428  0.40212  0.91515  Biso   1.000  O
  C197     1.0000 0.64503  0.40593  0.14158  Biso   1.000  C
  C198     1.0000 0.64670  0.36118  0.13134  Biso   1.000  C
  C199     1.0000 0.64307  0.34877  0.09166  Biso   1.000  C
  H113     1.0000 0.63960  0.36850  0.07140  Biso   1.000  H
  C200     1.0000 0.64440  0.30831  0.08034  Biso   1.000  C
  C201     1.0000 0.65140  0.27930  0.11060  Biso   1.000  C
  H114     1.0000 0.65380  0.25170  0.10370  Biso   1.000  H
  C202     1.0000 0.65490  0.29140  0.15090  Biso   1.000  C
  H115     1.0000 0.65870  0.27180  0.17120  Biso   1.000  H
  C203     1.0000 0.65270  0.33170  0.16120  Biso   1.000  C
  H116     1.0000 0.65530  0.33950  0.18840  Biso   1.000  H
  C204     1.0000 0.39110  0.32400  0.05580  Biso   1.000  C
  C205     1.0000 0.40180  0.35300  0.02280  Biso   1.000  C
  C206     1.0000 0.43692  0.34727  0.00036  Biso   1.000  C
  H117     1.0000 0.45400  0.32540  0.00670  Biso   1.000  H
  C207     1.0000 0.44768  0.37357  0.96821  Biso   1.000  C
  C208     1.0000 0.42230  0.40620  0.96040  Biso   1.000  C
  H118     1.0000 0.42870  0.42400  0.93920  Biso   1.000  H
  C209     1.0000 0.38820  0.41300  0.98270  Biso   1.000  C
  H119     1.0000 0.37150  0.43520  0.97640  Biso   1.000  H
  C210     1.0000 0.37800  0.38720  0.01490  Biso   1.000  C
  H120     1.0000 0.35520  0.39290  0.03110  Biso   1.000  H
  Zn31     1.0000 0.86248  0.30822  0.02570  Biso   1.000  Zn
  Zn32     1.0000 0.91596  0.13793  0.98307  Biso   1.000  Zn
  P31      1.0000 0.86159  0.20419  0.02681  Biso   1.000  P
  P32      1.0000 0.00476  0.13521  0.94124  Biso   1.000  P
  O151     1.0000 0.85517  0.08417  0.17848  Biso   1.000  O
  O152     1.0000 0.85656  0.06999  0.11223  Biso   1.000  O
  O153     1.0000 0.86107  0.24992  0.02229  Biso   1.000  O
  O154     1.0000 0.82607  0.18447  0.00481  Biso   1.000  O
  O155     1.0000 0.90255  0.18623  0.01397  Biso   1.000  O
  O156     1.0000 0.08540  0.20613  0.06140  Biso   1.000  O
  O157     1.0000 0.14180  0.17250  0.07440  Biso   1.000  O
  O158     1.0000 0.97323  0.14134  0.97481  Biso   1.000  O
  O159     1.0000 0.00886  0.17394  0.91635  Biso   1.000  O
  O160     1.0000 0.99572  0.09788  0.91515  Biso   1.000  O
  C211     1.0000 0.85497  0.09407  0.14158  Biso   1.000  C
  C212     1.0000 0.85330  0.13882  0.13134  Biso   1.000  C
  C213     1.0000 0.85693  0.15123  0.09166  Biso   1.000  C
  H121     1.0000 0.86040  0.13150  0.07140  Biso   1.000  H
  C214     1.0000 0.85560  0.19169  0.08034  Biso   1.000  C
  C215     1.0000 0.84860  0.22070  0.11060  Biso   1.000  C
  H122     1.0000 0.84620  0.24830  0.10370  Biso   1.000  H
  C216     1.0000 0.84510  0.20860  0.15090  Biso   1.000  C
  H123     1.0000 0.84130  0.22820  0.17120  Biso   1.000  H
  C217     1.0000 0.84730  0.16830  0.16120  Biso   1.000  C
  H124     1.0000 0.84470  0.16050  0.18840  Biso   1.000  H
  C218     1.0000 0.10890  0.17600  0.05580  Biso   1.000  C
  C219     1.0000 0.09820  0.14700  0.02280  Biso   1.000  C
  C220     1.0000 0.06308  0.15273  0.00036  Biso   1.000  C
  H125     1.0000 0.04600  0.17460  0.00670  Biso   1.000  H
  C221     1.0000 0.05232  0.12643  0.96821  Biso   1.000  C
  C222     1.0000 0.07770  0.09380  0.96040  Biso   1.000  C
  H126     1.0000 0.07130  0.07600  0.93920  Biso   1.000  H
  C223     1.0000 0.11180  0.08700  0.98270  Biso   1.000  C
  H127     1.0000 0.12850  0.06480  0.97640  Biso   1.000  H
  C224     1.0000 0.12200  0.11280  0.01490  Biso   1.000  C
  H128     1.0000 0.14480  0.10710  0.03110  Biso   1.000  H
  Zn33     1.0000 0.30822  0.02570  0.86248  Biso   1.000  Zn
  Zn34     1.0000 0.13793  0.98307  0.91596  Biso   1.000  Zn
  P33      1.0000 0.20419  0.02681  0.86159  Biso   1.000  P
  P34      1.0000 0.13521  0.94124  0.00476  Biso   1.000  P
  O161     1.0000 0.08417  0.17848  0.85517  Biso   1.000  O
  O162     1.0000 0.06999  0.11223  0.85656  Biso   1.000  O
  O163     1.0000 0.24992  0.02229  0.86107  Biso   1.000  O
  O164     1.0000 0.18447  0.00481  0.82607  Biso   1.000  O
  O165     1.0000 0.18623  0.01397  0.90255  Biso   1.000  O
  O166     1.0000 0.20613  0.06140  0.08540  Biso   1.000  O
  O167     1.0000 0.17250  0.07440  0.14180  Biso   1.000  O
  O168     1.0000 0.14134  0.97481  0.97323  Biso   1.000  O
  O169     1.0000 0.17394  0.91635  0.00886  Biso   1.000  O
  O170     1.0000 0.09788  0.91515  0.99572  Biso   1.000  O
  C225     1.0000 0.09407  0.14158  0.85497  Biso   1.000  C
  C226     1.0000 0.13882  0.13134  0.85330  Biso   1.000  C
  C227     1.0000 0.15123  0.09166  0.85693  Biso   1.000  C
  H129     1.0000 0.13150  0.07140  0.86040  Biso   1.000  H
  C228     1.0000 0.19169  0.08034  0.85560  Biso   1.000  C
  C229     1.0000 0.22070  0.11060  0.84860  Biso   1.000  C
  H130     1.0000 0.24830  0.10370  0.84620  Biso   1.000  H
  C230     1.0000 0.20860  0.15090  0.84510  Biso   1.000  C
  H131     1.0000 0.22820  0.17120  0.84130  Biso   1.000  H
  C231     1.0000 0.16830  0.16120  0.84730  Biso   1.000  C
  H132     1.0000 0.16050  0.18840  0.84470  Biso   1.000  H
  C232     1.0000 0.17600  0.05580  0.10890  Biso   1.000  C
  C233     1.0000 0.14700  0.02280  0.09820  Biso   1.000  C
  C234     1.0000 0.15273  0.00036  0.06308  Biso   1.000  C
  H133     1.0000 0.17460  0.00670  0.04600  Biso   1.000  H
  C235     1.0000 0.12643  0.96821  0.05232  Biso   1.000  C
  C236     1.0000 0.09380  0.96040  0.07770  Biso   1.000  C
  H134     1.0000 0.07600  0.93920  0.07130  Biso   1.000  H
  C237     1.0000 0.08700  0.98270  0.11180  Biso   1.000  C
  H135     1.0000 0.06480  0.97640  0.12850  Biso   1.000  H
  C238     1.0000 0.11280  0.01490  0.12200  Biso   1.000  C
  H136     1.0000 0.10710  0.03110  0.14480  Biso   1.000  H
  Zn35     1.0000 0.19178  0.02570  0.63752  Biso   1.000  Zn
  Zn36     1.0000 0.36207  0.98307  0.58404  Biso   1.000  Zn
  P35      1.0000 0.29581  0.02681  0.63841  Biso   1.000  P
  P36      1.0000 0.36479  0.94124  0.49524  Biso   1.000  P
  O171     1.0000 0.41583  0.17848  0.64483  Biso   1.000  O
  O172     1.0000 0.43001  0.11223  0.64344  Biso   1.000  O
  O173     1.0000 0.25008  0.02229  0.63893  Biso   1.000  O
  O174     1.0000 0.31553  0.00481  0.67393  Biso   1.000  O
  O175     1.0000 0.31377  0.01397  0.59745  Biso   1.000  O
  O176     1.0000 0.29387  0.06140  0.41460  Biso   1.000  O
  O177     1.0000 0.32750  0.07440  0.35820  Biso   1.000  O
  O178     1.0000 0.35866  0.97481  0.52677  Biso   1.000  O
  O179     1.0000 0.32606  0.91635  0.49114  Biso   1.000  O
  O180     1.0000 0.40212  0.91515  0.50428  Biso   1.000  O
  C239     1.0000 0.40593  0.14158  0.64503  Biso   1.000  C
  C240     1.0000 0.36118  0.13134  0.64670  Biso   1.000  C
  C241     1.0000 0.34877  0.09166  0.64307  Biso   1.000  C
  H137     1.0000 0.36850  0.07140  0.63960  Biso   1.000  H
  C242     1.0000 0.30831  0.08034  0.64440  Biso   1.000  C
  C243     1.0000 0.27930  0.11060  0.65140  Biso   1.000  C
  H138     1.0000 0.25170  0.10370  0.65380  Biso   1.000  H
  C244     1.0000 0.29140  0.15090  0.65490  Biso   1.000  C
  H139     1.0000 0.27180  0.17120  0.65870  Biso   1.000  H
  C245     1.0000 0.33170  0.16120  0.65270  Biso   1.000  C
  H140     1.0000 0.33950  0.18840  0.65530  Biso   1.000  H
  C246     1.0000 0.32400  0.05580  0.39110  Biso   1.000  C
  C247     1.0000 0.35300  0.02280  0.40180  Biso   1.000  C
  C248     1.0000 0.34727  0.00036  0.43692  Biso   1.000  C
  H141     1.0000 0.32540  0.00670  0.45400  Biso   1.000  H
  C249     1.0000 0.37357  0.96821  0.44768  Biso   1.000  C
  C250     1.0000 0.40620  0.96040  0.42230  Biso   1.000  C
  H142     1.0000 0.42400  0.93920  0.42870  Biso   1.000  H
  C251     1.0000 0.41300  0.98270  0.38820  Biso   1.000  C
  H143     1.0000 0.43520  0.97640  0.37150  Biso   1.000  H
  C252     1.0000 0.38720  0.01490  0.37800  Biso   1.000  C
  H144     1.0000 0.39290  0.03110  0.35520  Biso   1.000  H
  Zn37     1.0000 0.19178  0.47430  0.86248  Biso   1.000  Zn
  Zn38     1.0000 0.36207  0.51693  0.91596  Biso   1.000  Zn
  P37      1.0000 0.29581  0.47319  0.86159  Biso   1.000  P
  P38      1.0000 0.36479  0.55876  0.00476  Biso   1.000  P
  O181     1.0000 0.41583  0.32152  0.85517  Biso   1.000  O
  O182     1.0000 0.43001  0.38777  0.85656  Biso   1.000  O
  O183     1.0000 0.25008  0.47771  0.86107  Biso   1.000  O
  O184     1.0000 0.31553  0.49519  0.82607  Biso   1.000  O
  O185     1.0000 0.31377  0.48603  0.90255  Biso   1.000  O
  O186     1.0000 0.29387  0.43860  0.08540  Biso   1.000  O
  O187     1.0000 0.32750  0.42560  0.14180  Biso   1.000  O
  O188     1.0000 0.35866  0.52519  0.97323  Biso   1.000  O
  O189     1.0000 0.32606  0.58365  0.00886  Biso   1.000  O
  O190     1.0000 0.40212  0.58485  0.99572  Biso   1.000  O
  C253     1.0000 0.40593  0.35842  0.85497  Biso   1.000  C
  C254     1.0000 0.36118  0.36866  0.85330  Biso   1.000  C
  C255     1.0000 0.34877  0.40834  0.85693  Biso   1.000  C
  H145     1.0000 0.36850  0.42860  0.86040  Biso   1.000  H
  C256     1.0000 0.30831  0.41966  0.85560  Biso   1.000  C
  C257     1.0000 0.27930  0.38940  0.84860  Biso   1.000  C
  H146     1.0000 0.25170  0.39630  0.84620  Biso   1.000  H
  C258     1.0000 0.29140  0.34910  0.84510  Biso   1.000  C
  H147     1.0000 0.27180  0.32880  0.84130  Biso   1.000  H
  C259     1.0000 0.33170  0.33880  0.84730  Biso   1.000  C
  H148     1.0000 0.33950  0.31160  0.84470  Biso   1.000  H
  C260     1.0000 0.32400  0.44420  0.10890  Biso   1.000  C
  C261     1.0000 0.35300  0.47720  0.09820  Biso   1.000  C
  C262     1.0000 0.34727  0.49964  0.06308  Biso   1.000  C
  H149     1.0000 0.32540  0.49330  0.04600  Biso   1.000  H
  C263     1.0000 0.37357  0.53179  0.05232  Biso   1.000  C
  C264     1.0000 0.40620  0.53960  0.07770  Biso   1.000  C
  H150     1.0000 0.42400  0.56080  0.07130  Biso   1.000  H
  C265     1.0000 0.41300  0.51730  0.11180  Biso   1.000  C
  H151     1.0000 0.43520  0.52360  0.12850  Biso   1.000  H
  C266     1.0000 0.38720  0.48510  0.12200  Biso   1.000  C
  H152     1.0000 0.39290  0.46890  0.14480  Biso   1.000  H
  Zn39     1.0000 0.30822  0.47430  0.63752  Biso   1.000  Zn
  Zn40     1.0000 0.13793  0.51693  0.58404  Biso   1.000  Zn
  P39      1.0000 0.20419  0.47319  0.63841  Biso   1.000  P
  P40      1.0000 0.13521  0.55876  0.49524  Biso   1.000  P
  O191     1.0000 0.08417  0.32152  0.64483  Biso   1.000  O
  O192     1.0000 0.06999  0.38777  0.64344  Biso   1.000  O
  O193     1.0000 0.24992  0.47771  0.63893  Biso   1.000  O
  O194     1.0000 0.18447  0.49519  0.67393  Biso   1.000  O
  O195     1.0000 0.18623  0.48603  0.59745  Biso   1.000  O
  O196     1.0000 0.20613  0.43860  0.41460  Biso   1.000  O
  O197     1.0000 0.17250  0.42560  0.35820  Biso   1.000  O
  O198     1.0000 0.14134  0.52519  0.52677  Biso   1.000  O
  O199     1.0000 0.17394  0.58365  0.49114  Biso   1.000  O
  O200     1.0000 0.09788  0.58485  0.50428  Biso   1.000  O
  C267     1.0000 0.09407  0.35842  0.64503  Biso   1.000  C
  C268     1.0000 0.13882  0.36866  0.64670  Biso   1.000  C
  C269     1.0000 0.15123  0.40834  0.64307  Biso   1.000  C
  H153     1.0000 0.13150  0.42860  0.63960  Biso   1.000  H
  C270     1.0000 0.19169  0.41966  0.64440  Biso   1.000  C
  C271     1.0000 0.22070  0.38940  0.65140  Biso   1.000  C
  H154     1.0000 0.24830  0.39630  0.65380  Biso   1.000  H
  C272     1.0000 0.20860  0.34910  0.65490  Biso   1.000  C
  H155     1.0000 0.22820  0.32880  0.65870  Biso   1.000  H
  C273     1.0000 0.16830  0.33880  0.65270  Biso   1.000  C
  H156     1.0000 0.16050  0.31160  0.65530  Biso   1.000  H
  C274     1.0000 0.17600  0.44420  0.39110  Biso   1.000  C
  C275     1.0000 0.14700  0.47720  0.40180  Biso   1.000  C
  C276     1.0000 0.15273  0.49964  0.43692  Biso   1.000  C
  H157     1.0000 0.17460  0.49330  0.45400  Biso   1.000  H
  C277     1.0000 0.12643  0.53179  0.44768  Biso   1.000  C
  C278     1.0000 0.09380  0.53960  0.42230  Biso   1.000  C
  H158     1.0000 0.07600  0.56080  0.42870  Biso   1.000  H
  C279     1.0000 0.08700  0.51730  0.38820  Biso   1.000  C
  H159     1.0000 0.06480  0.52360  0.37150  Biso   1.000  H
  C280     1.0000 0.11280  0.48510  0.37800  Biso   1.000  C
  H160     1.0000 0.10710  0.46890  0.35520  Biso   1.000  H
  Zn41     1.0000 0.02570  0.63752  0.19178  Biso   1.000  Zn
  Zn42     1.0000 0.98307  0.58404  0.36207  Biso   1.000  Zn
  P41      1.0000 0.02681  0.63841  0.29581  Biso   1.000  P
  P42      1.0000 0.94124  0.49524  0.36479  Biso   1.000  P
  O201     1.0000 0.17848  0.64483  0.41583  Biso   1.000  O
  O202     1.0000 0.11223  0.64344  0.43001  Biso   1.000  O
  O203     1.0000 0.02229  0.63893  0.25008  Biso   1.000  O
  O204     1.0000 0.00481  0.67393  0.31553  Biso   1.000  O
  O205     1.0000 0.01397  0.59745  0.31377  Biso   1.000  O
  O206     1.0000 0.06140  0.41460  0.29387  Biso   1.000  O
  O207     1.0000 0.07440  0.35820  0.32750  Biso   1.000  O
  O208     1.0000 0.97481  0.52677  0.35866  Biso   1.000  O
  O209     1.0000 0.91635  0.49114  0.32606  Biso   1.000  O
  O210     1.0000 0.91515  0.50428  0.40212  Biso   1.000  O
  C281     1.0000 0.14158  0.64503  0.40593  Biso   1.000  C
  C282     1.0000 0.13134  0.64670  0.36118  Biso   1.000  C
  C283     1.0000 0.09166  0.64307  0.34877  Biso   1.000  C
  H161     1.0000 0.07140  0.63960  0.36850  Biso   1.000  H
  C284     1.0000 0.08034  0.64440  0.30831  Biso   1.000  C
  C285     1.0000 0.11060  0.65140  0.27930  Biso   1.000  C
  H162     1.0000 0.10370  0.65380  0.25170  Biso   1.000  H
  C286     1.0000 0.15090  0.65490  0.29140  Biso   1.000  C
  H163     1.0000 0.17120  0.65870  0.27180  Biso   1.000  H
  C287     1.0000 0.16120  0.65270  0.33170  Biso   1.000  C
  H164     1.0000 0.18840  0.65530  0.33950  Biso   1.000  H
  C288     1.0000 0.05580  0.39110  0.32400  Biso   1.000  C
  C289     1.0000 0.02280  0.40180  0.35300  Biso   1.000  C
  C290     1.0000 0.00036  0.43692  0.34727  Biso   1.000  C
  H165     1.0000 0.00670  0.45400  0.32540  Biso   1.000  H
  C291     1.0000 0.96821  0.44768  0.37357  Biso   1.000  C
  C292     1.0000 0.96040  0.42230  0.40620  Biso   1.000  C
  H166     1.0000 0.93920  0.42870  0.42400  Biso   1.000  H
  C293     1.0000 0.98270  0.38820  0.41300  Biso   1.000  C
  H167     1.0000 0.97640  0.37150  0.43520  Biso   1.000  H
  C294     1.0000 0.01490  0.37800  0.38720  Biso   1.000  C
  H168     1.0000 0.03110  0.35520  0.39290  Biso   1.000  H
  Zn43     1.0000 0.02570  0.86248  0.30822  Biso   1.000  Zn
  Zn44     1.0000 0.98307  0.91596  0.13793  Biso   1.000  Zn
  P43      1.0000 0.02681  0.86159  0.20419  Biso   1.000  P
  P44      1.0000 0.94124  0.00476  0.13521  Biso   1.000  P
  O211     1.0000 0.17848  0.85517  0.08417  Biso   1.000  O
  O212     1.0000 0.11223  0.85656  0.06999  Biso   1.000  O
  O213     1.0000 0.02229  0.86107  0.24992  Biso   1.000  O
  O214     1.0000 0.00481  0.82607  0.18447  Biso   1.000  O
  O215     1.0000 0.01397  0.90255  0.18623  Biso   1.000  O
  O216     1.0000 0.06140  0.08540  0.20613  Biso   1.000  O
  O217     1.0000 0.07440  0.14180  0.17250  Biso   1.000  O
  O218     1.0000 0.97481  0.97323  0.14134  Biso   1.000  O
  O219     1.0000 0.91635  0.00886  0.17394  Biso   1.000  O
  O220     1.0000 0.91515  0.99572  0.09788  Biso   1.000  O
  C295     1.0000 0.14158  0.85497  0.09407  Biso   1.000  C
  C296     1.0000 0.13134  0.85330  0.13882  Biso   1.000  C
  C297     1.0000 0.09166  0.85693  0.15123  Biso   1.000  C
  H169     1.0000 0.07140  0.86040  0.13150  Biso   1.000  H
  C298     1.0000 0.08034  0.85560  0.19169  Biso   1.000  C
  C299     1.0000 0.11060  0.84860  0.22070  Biso   1.000  C
  H170     1.0000 0.10370  0.84620  0.24830  Biso   1.000  H
  C300     1.0000 0.15090  0.84510  0.20860  Biso   1.000  C
  H171     1.0000 0.17120  0.84130  0.22820  Biso   1.000  H
  C301     1.0000 0.16120  0.84730  0.16830  Biso   1.000  C
  H172     1.0000 0.18840  0.84470  0.16050  Biso   1.000  H
  C302     1.0000 0.05580  0.10890  0.17600  Biso   1.000  C
  C303     1.0000 0.02280  0.09820  0.14700  Biso   1.000  C
  C304     1.0000 0.00036  0.06308  0.15273  Biso   1.000  C
  H173     1.0000 0.00670  0.04600  0.17460  Biso   1.000  H
  C305     1.0000 0.96821  0.05232  0.12643  Biso   1.000  C
  C306     1.0000 0.96040  0.07770  0.09380  Biso   1.000  C
  H174     1.0000 0.93920  0.07130  0.07600  Biso   1.000  H
  C307     1.0000 0.98270  0.11180  0.08700  Biso   1.000  C
  H175     1.0000 0.97640  0.12850  0.06480  Biso   1.000  H
  C308     1.0000 0.01490  0.12200  0.11280  Biso   1.000  C
  H176     1.0000 0.03110  0.14480  0.10710  Biso   1.000  H
  Zn45     1.0000 0.47430  0.63752  0.30822  Biso   1.000  Zn
  Zn46     1.0000 0.51693  0.58404  0.13793  Biso   1.000  Zn
  P45      1.0000 0.47319  0.63841  0.20419  Biso   1.000  P
  P46      1.0000 0.55876  0.49524  0.13521  Biso   1.000  P
  O221     1.0000 0.32152  0.64483  0.08417  Biso   1.000  O
  O222     1.0000 0.38777  0.64344  0.06999  Biso   1.000  O
  O223     1.0000 0.47771  0.63893  0.24992  Biso   1.000  O
  O224     1.0000 0.49519  0.67393  0.18447  Biso   1.000  O
  O225     1.0000 0.48603  0.59745  0.18623  Biso   1.000  O
  O226     1.0000 0.43860  0.41460  0.20613  Biso   1.000  O
  O227     1.0000 0.42560  0.35820  0.17250  Biso   1.000  O
  O228     1.0000 0.52519  0.52677  0.14134  Biso   1.000  O
  O229     1.0000 0.58365  0.49114  0.17394  Biso   1.000  O
  O230     1.0000 0.58485  0.50428  0.09788  Biso   1.000  O
  C309     1.0000 0.35842  0.64503  0.09407  Biso   1.000  C
  C310     1.0000 0.36866  0.64670  0.13882  Biso   1.000  C
  C311     1.0000 0.40834  0.64307  0.15123  Biso   1.000  C
  H177     1.0000 0.42860  0.63960  0.13150  Biso   1.000  H
  C312     1.0000 0.41966  0.64440  0.19169  Biso   1.000  C
  C313     1.0000 0.38940  0.65140  0.22070  Biso   1.000  C
  H178     1.0000 0.39630  0.65380  0.24830  Biso   1.000  H
  C314     1.0000 0.34910  0.65490  0.20860  Biso   1.000  C
  H179     1.0000 0.32880  0.65870  0.22820  Biso   1.000  H
  C315     1.0000 0.33880  0.65270  0.16830  Biso   1.000  C
  H180     1.0000 0.31160  0.65530  0.16050  Biso   1.000  H
  C316     1.0000 0.44420  0.39110  0.17600  Biso   1.000  C
  C317     1.0000 0.47720  0.40180  0.14700  Biso   1.000  C
  C318     1.0000 0.49964  0.43692  0.15273  Biso   1.000  C
  H181     1.0000 0.49330  0.45400  0.17460  Biso   1.000  H
  C319     1.0000 0.53179  0.44768  0.12643  Biso   1.000  C
  C320     1.0000 0.53960  0.42230  0.09380  Biso   1.000  C
  H182     1.0000 0.56080  0.42870  0.07600  Biso   1.000  H
  C321     1.0000 0.51730  0.38820  0.08700  Biso   1.000  C
  H183     1.0000 0.52360  0.37150  0.06480  Biso   1.000  H
  C322     1.0000 0.48510  0.37800  0.11280  Biso   1.000  C
  H184     1.0000 0.46890  0.35520  0.10710  Biso   1.000  H
  Zn47     1.0000 0.47430  0.86248  0.19178  Biso   1.000  Zn
  Zn48     1.0000 0.51693  0.91596  0.36207  Biso   1.000  Zn
  P47      1.0000 0.47319  0.86159  0.29581  Biso   1.000  P
  P48      1.0000 0.55876  0.00476  0.36479  Biso   1.000  P
  O231     1.0000 0.32152  0.85517  0.41583  Biso   1.000  O
  O232     1.0000 0.38777  0.85656  0.43001  Biso   1.000  O
  O233     1.0000 0.47771  0.86107  0.25008  Biso   1.000  O
  O234     1.0000 0.49519  0.82607  0.31553  Biso   1.000  O
  O235     1.0000 0.48603  0.90255  0.31377  Biso   1.000  O
  O236     1.0000 0.43860  0.08540  0.29387  Biso   1.000  O
  O237     1.0000 0.42560  0.14180  0.32750  Biso   1.000  O
  O238     1.0000 0.52519  0.97323  0.35866  Biso   1.000  O
  O239     1.0000 0.58365  0.00886  0.32606  Biso   1.000  O
  O240     1.0000 0.58485  0.99572  0.40212  Biso   1.000  O
  C323     1.0000 0.35842  0.85497  0.40593  Biso   1.000  C
  C324     1.0000 0.36866  0.85330  0.36118  Biso   1.000  C
  C325     1.0000 0.40834  0.85693  0.34877  Biso   1.000  C
  H185     1.0000 0.42860  0.86040  0.36850  Biso   1.000  H
  C326     1.0000 0.41966  0.85560  0.30831  Biso   1.000  C
  C327     1.0000 0.38940  0.84860  0.27930  Biso   1.000  C
  H186     1.0000 0.39630  0.84620  0.25170  Biso   1.000  H
  C328     1.0000 0.34910  0.84510  0.29140  Biso   1.000  C
  H187     1.0000 0.32880  0.84130  0.27180  Biso   1.000  H
  C329     1.0000 0.33880  0.84730  0.33170  Biso   1.000  C
  H188     1.0000 0.31160  0.84470  0.33950  Biso   1.000  H
  C330     1.0000 0.44420  0.10890  0.32400  Biso   1.000  C
  C331     1.0000 0.47720  0.09820  0.35300  Biso   1.000  C
  C332     1.0000 0.49964  0.06308  0.34727  Biso   1.000  C
  H189     1.0000 0.49330  0.04600  0.32540  Biso   1.000  H
  C333     1.0000 0.53179  0.05232  0.37357  Biso   1.000  C
  C334     1.0000 0.53960  0.07770  0.40620  Biso   1.000  C
  H190     1.0000 0.56080  0.07130  0.42400  Biso   1.000  H
  C335     1.0000 0.51730  0.11180  0.41300  Biso   1.000  C
  H191     1.0000 0.52360  0.12850  0.43520  Biso   1.000  H
  C336     1.0000 0.48510  0.12200  0.38720  Biso   1.000  C
  H192     1.0000 0.46890  0.14480  0.39290  Biso   1.000  H
  Zn49     1.0000 0.69178  0.36248  0.97430  Biso   1.000  Zn
  Zn50     1.0000 0.86207  0.41596  0.01693  Biso   1.000  Zn
  P49      1.0000 0.79581  0.36159  0.97319  Biso   1.000  P
  P50      1.0000 0.86479  0.50476  0.05876  Biso   1.000  P
  O241     1.0000 0.91583  0.35517  0.82152  Biso   1.000  O
  O242     1.0000 0.93001  0.35656  0.88777  Biso   1.000  O
  O243     1.0000 0.75008  0.36107  0.97771  Biso   1.000  O
  O244     1.0000 0.81553  0.32607  0.99519  Biso   1.000  O
  O245     1.0000 0.81377  0.40255  0.98603  Biso   1.000  O
  O246     1.0000 0.79387  0.58540  0.93860  Biso   1.000  O
  O247     1.0000 0.82750  0.64180  0.92560  Biso   1.000  O
  O248     1.0000 0.85866  0.47323  0.02519  Biso   1.000  O
  O249     1.0000 0.82606  0.50886  0.08365  Biso   1.000  O
  O250     1.0000 0.90212  0.49572  0.08485  Biso   1.000  O
  C337     1.0000 0.90593  0.35497  0.85842  Biso   1.000  C
  C338     1.0000 0.86118  0.35330  0.86866  Biso   1.000  C
  C339     1.0000 0.84877  0.35693  0.90834  Biso   1.000  C
  H193     1.0000 0.86850  0.36040  0.92860  Biso   1.000  H
  C340     1.0000 0.80831  0.35560  0.91966  Biso   1.000  C
  C341     1.0000 0.77930  0.34860  0.88940  Biso   1.000  C
  H194     1.0000 0.75170  0.34620  0.89630  Biso   1.000  H
  C342     1.0000 0.79140  0.34510  0.84910  Biso   1.000  C
  H195     1.0000 0.77180  0.34130  0.82880  Biso   1.000  H
  C343     1.0000 0.83170  0.34730  0.83880  Biso   1.000  C
  H196     1.0000 0.83950  0.34470  0.81160  Biso   1.000  H
  C344     1.0000 0.82400  0.60890  0.94420  Biso   1.000  C
  C345     1.0000 0.85300  0.59820  0.97720  Biso   1.000  C
  C346     1.0000 0.84727  0.56308  0.99964  Biso   1.000  C
  H197     1.0000 0.82540  0.54600  0.99330  Biso   1.000  H
  C347     1.0000 0.87357  0.55232  0.03179  Biso   1.000  C
  C348     1.0000 0.90620  0.57770  0.03960  Biso   1.000  C
  H198     1.0000 0.92400  0.57130  0.06080  Biso   1.000  H
  C349     1.0000 0.91300  0.61180  0.01730  Biso   1.000  C
  H199     1.0000 0.93520  0.62850  0.02360  Biso   1.000  H
  C350     1.0000 0.88720  0.62200  0.98510  Biso   1.000  C
  H200     1.0000 0.89290  0.64480  0.96890  Biso   1.000  H
  Zn51     1.0000 0.80822  0.13752  0.97430  Biso   1.000  Zn
  Zn52     1.0000 0.63793  0.08404  0.01693  Biso   1.000  Zn
  P51      1.0000 0.70419  0.13841  0.97319  Biso   1.000  P
  P52      1.0000 0.63521  0.99524  0.05876  Biso   1.000  P
  O251     1.0000 0.58417  0.14483  0.82152  Biso   1.000  O
  O252     1.0000 0.56999  0.14344  0.88777  Biso   1.000  O
  O253     1.0000 0.74992  0.13893  0.97771  Biso   1.000  O
  O254     1.0000 0.68447  0.17393  0.99519  Biso   1.000  O
  O255     1.0000 0.68623  0.09745  0.98603  Biso   1.000  O
  O256     1.0000 0.70613  0.91460  0.93860  Biso   1.000  O
  O257     1.0000 0.67250  0.85820  0.92560  Biso   1.000  O
  O258     1.0000 0.64134  0.02677  0.02519  Biso   1.000  O
  O259     1.0000 0.67394  0.99114  0.08365  Biso   1.000  O
  O260     1.0000 0.59788  0.00428  0.08485  Biso   1.000  O
  C351     1.0000 0.59407  0.14503  0.85842  Biso   1.000  C
  C352     1.0000 0.63882  0.14670  0.86866  Biso   1.000  C
  C353     1.0000 0.65123  0.14307  0.90834  Biso   1.000  C
  H201     1.0000 0.63150  0.13960  0.92860  Biso   1.000  H
  C354     1.0000 0.69169  0.14440  0.91966  Biso   1.000  C
  C355     1.0000 0.72070  0.15140  0.88940  Biso   1.000  C
  H202     1.0000 0.74830  0.15380  0.89630  Biso   1.000  H
  C356     1.0000 0.70860  0.15490  0.84910  Biso   1.000  C
  H203     1.0000 0.72820  0.15870  0.82880  Biso   1.000  H
  C357     1.0000 0.66830  0.15270  0.83880  Biso   1.000  C
  H204     1.0000 0.66050  0.15530  0.81160  Biso   1.000  H
  C358     1.0000 0.67600  0.89110  0.94420  Biso   1.000  C
  C359     1.0000 0.64700  0.90180  0.97720  Biso   1.000  C
  C360     1.0000 0.65273  0.93692  0.99964  Biso   1.000  C
  H205     1.0000 0.67460  0.95400  0.99330  Biso   1.000  H
  C361     1.0000 0.62643  0.94768  0.03179  Biso   1.000  C
  C362     1.0000 0.59380  0.92230  0.03960  Biso   1.000  C
  H206     1.0000 0.57600  0.92870  0.06080  Biso   1.000  H
  C363     1.0000 0.58700  0.88820  0.01730  Biso   1.000  C
  H207     1.0000 0.56480  0.87150  0.02360  Biso   1.000  H
  C364     1.0000 0.61280  0.87800  0.98510  Biso   1.000  C
  H208     1.0000 0.60710  0.85520  0.96890  Biso   1.000  H
  Zn53     1.0000 0.80822  0.36248  0.52570  Biso   1.000  Zn
  Zn54     1.0000 0.63793  0.41596  0.48307  Biso   1.000  Zn
  P53      1.0000 0.70419  0.36159  0.52681  Biso   1.000  P
  P54      1.0000 0.63521  0.50476  0.44124  Biso   1.000  P
  O261     1.0000 0.58417  0.35517  0.67848  Biso   1.000  O
  O262     1.0000 0.56999  0.35656  0.61223  Biso   1.000  O
  O263     1.0000 0.74992  0.36107  0.52229  Biso   1.000  O
  O264     1.0000 0.68447  0.32607  0.50481  Biso   1.000  O
  O265     1.0000 0.68623  0.40255  0.51397  Biso   1.000  O
  O266     1.0000 0.70613  0.58540  0.56140  Biso   1.000  O
  O267     1.0000 0.67250  0.64180  0.57440  Biso   1.000  O
  O268     1.0000 0.64134  0.47323  0.47481  Biso   1.000  O
  O269     1.0000 0.67394  0.50886  0.41635  Biso   1.000  O
  O270     1.0000 0.59788  0.49572  0.41515  Biso   1.000  O
  C365     1.0000 0.59407  0.35497  0.64158  Biso   1.000  C
  C366     1.0000 0.63882  0.35330  0.63134  Biso   1.000  C
  C367     1.0000 0.65123  0.35693  0.59166  Biso   1.000  C
  H209     1.0000 0.63150  0.36040  0.57140  Biso   1.000  H
  C368     1.0000 0.69169  0.35560  0.58034  Biso   1.000  C
  C369     1.0000 0.72070  0.34860  0.61060  Biso   1.000  C
  H210     1.0000 0.74830  0.34620  0.60370  Biso   1.000  H
  C370     1.0000 0.70860  0.34510  0.65090  Biso   1.000  C
  H211     1.0000 0.72820  0.34130  0.67120  Biso   1.000  H
  C371     1.0000 0.66830  0.34730  0.66120  Biso   1.000  C
  H212     1.0000 0.66050  0.34470  0.68840  Biso   1.000  H
  C372     1.0000 0.67600  0.60890  0.55580  Biso   1.000  C
  C373     1.0000 0.64700  0.59820  0.52280  Biso   1.000  C
  C374     1.0000 0.65273  0.56308  0.50036  Biso   1.000  C
  H213     1.0000 0.67460  0.54600  0.50670  Biso   1.000  H
  C375     1.0000 0.62643  0.55232  0.46821  Biso   1.000  C
  C376     1.0000 0.59380  0.57770  0.46040  Biso   1.000  C
  H214     1.0000 0.57600  0.57130  0.43920  Biso   1.000  H
  C377     1.0000 0.58700  0.61180  0.48270  Biso   1.000  C
  H215     1.0000 0.56480  0.62850  0.47640  Biso   1.000  H
  C378     1.0000 0.61280  0.62200  0.51490  Biso   1.000  C
  H216     1.0000 0.60710  0.64480  0.53110  Biso   1.000  H
  Zn55     1.0000 0.69178  0.13752  0.52570  Biso   1.000  Zn
  Zn56     1.0000 0.86207  0.08404  0.48307  Biso   1.000  Zn
  P55      1.0000 0.79581  0.13841  0.52681  Biso   1.000  P
  P56      1.0000 0.86479  0.99524  0.44124  Biso   1.000  P
  O271     1.0000 0.91583  0.14483  0.67848  Biso   1.000  O
  O272     1.0000 0.93001  0.14344  0.61223  Biso   1.000  O
  O273     1.0000 0.75008  0.13893  0.52229  Biso   1.000  O
  O274     1.0000 0.81553  0.17393  0.50481  Biso   1.000  O
  O275     1.0000 0.81377  0.09745  0.51397  Biso   1.000  O
  O276     1.0000 0.79387  0.91460  0.56140  Biso   1.000  O
  O277     1.0000 0.82750  0.85820  0.57440  Biso   1.000  O
  O278     1.0000 0.85866  0.02677  0.47481  Biso   1.000  O
  O279     1.0000 0.82606  0.99114  0.41635  Biso   1.000  O
  O280     1.0000 0.90212  0.00428  0.41515  Biso   1.000  O
  C379     1.0000 0.90593  0.14503  0.64158  Biso   1.000  C
  C380     1.0000 0.86118  0.14670  0.63134  Biso   1.000  C
  C381     1.0000 0.84877  0.14307  0.59166  Biso   1.000  C
  H217     1.0000 0.86850  0.13960  0.57140  Biso   1.000  H
  C382     1.0000 0.80831  0.14440  0.58034  Biso   1.000  C
  C383     1.0000 0.77930  0.15140  0.61060  Biso   1.000  C
  H218     1.0000 0.75170  0.15380  0.60370  Biso   1.000  H
  C384     1.0000 0.79140  0.15490  0.65090  Biso   1.000  C
  H219     1.0000 0.77180  0.15870  0.67120  Biso   1.000  H
  C385     1.0000 0.83170  0.15270  0.66120  Biso   1.000  C
  H220     1.0000 0.83950  0.15530  0.68840  Biso   1.000  H
  C386     1.0000 0.82400  0.89110  0.55580  Biso   1.000  C
  C387     1.0000 0.85300  0.90180  0.52280  Biso   1.000  C
  C388     1.0000 0.84727  0.93692  0.50036  Biso   1.000  C
  H221     1.0000 0.82540  0.95400  0.50670  Biso   1.000  H
  C389     1.0000 0.87357  0.94768  0.46821  Biso   1.000  C
  C390     1.0000 0.90620  0.92230  0.46040  Biso   1.000  C
  H222     1.0000 0.92400  0.92870  0.43920  Biso   1.000  H
  C391     1.0000 0.91300  0.88820  0.48270  Biso   1.000  C
  H223     1.0000 0.93520  0.87150  0.47640  Biso   1.000  H
  C392     1.0000 0.88720  0.87800  0.51490  Biso   1.000  C
  H224     1.0000 0.89290  0.85520  0.53110  Biso   1.000  H
  Zn57     1.0000 0.97430  0.69178  0.36248  Biso   1.000  Zn
  Zn58     1.0000 0.01693  0.86207  0.41596  Biso   1.000  Zn
  P57      1.0000 0.97319  0.79581  0.36159  Biso   1.000  P
  P58      1.0000 0.05876  0.86479  0.50476  Biso   1.000  P
  O281     1.0000 0.82152  0.91583  0.35517  Biso   1.000  O
  O282     1.0000 0.88777  0.93001  0.35656  Biso   1.000  O
  O283     1.0000 0.97771  0.75008  0.36107  Biso   1.000  O
  O284     1.0000 0.99519  0.81553  0.32607  Biso   1.000  O
  O285     1.0000 0.98603  0.81377  0.40255  Biso   1.000  O
  O286     1.0000 0.93860  0.79387  0.58540  Biso   1.000  O
  O287     1.0000 0.92560  0.82750  0.64180  Biso   1.000  O
  O288     1.0000 0.02519  0.85866  0.47323  Biso   1.000  O
  O289     1.0000 0.08365  0.82606  0.50886  Biso   1.000  O
  O290     1.0000 0.08485  0.90212  0.49572  Biso   1.000  O
  C393     1.0000 0.85842  0.90593  0.35497  Biso   1.000  C
  C394     1.0000 0.86866  0.86118  0.35330  Biso   1.000  C
  C395     1.0000 0.90834  0.84877  0.35693  Biso   1.000  C
  H225     1.0000 0.92860  0.86850  0.36040  Biso   1.000  H
  C396     1.0000 0.91966  0.80831  0.35560  Biso   1.000  C
  C397     1.0000 0.88940  0.77930  0.34860  Biso   1.000  C
  H226     1.0000 0.89630  0.75170  0.34620  Biso   1.000  H
  C398     1.0000 0.84910  0.79140  0.34510  Biso   1.000  C
  H227     1.0000 0.82880  0.77180  0.34130  Biso   1.000  H
  C399     1.0000 0.83880  0.83170  0.34730  Biso   1.000  C
  H228     1.0000 0.81160  0.83950  0.34470  Biso   1.000  H
  C400     1.0000 0.94420  0.82400  0.60890  Biso   1.000  C
  C401     1.0000 0.97720  0.85300  0.59820  Biso   1.000  C
  C402     1.0000 0.99964  0.84727  0.56308  Biso   1.000  C
  H229     1.0000 0.99330  0.82540  0.54600  Biso   1.000  H
  C403     1.0000 0.03179  0.87357  0.55232  Biso   1.000  C
  C404     1.0000 0.03960  0.90620  0.57770  Biso   1.000  C
  H230     1.0000 0.06080  0.92400  0.57130  Biso   1.000  H
  C405     1.0000 0.01730  0.91300  0.61180  Biso   1.000  C
  H231     1.0000 0.02360  0.93520  0.62850  Biso   1.000  H
  C406     1.0000 0.98510  0.88720  0.62200  Biso   1.000  C
  H232     1.0000 0.96890  0.89290  0.64480  Biso   1.000  H
  Zn59     1.0000 0.97430  0.80822  0.13752  Biso   1.000  Zn
  Zn60     1.0000 0.01693  0.63793  0.08404  Biso   1.000  Zn
  P59      1.0000 0.97319  0.70419  0.13841  Biso   1.000  P
  P60      1.0000 0.05876  0.63521  0.99524  Biso   1.000  P
  O291     1.0000 0.82152  0.58417  0.14483  Biso   1.000  O
  O292     1.0000 0.88777  0.56999  0.14344  Biso   1.000  O
  O293     1.0000 0.97771  0.74992  0.13893  Biso   1.000  O
  O294     1.0000 0.99519  0.68447  0.17393  Biso   1.000  O
  O295     1.0000 0.98603  0.68623  0.09745  Biso   1.000  O
  O296     1.0000 0.93860  0.70613  0.91460  Biso   1.000  O
  O297     1.0000 0.92560  0.67250  0.85820  Biso   1.000  O
  O298     1.0000 0.02519  0.64134  0.02677  Biso   1.000  O
  O299     1.0000 0.08365  0.67394  0.99114  Biso   1.000  O
  O300     1.0000 0.08485  0.59788  0.00428  Biso   1.000  O
  C407     1.0000 0.85842  0.59407  0.14503  Biso   1.000  C
  C408     1.0000 0.86866  0.63882  0.14670  Biso   1.000  C
  C409     1.0000 0.90834  0.65123  0.14307  Biso   1.000  C
  H233     1.0000 0.92860  0.63150  0.13960  Biso   1.000  H
  C410     1.0000 0.91966  0.69169  0.14440  Biso   1.000  C
  C411     1.0000 0.88940  0.72070  0.15140  Biso   1.000  C
  H234     1.0000 0.89630  0.74830  0.15380  Biso   1.000  H
  C412     1.0000 0.84910  0.70860  0.15490  Biso   1.000  C
  H235     1.0000 0.82880  0.72820  0.15870  Biso   1.000  H
  C413     1.0000 0.83880  0.66830  0.15270  Biso   1.000  C
  H236     1.0000 0.81160  0.66050  0.15530  Biso   1.000  H
  C414     1.0000 0.94420  0.67600  0.89110  Biso   1.000  C
  C415     1.0000 0.97720  0.64700  0.90180  Biso   1.000  C
  C416     1.0000 0.99964  0.65273  0.93692  Biso   1.000  C
  H237     1.0000 0.99330  0.67460  0.95400  Biso   1.000  H
  C417     1.0000 0.03179  0.62643  0.94768  Biso   1.000  C
  C418     1.0000 0.03960  0.59380  0.92230  Biso   1.000  C
  H238     1.0000 0.06080  0.57600  0.92870  Biso   1.000  H
  C419     1.0000 0.01730  0.58700  0.88820  Biso   1.000  C
  H239     1.0000 0.02360  0.56480  0.87150  Biso   1.000  H
  C420     1.0000 0.98510  0.61280  0.87800  Biso   1.000  C
  H240     1.0000 0.96890  0.60710  0.85520  Biso   1.000  H
  Zn61     1.0000 0.52570  0.80822  0.36248  Biso   1.000  Zn
  Zn62     1.0000 0.48307  0.63793  0.41596  Biso   1.000  Zn
  P61      1.0000 0.52681  0.70419  0.36159  Biso   1.000  P
  P62      1.0000 0.44124  0.63521  0.50476  Biso   1.000  P
  O301     1.0000 0.67848  0.58417  0.35517  Biso   1.000  O
  O302     1.0000 0.61223  0.56999  0.35656  Biso   1.000  O
  O303     1.0000 0.52229  0.74992  0.36107  Biso   1.000  O
  O304     1.0000 0.50481  0.68447  0.32607  Biso   1.000  O
  O305     1.0000 0.51397  0.68623  0.40255  Biso   1.000  O
  O306     1.0000 0.56140  0.70613  0.58540  Biso   1.000  O
  O307     1.0000 0.57440  0.67250  0.64180  Biso   1.000  O
  O308     1.0000 0.47481  0.64134  0.47323  Biso   1.000  O
  O309     1.0000 0.41635  0.67394  0.50886  Biso   1.000  O
  O310     1.0000 0.41515  0.59788  0.49572  Biso   1.000  O
  C421     1.0000 0.64158  0.59407  0.35497  Biso   1.000  C
  C422     1.0000 0.63134  0.63882  0.35330  Biso   1.000  C
  C423     1.0000 0.59166  0.65123  0.35693  Biso   1.000  C
  H241     1.0000 0.57140  0.63150  0.36040  Biso   1.000  H
  C424     1.0000 0.58034  0.69169  0.35560  Biso   1.000  C
  C425     1.0000 0.61060  0.72070  0.34860  Biso   1.000  C
  H242     1.0000 0.60370  0.74830  0.34620  Biso   1.000  H
  C426     1.0000 0.65090  0.70860  0.34510  Biso   1.000  C
  H243     1.0000 0.67120  0.72820  0.34130  Biso   1.000  H
  C427     1.0000 0.66120  0.66830  0.34730  Biso   1.000  C
  H244     1.0000 0.68840  0.66050  0.34470  Biso   1.000  H
  C428     1.0000 0.55580  0.67600  0.60890  Biso   1.000  C
  C429     1.0000 0.52280  0.64700  0.59820  Biso   1.000  C
  C430     1.0000 0.50036  0.65273  0.56308  Biso   1.000  C
  H245     1.0000 0.50670  0.67460  0.54600  Biso   1.000  H
  C431     1.0000 0.46821  0.62643  0.55232  Biso   1.000  C
  C432     1.0000 0.46040  0.59380  0.57770  Biso   1.000  C
  H246     1.0000 0.43920  0.57600  0.57130  Biso   1.000  H
  C433     1.0000 0.48270  0.58700  0.61180  Biso   1.000  C
  H247     1.0000 0.47640  0.56480  0.62850  Biso   1.000  H
  C434     1.0000 0.51490  0.61280  0.62200  Biso   1.000  C
  H248     1.0000 0.53110  0.60710  0.64480  Biso   1.000  H
  Zn63     1.0000 0.52570  0.69178  0.13752  Biso   1.000  Zn
  Zn64     1.0000 0.48307  0.86207  0.08404  Biso   1.000  Zn
  P63      1.0000 0.52681  0.79581  0.13841  Biso   1.000  P
  P64      1.0000 0.44124  0.86479  0.99524  Biso   1.000  P
  O311     1.0000 0.67848  0.91583  0.14483  Biso   1.000  O
  O312     1.0000 0.61223  0.93001  0.14344  Biso   1.000  O
  O313     1.0000 0.52229  0.75008  0.13893  Biso   1.000  O
  O314     1.0000 0.50481  0.81553  0.17393  Biso   1.000  O
  O315     1.0000 0.51397  0.81377  0.09745  Biso   1.000  O
  O316     1.0000 0.56140  0.79387  0.91460  Biso   1.000  O
  O317     1.0000 0.57440  0.82750  0.85820  Biso   1.000  O
  O318     1.0000 0.47481  0.85866  0.02677  Biso   1.000  O
  O319     1.0000 0.41635  0.82606  0.99114  Biso   1.000  O
  O320     1.0000 0.41515  0.90212  0.00428  Biso   1.000  O
  C435     1.0000 0.64158  0.90593  0.14503  Biso   1.000  C
  C436     1.0000 0.63134  0.86118  0.14670  Biso   1.000  C
  C437     1.0000 0.59166  0.84877  0.14307  Biso   1.000  C
  H249     1.0000 0.57140  0.86850  0.13960  Biso   1.000  H
  C438     1.0000 0.58034  0.80831  0.14440  Biso   1.000  C
  C439     1.0000 0.61060  0.77930  0.15140  Biso   1.000  C
  H250     1.0000 0.60370  0.75170  0.15380  Biso   1.000  H
  C440     1.0000 0.65090  0.79140  0.15490  Biso   1.000  C
  H251     1.0000 0.67120  0.77180  0.15870  Biso   1.000  H
  C441     1.0000 0.66120  0.83170  0.15270  Biso   1.000  C
  H252     1.0000 0.68840  0.83950  0.15530  Biso   1.000  H
  C442     1.0000 0.55580  0.82400  0.89110  Biso   1.000  C
  C443     1.0000 0.52280  0.85300  0.90180  Biso   1.000  C
  C444     1.0000 0.50036  0.84727  0.93692  Biso   1.000  C
  H253     1.0000 0.50670  0.82540  0.95400  Biso   1.000  H
  C445     1.0000 0.46821  0.87357  0.94768  Biso   1.000  C
  C446     1.0000 0.46040  0.90620  0.92230  Biso   1.000  C
  H254     1.0000 0.43920  0.92400  0.92870  Biso   1.000  H
  C447     1.0000 0.48270  0.91300  0.88820  Biso   1.000  C
  H255     1.0000 0.47640  0.93520  0.87150  Biso   1.000  H
  C448     1.0000 0.51490  0.88720  0.87800  Biso   1.000  C
  H256     1.0000 0.53110  0.89290  0.85520  Biso   1.000  H
  Zn65     1.0000 0.36248  0.97430  0.69178  Biso   1.000  Zn
  Zn66     1.0000 0.41596  0.01693  0.86207  Biso   1.000  Zn
  P65      1.0000 0.36159  0.97319  0.79581  Biso   1.000  P
  P66      1.0000 0.50476  0.05876  0.86479  Biso   1.000  P
  O321     1.0000 0.35517  0.82152  0.91583  Biso   1.000  O
  O322     1.0000 0.35656  0.88777  0.93001  Biso   1.000  O
  O323     1.0000 0.36107  0.97771  0.75008  Biso   1.000  O
  O324     1.0000 0.32607  0.99519  0.81553  Biso   1.000  O
  O325     1.0000 0.40255  0.98603  0.81377  Biso   1.000  O
  O326     1.0000 0.58540  0.93860  0.79387  Biso   1.000  O
  O327     1.0000 0.64180  0.92560  0.82750  Biso   1.000  O
  O328     1.0000 0.47323  0.02519  0.85866  Biso   1.000  O
  O329     1.0000 0.50886  0.08365  0.82606  Biso   1.000  O
  O330     1.0000 0.49572  0.08485  0.90212  Biso   1.000  O
  C449     1.0000 0.35497  0.85842  0.90593  Biso   1.000  C
  C450     1.0000 0.35330  0.86866  0.86118  Biso   1.000  C
  C451     1.0000 0.35693  0.90834  0.84877  Biso   1.000  C
  H257     1.0000 0.36040  0.92860  0.86850  Biso   1.000  H
  C452     1.0000 0.35560  0.91966  0.80831  Biso   1.000  C
  C453     1.0000 0.34860  0.88940  0.77930  Biso   1.000  C
  H258     1.0000 0.34620  0.89630  0.75170  Biso   1.000  H
  C454     1.0000 0.34510  0.84910  0.79140  Biso   1.000  C
  H259     1.0000 0.34130  0.82880  0.77180  Biso   1.000  H
  C455     1.0000 0.34730  0.83880  0.83170  Biso   1.000  C
  H260     1.0000 0.34470  0.81160  0.83950  Biso   1.000  H
  C456     1.0000 0.60890  0.94420  0.82400  Biso   1.000  C
  C457     1.0000 0.59820  0.97720  0.85300  Biso   1.000  C
  C458     1.0000 0.56308  0.99964  0.84727  Biso   1.000  C
  H261     1.0000 0.54600  0.99330  0.82540  Biso   1.000  H
  C459     1.0000 0.55232  0.03179  0.87357  Biso   1.000  C
  C460     1.0000 0.57770  0.03960  0.90620  Biso   1.000  C
  H262     1.0000 0.57130  0.06080  0.92400  Biso   1.000  H
  C461     1.0000 0.61180  0.01730  0.91300  Biso   1.000  C
  H263     1.0000 0.62850  0.02360  0.93520  Biso   1.000  H
  C462     1.0000 0.62200  0.98510  0.88720  Biso   1.000  C
  H264     1.0000 0.64480  0.96890  0.89290  Biso   1.000  H
  Zn67     1.0000 0.13752  0.97430  0.80822  Biso   1.000  Zn
  Zn68     1.0000 0.08404  0.01693  0.63793  Biso   1.000  Zn
  P67      1.0000 0.13841  0.97319  0.70419  Biso   1.000  P
  P68      1.0000 0.99524  0.05876  0.63521  Biso   1.000  P
  O331     1.0000 0.14483  0.82152  0.58417  Biso   1.000  O
  O332     1.0000 0.14344  0.88777  0.56999  Biso   1.000  O
  O333     1.0000 0.13893  0.97771  0.74992  Biso   1.000  O
  O334     1.0000 0.17393  0.99519  0.68447  Biso   1.000  O
  O335     1.0000 0.09745  0.98603  0.68623  Biso   1.000  O
  O336     1.0000 0.91460  0.93860  0.70613  Biso   1.000  O
  O337     1.0000 0.85820  0.92560  0.67250  Biso   1.000  O
  O338     1.0000 0.02677  0.02519  0.64134  Biso   1.000  O
  O339     1.0000 0.99114  0.08365  0.67394  Biso   1.000  O
  O340     1.0000 0.00428  0.08485  0.59788  Biso   1.000  O
  C463     1.0000 0.14503  0.85842  0.59407  Biso   1.000  C
  C464     1.0000 0.14670  0.86866  0.63882  Biso   1.000  C
  C465     1.0000 0.14307  0.90834  0.65123  Biso   1.000  C
  H265     1.0000 0.13960  0.92860  0.63150  Biso   1.000  H
  C466     1.0000 0.14440  0.91966  0.69169  Biso   1.000  C
  C467     1.0000 0.15140  0.88940  0.72070  Biso   1.000  C
  H266     1.0000 0.15380  0.89630  0.74830  Biso   1.000  H
  C468     1.0000 0.15490  0.84910  0.70860  Biso   1.000  C
  H267     1.0000 0.15870  0.82880  0.72820  Biso   1.000  H
  C469     1.0000 0.15270  0.83880  0.66830  Biso   1.000  C
  H268     1.0000 0.15530  0.81160  0.66050  Biso   1.000  H
  C470     1.0000 0.89110  0.94420  0.67600  Biso   1.000  C
  C471     1.0000 0.90180  0.97720  0.64700  Biso   1.000  C
  C472     1.0000 0.93692  0.99964  0.65273  Biso   1.000  C
  H269     1.0000 0.95400  0.99330  0.67460  Biso   1.000  H
  C473     1.0000 0.94768  0.03179  0.62643  Biso   1.000  C
  C474     1.0000 0.92230  0.03960  0.59380  Biso   1.000  C
  H270     1.0000 0.92870  0.06080  0.57600  Biso   1.000  H
  C475     1.0000 0.88820  0.01730  0.58700  Biso   1.000  C
  H271     1.0000 0.87150  0.02360  0.56480  Biso   1.000  H
  C476     1.0000 0.87800  0.98510  0.61280  Biso   1.000  C
  H272     1.0000 0.85520  0.96890  0.60710  Biso   1.000  H
  Zn69     1.0000 0.36248  0.52570  0.80822  Biso   1.000  Zn
  Zn70     1.0000 0.41596  0.48307  0.63793  Biso   1.000  Zn
  P69      1.0000 0.36159  0.52681  0.70419  Biso   1.000  P
  P70      1.0000 0.50476  0.44124  0.63521  Biso   1.000  P
  O341     1.0000 0.35517  0.67848  0.58417  Biso   1.000  O
  O342     1.0000 0.35656  0.61223  0.56999  Biso   1.000  O
  O343     1.0000 0.36107  0.52229  0.74992  Biso   1.000  O
  O344     1.0000 0.32607  0.50481  0.68447  Biso   1.000  O
  O345     1.0000 0.40255  0.51397  0.68623  Biso   1.000  O
  O346     1.0000 0.58540  0.56140  0.70613  Biso   1.000  O
  O347     1.0000 0.64180  0.57440  0.67250  Biso   1.000  O
  O348     1.0000 0.47323  0.47481  0.64134  Biso   1.000  O
  O349     1.0000 0.50886  0.41635  0.67394  Biso   1.000  O
  O350     1.0000 0.49572  0.41515  0.59788  Biso   1.000  O
  C477     1.0000 0.35497  0.64158  0.59407  Biso   1.000  C
  C478     1.0000 0.35330  0.63134  0.63882  Biso   1.000  C
  C479     1.0000 0.35693  0.59166  0.65123  Biso   1.000  C
  H273     1.0000 0.36040  0.57140  0.63150  Biso   1.000  H
  C480     1.0000 0.35560  0.58034  0.69169  Biso   1.000  C
  C481     1.0000 0.34860  0.61060  0.72070  Biso   1.000  C
  H274     1.0000 0.34620  0.60370  0.74830  Biso   1.000  H
  C482     1.0000 0.34510  0.65090  0.70860  Biso   1.000  C
  H275     1.0000 0.34130  0.67120  0.72820  Biso   1.000  H
  C483     1.0000 0.34730  0.66120  0.66830  Biso   1.000  C
  H276     1.0000 0.34470  0.68840  0.66050  Biso   1.000  H
  C484     1.0000 0.60890  0.55580  0.67600  Biso   1.000  C
  C485     1.0000 0.59820  0.52280  0.64700  Biso   1.000  C
  C486     1.0000 0.56308  0.50036  0.65273  Biso   1.000  C
  H277     1.0000 0.54600  0.50670  0.67460  Biso   1.000  H
  C487     1.0000 0.55232  0.46821  0.62643  Biso   1.000  C
  C488     1.0000 0.57770  0.46040  0.59380  Biso   1.000  C
  H278     1.0000 0.57130  0.43920  0.57600  Biso   1.000  H
  C489     1.0000 0.61180  0.48270  0.58700  Biso   1.000  C
  H279     1.0000 0.62850  0.47640  0.56480  Biso   1.000  H
  C490     1.0000 0.62200  0.51490  0.61280  Biso   1.000  C
  H280     1.0000 0.64480  0.53110  0.60710  Biso   1.000  H
  Zn71     1.0000 0.13752  0.52570  0.69178  Biso   1.000  Zn
  Zn72     1.0000 0.08404  0.48307  0.86207  Biso   1.000  Zn
  P71      1.0000 0.13841  0.52681  0.79581  Biso   1.000  P
  P72      1.0000 0.99524  0.44124  0.86479  Biso   1.000  P
  O351     1.0000 0.14483  0.67848  0.91583  Biso   1.000  O
  O352     1.0000 0.14344  0.61223  0.93001  Biso   1.000  O
  O353     1.0000 0.13893  0.52229  0.75008  Biso   1.000  O
  O354     1.0000 0.17393  0.50481  0.81553  Biso   1.000  O
  O355     1.0000 0.09745  0.51397  0.81377  Biso   1.000  O
  O356     1.0000 0.91460  0.56140  0.79387  Biso   1.000  O
  O357     1.0000 0.85820  0.57440  0.82750  Biso   1.000  O
  O358     1.0000 0.02677  0.47481  0.85866  Biso   1.000  O
  O359     1.0000 0.99114  0.41635  0.82606  Biso   1.000  O
  O360     1.0000 0.00428  0.41515  0.90212  Biso   1.000  O
  C491     1.0000 0.14503  0.64158  0.90593  Biso   1.000  C
  C492     1.0000 0.14670  0.63134  0.86118  Biso   1.000  C
  C493     1.0000 0.14307  0.59166  0.84877  Biso   1.000  C
  H281     1.0000 0.13960  0.57140  0.86850  Biso   1.000  H
  C494     1.0000 0.14440  0.58034  0.80831  Biso   1.000  C
  C495     1.0000 0.15140  0.61060  0.77930  Biso   1.000  C
  H282     1.0000 0.15380  0.60370  0.75170  Biso   1.000  H
  C496     1.0000 0.15490  0.65090  0.79140  Biso   1.000  C
  H283     1.0000 0.15870  0.67120  0.77180  Biso   1.000  H
  C497     1.0000 0.15270  0.66120  0.83170  Biso   1.000  C
  H284     1.0000 0.15530  0.68840  0.83950  Biso   1.000  H
  C498     1.0000 0.89110  0.55580  0.82400  Biso   1.000  C
  C499     1.0000 0.90180  0.52280  0.85300  Biso   1.000  C
  C500     1.0000 0.93692  0.50036  0.84727  Biso   1.000  C
  H285     1.0000 0.95400  0.50670  0.82540  Biso   1.000  H
  C501     1.0000 0.94768  0.46821  0.87357  Biso   1.000  C
  C502     1.0000 0.92230  0.46040  0.90620  Biso   1.000  C
  H286     1.0000 0.92870  0.43920  0.92400  Biso   1.000  H
  C503     1.0000 0.88820  0.48270  0.91300  Biso   1.000  C
  H287     1.0000 0.87150  0.47640  0.93520  Biso   1.000  H
  C504     1.0000 0.87800  0.51490  0.88720  Biso   1.000  C
  H288     1.0000 0.85520  0.53110  0.89290  Biso   1.000  H
  Zn73     1.0000 0.36248  0.69178  0.52570  Biso   1.000  Zn
  Zn74     1.0000 0.41596  0.86207  0.48307  Biso   1.000  Zn
  P73      1.0000 0.36159  0.79581  0.52681  Biso   1.000  P
  P74      1.0000 0.50476  0.86479  0.44124  Biso   1.000  P
  O361     1.0000 0.35517  0.91583  0.67848  Biso   1.000  O
  O362     1.0000 0.35656  0.93001  0.61223  Biso   1.000  O
  O363     1.0000 0.36107  0.75008  0.52229  Biso   1.000  O
  O364     1.0000 0.32607  0.81553  0.50481  Biso   1.000  O
  O365     1.0000 0.40255  0.81377  0.51397  Biso   1.000  O
  O366     1.0000 0.58540  0.79387  0.56140  Biso   1.000  O
  O367     1.0000 0.64180  0.82750  0.57440  Biso   1.000  O
  O368     1.0000 0.47323  0.85866  0.47481  Biso   1.000  O
  O369     1.0000 0.50886  0.82606  0.41635  Biso   1.000  O
  O370     1.0000 0.49572  0.90212  0.41515  Biso   1.000  O
  C505     1.0000 0.35497  0.90593  0.64158  Biso   1.000  C
  C506     1.0000 0.35330  0.86118  0.63134  Biso   1.000  C
  C507     1.0000 0.35693  0.84877  0.59166  Biso   1.000  C
  H289     1.0000 0.36040  0.86850  0.57140  Biso   1.000  H
  C508     1.0000 0.35560  0.80831  0.58034  Biso   1.000  C
  C509     1.0000 0.34860  0.77930  0.61060  Biso   1.000  C
  H290     1.0000 0.34620  0.75170  0.60370  Biso   1.000  H
  C510     1.0000 0.34510  0.79140  0.65090  Biso   1.000  C
  H291     1.0000 0.34130  0.77180  0.67120  Biso   1.000  H
  C511     1.0000 0.34730  0.83170  0.66120  Biso   1.000  C
  H292     1.0000 0.34470  0.83950  0.68840  Biso   1.000  H
  C512     1.0000 0.60890  0.82400  0.55580  Biso   1.000  C
  C513     1.0000 0.59820  0.85300  0.52280  Biso   1.000  C
  C514     1.0000 0.56308  0.84727  0.50036  Biso   1.000  C
  H293     1.0000 0.54600  0.82540  0.50670  Biso   1.000  H
  C515     1.0000 0.55232  0.87357  0.46821  Biso   1.000  C
  C516     1.0000 0.57770  0.90620  0.46040  Biso   1.000  C
  H294     1.0000 0.57130  0.92400  0.43920  Biso   1.000  H
  C517     1.0000 0.61180  0.91300  0.48270  Biso   1.000  C
  H295     1.0000 0.62850  0.93520  0.47640  Biso   1.000  H
  C518     1.0000 0.62200  0.88720  0.51490  Biso   1.000  C
  H296     1.0000 0.64480  0.89290  0.53110  Biso   1.000  H
  Zn75     1.0000 0.13752  0.80822  0.52570  Biso   1.000  Zn
  Zn76     1.0000 0.08404  0.63793  0.48307  Biso   1.000  Zn
  P75      1.0000 0.13841  0.70419  0.52681  Biso   1.000  P
  P76      1.0000 0.99524  0.63521  0.44124  Biso   1.000  P
  O371     1.0000 0.14483  0.58417  0.67848  Biso   1.000  O
  O372     1.0000 0.14344  0.56999  0.61223  Biso   1.000  O
  O373     1.0000 0.13893  0.74992  0.52229  Biso   1.000  O
  O374     1.0000 0.17393  0.68447  0.50481  Biso   1.000  O
  O375     1.0000 0.09745  0.68623  0.51397  Biso   1.000  O
  O376     1.0000 0.91460  0.70613  0.56140  Biso   1.000  O
  O377     1.0000 0.85820  0.67250  0.57440  Biso   1.000  O
  O378     1.0000 0.02677  0.64134  0.47481  Biso   1.000  O
  O379     1.0000 0.99114  0.67394  0.41635  Biso   1.000  O
  O380     1.0000 0.00428  0.59788  0.41515  Biso   1.000  O
  C519     1.0000 0.14503  0.59407  0.64158  Biso   1.000  C
  C520     1.0000 0.14670  0.63882  0.63134  Biso   1.000  C
  C521     1.0000 0.14307  0.65123  0.59166  Biso   1.000  C
  H297     1.0000 0.13960  0.63150  0.57140  Biso   1.000  H
  C522     1.0000 0.14440  0.69169  0.58034  Biso   1.000  C
  C523     1.0000 0.15140  0.72070  0.61060  Biso   1.000  C
  H298     1.0000 0.15380  0.74830  0.60370  Biso   1.000  H
  C524     1.0000 0.15490  0.70860  0.65090  Biso   1.000  C
  H299     1.0000 0.15870  0.72820  0.67120  Biso   1.000  H
  C525     1.0000 0.15270  0.66830  0.66120  Biso   1.000  C
  H300     1.0000 0.15530  0.66050  0.68840  Biso   1.000  H
  C526     1.0000 0.89110  0.67600  0.55580  Biso   1.000  C
  C527     1.0000 0.90180  0.64700  0.52280  Biso   1.000  C
  C528     1.0000 0.93692  0.65273  0.50036  Biso   1.000  C
  H301     1.0000 0.95400  0.67460  0.50670  Biso   1.000  H
  C529     1.0000 0.94768  0.62643  0.46821  Biso   1.000  C
  C530     1.0000 0.92230  0.59380  0.46040  Biso   1.000  C
  H302     1.0000 0.92870  0.57600  0.43920  Biso   1.000  H
  C531     1.0000 0.88820  0.58700  0.48270  Biso   1.000  C
  H303     1.0000 0.87150  0.56480  0.47640  Biso   1.000  H
  C532     1.0000 0.87800  0.61280  0.51490  Biso   1.000  C
  H304     1.0000 0.85520  0.60710  0.53110  Biso   1.000  H
  Zn77     1.0000 0.36248  0.80822  0.97430  Biso   1.000  Zn
  Zn78     1.0000 0.41596  0.63793  0.01693  Biso   1.000  Zn
  P77      1.0000 0.36159  0.70419  0.97319  Biso   1.000  P
  P78      1.0000 0.50476  0.63521  0.05876  Biso   1.000  P
  O381     1.0000 0.35517  0.58417  0.82152  Biso   1.000  O
  O382     1.0000 0.35656  0.56999  0.88777  Biso   1.000  O
  O383     1.0000 0.36107  0.74992  0.97771  Biso   1.000  O
  O384     1.0000 0.32607  0.68447  0.99519  Biso   1.000  O
  O385     1.0000 0.40255  0.68623  0.98603  Biso   1.000  O
  O386     1.0000 0.58540  0.70613  0.93860  Biso   1.000  O
  O387     1.0000 0.64180  0.67250  0.92560  Biso   1.000  O
  O388     1.0000 0.47323  0.64134  0.02519  Biso   1.000  O
  O389     1.0000 0.50886  0.67394  0.08365  Biso   1.000  O
  O390     1.0000 0.49572  0.59788  0.08485  Biso   1.000  O
  C533     1.0000 0.35497  0.59407  0.85842  Biso   1.000  C
  C534     1.0000 0.35330  0.63882  0.86866  Biso   1.000  C
  C535     1.0000 0.35693  0.65123  0.90834  Biso   1.000  C
  H305     1.0000 0.36040  0.63150  0.92860  Biso   1.000  H
  C536     1.0000 0.35560  0.69169  0.91966  Biso   1.000  C
  C537     1.0000 0.34860  0.72070  0.88940  Biso   1.000  C
  H306     1.0000 0.34620  0.74830  0.89630  Biso   1.000  H
  C538     1.0000 0.34510  0.70860  0.84910  Biso   1.000  C
  H307     1.0000 0.34130  0.72820  0.82880  Biso   1.000  H
  C539     1.0000 0.34730  0.66830  0.83880  Biso   1.000  C
  H308     1.0000 0.34470  0.66050  0.81160  Biso   1.000  H
  C540     1.0000 0.60890  0.67600  0.94420  Biso   1.000  C
  C541     1.0000 0.59820  0.64700  0.97720  Biso   1.000  C
  C542     1.0000 0.56308  0.65273  0.99964  Biso   1.000  C
  H309     1.0000 0.54600  0.67460  0.99330  Biso   1.000  H
  C543     1.0000 0.55232  0.62643  0.03179  Biso   1.000  C
  C544     1.0000 0.57770  0.59380  0.03960  Biso   1.000  C
  H310     1.0000 0.57130  0.57600  0.06080  Biso   1.000  H
  C545     1.0000 0.61180  0.58700  0.01730  Biso   1.000  C
  H311     1.0000 0.62850  0.56480  0.02360  Biso   1.000  H
  C546     1.0000 0.62200  0.61280  0.98510  Biso   1.000  C
  H312     1.0000 0.64480  0.60710  0.96890  Biso   1.000  H
  Zn79     1.0000 0.13752  0.69178  0.97430  Biso   1.000  Zn
  Zn80     1.0000 0.08404  0.86207  0.01693  Biso   1.000  Zn
  P79      1.0000 0.13841  0.79581  0.97319  Biso   1.000  P
  P80      1.0000 0.99524  0.86479  0.05876  Biso   1.000  P
  O391     1.0000 0.14483  0.91583  0.82152  Biso   1.000  O
  O392     1.0000 0.14344  0.93001  0.88777  Biso   1.000  O
  O393     1.0000 0.13893  0.75008  0.97771  Biso   1.000  O
  O394     1.0000 0.17393  0.81553  0.99519  Biso   1.000  O
  O395     1.0000 0.09745  0.81377  0.98603  Biso   1.000  O
  O396     1.0000 0.91460  0.79387  0.93860  Biso   1.000  O
  O397     1.0000 0.85820  0.82750  0.92560  Biso   1.000  O
  O398     1.0000 0.02677  0.85866  0.02519  Biso   1.000  O
  O399     1.0000 0.99114  0.82606  0.08365  Biso   1.000  O
  O400     1.0000 0.00428  0.90212  0.08485  Biso   1.000  O
  C547     1.0000 0.14503  0.90593  0.85842  Biso   1.000  C
  C548     1.0000 0.14670  0.86118  0.86866  Biso   1.000  C
  C549     1.0000 0.14307  0.84877  0.90834  Biso   1.000  C
  H313     1.0000 0.13960  0.86850  0.92860  Biso   1.000  H
  C550     1.0000 0.14440  0.80831  0.91966  Biso   1.000  C
  C551     1.0000 0.15140  0.77930  0.88940  Biso   1.000  C
  H314     1.0000 0.15380  0.75170  0.89630  Biso   1.000  H
  C552     1.0000 0.15490  0.79140  0.84910  Biso   1.000  C
  H315     1.0000 0.15870  0.77180  0.82880  Biso   1.000  H
  C553     1.0000 0.15270  0.83170  0.83880  Biso   1.000  C
  H316     1.0000 0.15530  0.83950  0.81160  Biso   1.000  H
  C554     1.0000 0.89110  0.82400  0.94420  Biso   1.000  C
  C555     1.0000 0.90180  0.85300  0.97720  Biso   1.000  C
  C556     1.0000 0.93692  0.84727  0.99964  Biso   1.000  C
  H317     1.0000 0.95400  0.82540  0.99330  Biso   1.000  H
  C557     1.0000 0.94768  0.87357  0.03179  Biso   1.000  C
  C558     1.0000 0.92230  0.90620  0.03960  Biso   1.000  C
  H318     1.0000 0.92870  0.92400  0.06080  Biso   1.000  H
  C559     1.0000 0.88820  0.91300  0.01730  Biso   1.000  C
  H319     1.0000 0.87150  0.93520  0.02360  Biso   1.000  H
  C560     1.0000 0.87800  0.88720  0.98510  Biso   1.000  C
  H320     1.0000 0.85520  0.89290  0.96890  Biso   1.000  H
  Zn81     1.0000 0.69178  0.97430  0.13752  Biso   1.000  Zn
  Zn82     1.0000 0.86207  0.01693  0.08404  Biso   1.000  Zn
  P81      1.0000 0.79581  0.97319  0.13841  Biso   1.000  P
  P82      1.0000 0.86479  0.05876  0.99524  Biso   1.000  P
  O401     1.0000 0.91583  0.82152  0.14483  Biso   1.000  O
  O402     1.0000 0.93001  0.88777  0.14344  Biso   1.000  O
  O403     1.0000 0.75008  0.97771  0.13893  Biso   1.000  O
  O404     1.0000 0.81553  0.99519  0.17393  Biso   1.000  O
  O405     1.0000 0.81377  0.98603  0.09745  Biso   1.000  O
  O406     1.0000 0.79387  0.93860  0.91460  Biso   1.000  O
  O407     1.0000 0.82750  0.92560  0.85820  Biso   1.000  O
  O408     1.0000 0.85866  0.02519  0.02677  Biso   1.000  O
  O409     1.0000 0.82606  0.08365  0.99114  Biso   1.000  O
  O410     1.0000 0.90212  0.08485  0.00428  Biso   1.000  O
  C561     1.0000 0.90593  0.85842  0.14503  Biso   1.000  C
  C562     1.0000 0.86118  0.86866  0.14670  Biso   1.000  C
  C563     1.0000 0.84877  0.90834  0.14307  Biso   1.000  C
  H321     1.0000 0.86850  0.92860  0.13960  Biso   1.000  H
  C564     1.0000 0.80831  0.91966  0.14440  Biso   1.000  C
  C565     1.0000 0.77930  0.88940  0.15140  Biso   1.000  C
  H322     1.0000 0.75170  0.89630  0.15380  Biso   1.000  H
  C566     1.0000 0.79140  0.84910  0.15490  Biso   1.000  C
  H323     1.0000 0.77180  0.82880  0.15870  Biso   1.000  H
  C567     1.0000 0.83170  0.83880  0.15270  Biso   1.000  C
  H324     1.0000 0.83950  0.81160  0.15530  Biso   1.000  H
  C568     1.0000 0.82400  0.94420  0.89110  Biso   1.000  C
  C569     1.0000 0.85300  0.97720  0.90180  Biso   1.000  C
  C570     1.0000 0.84727  0.99964  0.93692  Biso   1.000  C
  H325     1.0000 0.82540  0.99330  0.95400  Biso   1.000  H
  C571     1.0000 0.87357  0.03179  0.94768  Biso   1.000  C
  C572     1.0000 0.90620  0.03960  0.92230  Biso   1.000  C
  H326     1.0000 0.92400  0.06080  0.92870  Biso   1.000  H
  C573     1.0000 0.91300  0.01730  0.88820  Biso   1.000  C
  H327     1.0000 0.93520  0.02360  0.87150  Biso   1.000  H
  C574     1.0000 0.88720  0.98510  0.87800  Biso   1.000  C
  H328     1.0000 0.89290  0.96890  0.85520  Biso   1.000  H
  Zn83     1.0000 0.80822  0.97430  0.36248  Biso   1.000  Zn
  Zn84     1.0000 0.63793  0.01693  0.41596  Biso   1.000  Zn
  P83      1.0000 0.70419  0.97319  0.36159  Biso   1.000  P
  P84      1.0000 0.63521  0.05876  0.50476  Biso   1.000  P
  O411     1.0000 0.58417  0.82152  0.35517  Biso   1.000  O
  O412     1.0000 0.56999  0.88777  0.35656  Biso   1.000  O
  O413     1.0000 0.74992  0.97771  0.36107  Biso   1.000  O
  O414     1.0000 0.68447  0.99519  0.32607  Biso   1.000  O
  O415     1.0000 0.68623  0.98603  0.40255  Biso   1.000  O
  O416     1.0000 0.70613  0.93860  0.58540  Biso   1.000  O
  O417     1.0000 0.67250  0.92560  0.64180  Biso   1.000  O
  O418     1.0000 0.64134  0.02519  0.47323  Biso   1.000  O
  O419     1.0000 0.67394  0.08365  0.50886  Biso   1.000  O
  O420     1.0000 0.59788  0.08485  0.49572  Biso   1.000  O
  C575     1.0000 0.59407  0.85842  0.35497  Biso   1.000  C
  C576     1.0000 0.63882  0.86866  0.35330  Biso   1.000  C
  C577     1.0000 0.65123  0.90834  0.35693  Biso   1.000  C
  H329     1.0000 0.63150  0.92860  0.36040  Biso   1.000  H
  C578     1.0000 0.69169  0.91966  0.35560  Biso   1.000  C
  C579     1.0000 0.72070  0.88940  0.34860  Biso   1.000  C
  H330     1.0000 0.74830  0.89630  0.34620  Biso   1.000  H
  C580     1.0000 0.70860  0.84910  0.34510  Biso   1.000  C
  H331     1.0000 0.72820  0.82880  0.34130  Biso   1.000  H
  C581     1.0000 0.66830  0.83880  0.34730  Biso   1.000  C
  H332     1.0000 0.66050  0.81160  0.34470  Biso   1.000  H
  C582     1.0000 0.67600  0.94420  0.60890  Biso   1.000  C
  C583     1.0000 0.64700  0.97720  0.59820  Biso   1.000  C
  C584     1.0000 0.65273  0.99964  0.56308  Biso   1.000  C
  H333     1.0000 0.67460  0.99330  0.54600  Biso   1.000  H
  C585     1.0000 0.62643  0.03179  0.55232  Biso   1.000  C
  C586     1.0000 0.59380  0.03960  0.57770  Biso   1.000  C
  H334     1.0000 0.57600  0.06080  0.57130  Biso   1.000  H
  C587     1.0000 0.58700  0.01730  0.61180  Biso   1.000  C
  H335     1.0000 0.56480  0.02360  0.62850  Biso   1.000  H
  C588     1.0000 0.61280  0.98510  0.62200  Biso   1.000  C
  H336     1.0000 0.60710  0.96890  0.64480  Biso   1.000  H
  Zn85     1.0000 0.80822  0.52570  0.13752  Biso   1.000  Zn
  Zn86     1.0000 0.63793  0.48307  0.08404  Biso   1.000  Zn
  P85      1.0000 0.70419  0.52681  0.13841  Biso   1.000  P
  P86      1.0000 0.63521  0.44124  0.99524  Biso   1.000  P
  O421     1.0000 0.58417  0.67848  0.14483  Biso   1.000  O
  O422     1.0000 0.56999  0.61223  0.14344  Biso   1.000  O
  O423     1.0000 0.74992  0.52229  0.13893  Biso   1.000  O
  O424     1.0000 0.68447  0.50481  0.17393  Biso   1.000  O
  O425     1.0000 0.68623  0.51397  0.09745  Biso   1.000  O
  O426     1.0000 0.70613  0.56140  0.91460  Biso   1.000  O
  O427     1.0000 0.67250  0.57440  0.85820  Biso   1.000  O
  O428     1.0000 0.64134  0.47481  0.02677  Biso   1.000  O
  O429     1.0000 0.67394  0.41635  0.99114  Biso   1.000  O
  O430     1.0000 0.59788  0.41515  0.00428  Biso   1.000  O
  C589     1.0000 0.59407  0.64158  0.14503  Biso   1.000  C
  C590     1.0000 0.63882  0.63134  0.14670  Biso   1.000  C
  C591     1.0000 0.65123  0.59166  0.14307  Biso   1.000  C
  H337     1.0000 0.63150  0.57140  0.13960  Biso   1.000  H
  C592     1.0000 0.69169  0.58034  0.14440  Biso   1.000  C
  C593     1.0000 0.72070  0.61060  0.15140  Biso   1.000  C
  H338     1.0000 0.74830  0.60370  0.15380  Biso   1.000  H
  C594     1.0000 0.70860  0.65090  0.15490  Biso   1.000  C
  H339     1.0000 0.72820  0.67120  0.15870  Biso   1.000  H
  C595     1.0000 0.66830  0.66120  0.15270  Biso   1.000  C
  H340     1.0000 0.66050  0.68840  0.15530  Biso   1.000  H
  C596     1.0000 0.67600  0.55580  0.89110  Biso   1.000  C
  C597     1.0000 0.64700  0.52280  0.90180  Biso   1.000  C
  C598     1.0000 0.65273  0.50036  0.93692  Biso   1.000  C
  H341     1.0000 0.67460  0.50670  0.95400  Biso   1.000  H
  C599     1.0000 0.62643  0.46821  0.94768  Biso   1.000  C
  C600     1.0000 0.59380  0.46040  0.92230  Biso   1.000  C
  H342     1.0000 0.57600  0.43920  0.92870  Biso   1.000  H
  C601     1.0000 0.58700  0.48270  0.88820  Biso   1.000  C
  H343     1.0000 0.56480  0.47640  0.87150  Biso   1.000  H
  C602     1.0000 0.61280  0.51490  0.87800  Biso   1.000  C
  H344     1.0000 0.60710  0.53110  0.85520  Biso   1.000  H
  Zn87     1.0000 0.69178  0.52570  0.36248  Biso   1.000  Zn
  Zn88     1.0000 0.86207  0.48307  0.41596  Biso   1.000  Zn
  P87      1.0000 0.79581  0.52681  0.36159  Biso   1.000  P
  P88      1.0000 0.86479  0.44124  0.50476  Biso   1.000  P
  O431     1.0000 0.91583  0.67848  0.35517  Biso   1.000  O
  O432     1.0000 0.93001  0.61223  0.35656  Biso   1.000  O
  O433     1.0000 0.75008  0.52229  0.36107  Biso   1.000  O
  O434     1.0000 0.81553  0.50481  0.32607  Biso   1.000  O
  O435     1.0000 0.81377  0.51397  0.40255  Biso   1.000  O
  O436     1.0000 0.79387  0.56140  0.58540  Biso   1.000  O
  O437     1.0000 0.82750  0.57440  0.64180  Biso   1.000  O
  O438     1.0000 0.85866  0.47481  0.47323  Biso   1.000  O
  O439     1.0000 0.82606  0.41635  0.50886  Biso   1.000  O
  O440     1.0000 0.90212  0.41515  0.49572  Biso   1.000  O
  C603     1.0000 0.90593  0.64158  0.35497  Biso   1.000  C
  C604     1.0000 0.86118  0.63134  0.35330  Biso   1.000  C
  C605     1.0000 0.84877  0.59166  0.35693  Biso   1.000  C
  H345     1.0000 0.86850  0.57140  0.36040  Biso   1.000  H
  C606     1.0000 0.80831  0.58034  0.35560  Biso   1.000  C
  C607     1.0000 0.77930  0.61060  0.34860  Biso   1.000  C
  H346     1.0000 0.75170  0.60370  0.34620  Biso   1.000  H
  C608     1.0000 0.79140  0.65090  0.34510  Biso   1.000  C
  H347     1.0000 0.77180  0.67120  0.34130  Biso   1.000  H
  C609     1.0000 0.83170  0.66120  0.34730  Biso   1.000  C
  H348     1.0000 0.83950  0.68840  0.34470  Biso   1.000  H
  C610     1.0000 0.82400  0.55580  0.60890  Biso   1.000  C
  C611     1.0000 0.85300  0.52280  0.59820  Biso   1.000  C
  C612     1.0000 0.84727  0.50036  0.56308  Biso   1.000  C
  H349     1.0000 0.82540  0.50670  0.54600  Biso   1.000  H
  C613     1.0000 0.87357  0.46821  0.55232  Biso   1.000  C
  C614     1.0000 0.90620  0.46040  0.57770  Biso   1.000  C
  H350     1.0000 0.92400  0.43920  0.57130  Biso   1.000  H
  C615     1.0000 0.91300  0.48270  0.61180  Biso   1.000  C
  H351     1.0000 0.93520  0.47640  0.62850  Biso   1.000  H
  C616     1.0000 0.88720  0.51490  0.62200  Biso   1.000  C
  H352     1.0000 0.89290  0.53110  0.64480  Biso   1.000  H
  Zn89     1.0000 0.97430  0.36248  0.80822  Biso   1.000  Zn
  Zn90     1.0000 0.01693  0.41596  0.63793  Biso   1.000  Zn
  P89      1.0000 0.97319  0.36159  0.70419  Biso   1.000  P
  P90      1.0000 0.05876  0.50476  0.63521  Biso   1.000  P
  O441     1.0000 0.82152  0.35517  0.58417  Biso   1.000  O
  O442     1.0000 0.88777  0.35656  0.56999  Biso   1.000  O
  O443     1.0000 0.97771  0.36107  0.74992  Biso   1.000  O
  O444     1.0000 0.99519  0.32607  0.68447  Biso   1.000  O
  O445     1.0000 0.98603  0.40255  0.68623  Biso   1.000  O
  O446     1.0000 0.93860  0.58540  0.70613  Biso   1.000  O
  O447     1.0000 0.92560  0.64180  0.67250  Biso   1.000  O
  O448     1.0000 0.02519  0.47323  0.64134  Biso   1.000  O
  O449     1.0000 0.08365  0.50886  0.67394  Biso   1.000  O
  O450     1.0000 0.08485  0.49572  0.59788  Biso   1.000  O
  C617     1.0000 0.85842  0.35497  0.59407  Biso   1.000  C
  C618     1.0000 0.86866  0.35330  0.63882  Biso   1.000  C
  C619     1.0000 0.90834  0.35693  0.65123  Biso   1.000  C
  H353     1.0000 0.92860  0.36040  0.63150  Biso   1.000  H
  C620     1.0000 0.91966  0.35560  0.69169  Biso   1.000  C
  C621     1.0000 0.88940  0.34860  0.72070  Biso   1.000  C
  H354     1.0000 0.89630  0.34620  0.74830  Biso   1.000  H
  C622     1.0000 0.84910  0.34510  0.70860  Biso   1.000  C
  H355     1.0000 0.82880  0.34130  0.72820  Biso   1.000  H
  C623     1.0000 0.83880  0.34730  0.66830  Biso   1.000  C
  H356     1.0000 0.81160  0.34470  0.66050  Biso   1.000  H
  C624     1.0000 0.94420  0.60890  0.67600  Biso   1.000  C
  C625     1.0000 0.97720  0.59820  0.64700  Biso   1.000  C
  C626     1.0000 0.99964  0.56308  0.65273  Biso   1.000  C
  H357     1.0000 0.99330  0.54600  0.67460  Biso   1.000  H
  C627     1.0000 0.03179  0.55232  0.62643  Biso   1.000  C
  C628     1.0000 0.03960  0.57770  0.59380  Biso   1.000  C
  H358     1.0000 0.06080  0.57130  0.57600  Biso   1.000  H
  C629     1.0000 0.01730  0.61180  0.58700  Biso   1.000  C
  H359     1.0000 0.02360  0.62850  0.56480  Biso   1.000  H
  C630     1.0000 0.98510  0.62200  0.61280  Biso   1.000  C
  H360     1.0000 0.96890  0.64480  0.60710  Biso   1.000  H
  Zn91     1.0000 0.97430  0.13752  0.69178  Biso   1.000  Zn
  Zn92     1.0000 0.01693  0.08404  0.86207  Biso   1.000  Zn
  P91      1.0000 0.97319  0.13841  0.79581  Biso   1.000  P
  P92      1.0000 0.05876  0.99524  0.86479  Biso   1.000  P
  O451     1.0000 0.82152  0.14483  0.91583  Biso   1.000  O
  O452     1.0000 0.88777  0.14344  0.93001  Biso   1.000  O
  O453     1.0000 0.97771  0.13893  0.75008  Biso   1.000  O
  O454     1.0000 0.99519  0.17393  0.81553  Biso   1.000  O
  O455     1.0000 0.98603  0.09745  0.81377  Biso   1.000  O
  O456     1.0000 0.93860  0.91460  0.79387  Biso   1.000  O
  O457     1.0000 0.92560  0.85820  0.82750  Biso   1.000  O
  O458     1.0000 0.02519  0.02677  0.85866  Biso   1.000  O
  O459     1.0000 0.08365  0.99114  0.82606  Biso   1.000  O
  O460     1.0000 0.08485  0.00428  0.90212  Biso   1.000  O
  C631     1.0000 0.85842  0.14503  0.90593  Biso   1.000  C
  C632     1.0000 0.86866  0.14670  0.86118  Biso   1.000  C
  C633     1.0000 0.90834  0.14307  0.84877  Biso   1.000  C
  H361     1.0000 0.92860  0.13960  0.86850  Biso   1.000  H
  C634     1.0000 0.91966  0.14440  0.80831  Biso   1.000  C
  C635     1.0000 0.88940  0.15140  0.77930  Biso   1.000  C
  H362     1.0000 0.89630  0.15380  0.75170  Biso   1.000  H
  C636     1.0000 0.84910  0.15490  0.79140  Biso   1.000  C
  H363     1.0000 0.82880  0.15870  0.77180  Biso   1.000  H
  C637     1.0000 0.83880  0.15270  0.83170  Biso   1.000  C
  H364     1.0000 0.81160  0.15530  0.83950  Biso   1.000  H
  C638     1.0000 0.94420  0.89110  0.82400  Biso   1.000  C
  C639     1.0000 0.97720  0.90180  0.85300  Biso   1.000  C
  C640     1.0000 0.99964  0.93692  0.84727  Biso   1.000  C
  H365     1.0000 0.99330  0.95400  0.82540  Biso   1.000  H
  C641     1.0000 0.03179  0.94768  0.87357  Biso   1.000  C
  C642     1.0000 0.03960  0.92230  0.90620  Biso   1.000  C
  H366     1.0000 0.06080  0.92870  0.92400  Biso   1.000  H
  C643     1.0000 0.01730  0.88820  0.91300  Biso   1.000  C
  H367     1.0000 0.02360  0.87150  0.93520  Biso   1.000  H
  C644     1.0000 0.98510  0.87800  0.88720  Biso   1.000  C
  H368     1.0000 0.96890  0.85520  0.89290  Biso   1.000  H
  Zn93     1.0000 0.52570  0.36248  0.69178  Biso   1.000  Zn
  Zn94     1.0000 0.48307  0.41596  0.86207  Biso   1.000  Zn
  P93      1.0000 0.52681  0.36159  0.79581  Biso   1.000  P
  P94      1.0000 0.44124  0.50476  0.86479  Biso   1.000  P
  O461     1.0000 0.67848  0.35517  0.91583  Biso   1.000  O
  O462     1.0000 0.61223  0.35656  0.93001  Biso   1.000  O
  O463     1.0000 0.52229  0.36107  0.75008  Biso   1.000  O
  O464     1.0000 0.50481  0.32607  0.81553  Biso   1.000  O
  O465     1.0000 0.51397  0.40255  0.81377  Biso   1.000  O
  O466     1.0000 0.56140  0.58540  0.79387  Biso   1.000  O
  O467     1.0000 0.57440  0.64180  0.82750  Biso   1.000  O
  O468     1.0000 0.47481  0.47323  0.85866  Biso   1.000  O
  O469     1.0000 0.41635  0.50886  0.82606  Biso   1.000  O
  O470     1.0000 0.41515  0.49572  0.90212  Biso   1.000  O
  C645     1.0000 0.64158  0.35497  0.90593  Biso   1.000  C
  C646     1.0000 0.63134  0.35330  0.86118  Biso   1.000  C
  C647     1.0000 0.59166  0.35693  0.84877  Biso   1.000  C
  H369     1.0000 0.57140  0.36040  0.86850  Biso   1.000  H
  C648     1.0000 0.58034  0.35560  0.80831  Biso   1.000  C
  C649     1.0000 0.61060  0.34860  0.77930  Biso   1.000  C
  H370     1.0000 0.60370  0.34620  0.75170  Biso   1.000  H
  C650     1.0000 0.65090  0.34510  0.79140  Biso   1.000  C
  H371     1.0000 0.67120  0.34130  0.77180  Biso   1.000  H
  C651     1.0000 0.66120  0.34730  0.83170  Biso   1.000  C
  H372     1.0000 0.68840  0.34470  0.83950  Biso   1.000  H
  C652     1.0000 0.55580  0.60890  0.82400  Biso   1.000  C
  C653     1.0000 0.52280  0.59820  0.85300  Biso   1.000  C
  C654     1.0000 0.50036  0.56308  0.84727  Biso   1.000  C
  H373     1.0000 0.50670  0.54600  0.82540  Biso   1.000  H
  C655     1.0000 0.46821  0.55232  0.87357  Biso   1.000  C
  C656     1.0000 0.46040  0.57770  0.90620  Biso   1.000  C
  H374     1.0000 0.43920  0.57130  0.92400  Biso   1.000  H
  C657     1.0000 0.48270  0.61180  0.91300  Biso   1.000  C
  H375     1.0000 0.47640  0.62850  0.93520  Biso   1.000  H
  C658     1.0000 0.51490  0.62200  0.88720  Biso   1.000  C
  H376     1.0000 0.53110  0.64480  0.89290  Biso   1.000  H
  Zn95     1.0000 0.52570  0.13752  0.80822  Biso   1.000  Zn
  Zn96     1.0000 0.48307  0.08404  0.63793  Biso   1.000  Zn
  P95      1.0000 0.52681  0.13841  0.70419  Biso   1.000  P
  P96      1.0000 0.44124  0.99524  0.63521  Biso   1.000  P
  O471     1.0000 0.67848  0.14483  0.58417  Biso   1.000  O
  O472     1.0000 0.61223  0.14344  0.56999  Biso   1.000  O
  O473     1.0000 0.52229  0.13893  0.74992  Biso   1.000  O
  O474     1.0000 0.50481  0.17393  0.68447  Biso   1.000  O
  O475     1.0000 0.51397  0.09745  0.68623  Biso   1.000  O
  O476     1.0000 0.56140  0.91460  0.70613  Biso   1.000  O
  O477     1.0000 0.57440  0.85820  0.67250  Biso   1.000  O
  O478     1.0000 0.47481  0.02677  0.64134  Biso   1.000  O
  O479     1.0000 0.41635  0.99114  0.67394  Biso   1.000  O
  O480     1.0000 0.41515  0.00428  0.59788  Biso   1.000  O
  C659     1.0000 0.64158  0.14503  0.59407  Biso   1.000  C
  C660     1.0000 0.63134  0.14670  0.63882  Biso   1.000  C
  C661     1.0000 0.59166  0.14307  0.65123  Biso   1.000  C
  H377     1.0000 0.57140  0.13960  0.63150  Biso   1.000  H
  C662     1.0000 0.58034  0.14440  0.69169  Biso   1.000  C
  C663     1.0000 0.61060  0.15140  0.72070  Biso   1.000  C
  H378     1.0000 0.60370  0.15380  0.74830  Biso   1.000  H
  C664     1.0000 0.65090  0.15490  0.70860  Biso   1.000  C
  H379     1.0000 0.67120  0.15870  0.72820  Biso   1.000  H
  C665     1.0000 0.66120  0.15270  0.66830  Biso   1.000  C
  H380     1.0000 0.68840  0.15530  0.66050  Biso   1.000  H
  C666     1.0000 0.55580  0.89110  0.67600  Biso   1.000  C
  C667     1.0000 0.52280  0.90180  0.64700  Biso   1.000  C
  C668     1.0000 0.50036  0.93692  0.65273  Biso   1.000  C
  H381     1.0000 0.50670  0.95400  0.67460  Biso   1.000  H
  C669     1.0000 0.46821  0.94768  0.62643  Biso   1.000  C
  C670     1.0000 0.46040  0.92230  0.59380  Biso   1.000  C
  H382     1.0000 0.43920  0.92870  0.57600  Biso   1.000  H
  C671     1.0000 0.48270  0.88820  0.58700  Biso   1.000  C
  H383     1.0000 0.47640  0.87150  0.56480  Biso   1.000  H
  C672     1.0000 0.51490  0.87800  0.61280  Biso   1.000  C
  H384     1.0000 0.53110  0.85520  0.60710  Biso   1.000  H
  Zn97     1.0000 0.25000  0.40039  0.09961  Biso   1.000  Zn
  Zn98     1.0000 0.25000  0.09961  0.09961  Biso   1.000  Zn
  Zn99     1.0000 0.25000  0.40039  0.40039  Biso   1.000  Zn
  Zn100    1.0000 0.25000  0.09961  0.40039  Biso   1.000  Zn
  Zn101    1.0000 0.09961  0.25000  0.40039  Biso   1.000  Zn
  Zn102    1.0000 0.09961  0.25000  0.09961  Biso   1.000  Zn
  Zn103    1.0000 0.40039  0.25000  0.40039  Biso   1.000  Zn
  Zn104    1.0000 0.40039  0.25000  0.09961  Biso   1.000  Zn
  Zn105    1.0000 0.40039  0.09961  0.25000  Biso   1.000  Zn
  Zn106    1.0000 0.09961  0.09961  0.25000  Biso   1.000  Zn
  Zn107    1.0000 0.40039  0.40039  0.25000  Biso   1.000  Zn
  Zn108    1.0000 0.09961  0.40039  0.25000  Biso   1.000  Zn
  Zn109    1.0000 0.75000  0.59961  0.90039  Biso   1.000  Zn
  Zn110    1.0000 0.75000  0.90039  0.90039  Biso   1.000  Zn
  Zn111    1.0000 0.75000  0.59961  0.59961  Biso   1.000  Zn
  Zn112    1.0000 0.75000  0.90039  0.59961  Biso   1.000  Zn
  Zn113    1.0000 0.90039  0.75000  0.59961  Biso   1.000  Zn
  Zn114    1.0000 0.90039  0.75000  0.90039  Biso   1.000  Zn
  Zn115    1.0000 0.59961  0.75000  0.59961  Biso   1.000  Zn
  Zn116    1.0000 0.59961  0.75000  0.90039  Biso   1.000  Zn
  Zn117    1.0000 0.59961  0.90039  0.75000  Biso   1.000  Zn
  Zn118    1.0000 0.90039  0.90039  0.75000  Biso   1.000  Zn
  Zn119    1.0000 0.59961  0.59961  0.75000  Biso   1.000  Zn
  Zn120    1.0000 0.90039  0.59961  0.75000  Biso   1.000  Zn
