data_image0
_cell_length_a       14.8775
_cell_length_b       25.9261
_cell_length_c       36.3777
_cell_angle_alpha    90
_cell_angle_beta     90
_cell_angle_gamma    90

_symmetry_space_group_name_H-M    "P 1"
_symmetry_int_tables_number       1

loop_
  _symmetry_equiv_pos_as_xyz
  'x, y, z'

loop_
  _atom_site_label
  _atom_site_occupancy
  _atom_site_fract_x
  _atom_site_fract_y
  _atom_site_fract_z
  _atom_site_thermal_displace_type
  _atom_site_B_iso_or_equiv
  _atom_site_type_symbol
  Ag1      1.0000 0.68234  0.90864  0.40835  Biso   1.000  Ag
  O1       1.0000 0.89540  0.01058  0.43560  Biso   1.000  O
  O2       1.0000 0.84040  0.93118  0.43114  Biso   1.000  O
  C1       1.0000 0.85080  0.96630  0.49083  Biso   1.000  C
  C2       1.0000 0.80320  0.92510  0.50537  Biso   1.000  C
  H1       1.0000 0.78120  0.89950  0.48990  Biso   1.000  H
  C3       1.0000 0.86370  0.97000  0.44976  Biso   1.000  C
  C4       1.0000 0.78810  0.92190  0.54324  Biso   1.000  C
  C5       1.0000 0.73600  0.87800  0.55925  Biso   1.000  C
  C6       1.0000 0.82060  0.95990  0.56679  Biso   1.000  C
  H2       1.0000 0.81030  0.95780  0.59200  Biso   1.000  H
  C7       1.0000 0.86930  0.00130  0.55184  Biso   1.000  C
  O3       1.0000 0.71260  0.87654  0.59164  Biso   1.000  O
  O4       1.0000 0.71920  0.84150  0.53595  Biso   1.000  O
  C8       1.0000 0.90390  0.04380  0.57645  Biso   1.000  C
  C9       1.0000 0.88370  0.00400  0.51486  Biso   1.000  C
  H3       1.0000 0.91600  0.03170  0.50540  Biso   1.000  H
  O5       1.0000 0.89730  0.03793  0.61129  Biso   1.000  O
  O6       1.0000 0.93340  0.08387  0.56156  Biso   1.000  O
  H4       1.0000 0.69200  0.81400  0.54800  Biso   1.000  H
  Ag2      1.0000 0.68234  0.40864  0.90835  Biso   1.000  Ag
  O7       1.0000 0.89540  0.51058  0.93560  Biso   1.000  O
  O8       1.0000 0.84040  0.43118  0.93114  Biso   1.000  O
  C10      1.0000 0.85080  0.46630  0.99083  Biso   1.000  C
  C11      1.0000 0.80320  0.42510  0.00537  Biso   1.000  C
  H5       1.0000 0.78120  0.39950  0.98990  Biso   1.000  H
  C12      1.0000 0.86370  0.47000  0.94976  Biso   1.000  C
  C13      1.0000 0.78810  0.42190  0.04324  Biso   1.000  C
  C14      1.0000 0.73600  0.37800  0.05925  Biso   1.000  C
  C15      1.0000 0.82060  0.45990  0.06679  Biso   1.000  C
  H6       1.0000 0.81030  0.45780  0.09200  Biso   1.000  H
  C16      1.0000 0.86930  0.50130  0.05184  Biso   1.000  C
  O9       1.0000 0.71260  0.37654  0.09164  Biso   1.000  O
  O10      1.0000 0.71920  0.34150  0.03595  Biso   1.000  O
  C17      1.0000 0.90390  0.54380  0.07645  Biso   1.000  C
  C18      1.0000 0.88370  0.50400  0.01486  Biso   1.000  C
  H7       1.0000 0.91600  0.53170  0.00540  Biso   1.000  H
  O11      1.0000 0.89730  0.53793  0.11129  Biso   1.000  O
  O12      1.0000 0.93340  0.58387  0.06156  Biso   1.000  O
  H8       1.0000 0.69200  0.31400  0.04800  Biso   1.000  H
  Ag3      1.0000 0.18234  0.90864  0.90835  Biso   1.000  Ag
  O13      1.0000 0.39540  0.01058  0.93560  Biso   1.000  O
  O14      1.0000 0.34040  0.93118  0.93114  Biso   1.000  O
  C19      1.0000 0.35080  0.96630  0.99083  Biso   1.000  C
  C20      1.0000 0.30320  0.92510  0.00537  Biso   1.000  C
  H9       1.0000 0.28120  0.89950  0.98990  Biso   1.000  H
  C21      1.0000 0.36370  0.97000  0.94976  Biso   1.000  C
  C22      1.0000 0.28810  0.92190  0.04324  Biso   1.000  C
  C23      1.0000 0.23600  0.87800  0.05925  Biso   1.000  C
  C24      1.0000 0.32060  0.95990  0.06679  Biso   1.000  C
  H10      1.0000 0.31030  0.95780  0.09200  Biso   1.000  H
  C25      1.0000 0.36930  0.00130  0.05184  Biso   1.000  C
  O15      1.0000 0.21260  0.87654  0.09164  Biso   1.000  O
  O16      1.0000 0.21920  0.84150  0.03595  Biso   1.000  O
  C26      1.0000 0.40390  0.04380  0.07645  Biso   1.000  C
  C27      1.0000 0.38370  0.00400  0.01486  Biso   1.000  C
  H11      1.0000 0.41600  0.03170  0.00540  Biso   1.000  H
  O17      1.0000 0.39730  0.03793  0.11129  Biso   1.000  O
  O18      1.0000 0.43340  0.08387  0.06156  Biso   1.000  O
  H12      1.0000 0.19200  0.81400  0.04800  Biso   1.000  H
  Ag4      1.0000 0.18234  0.40864  0.40835  Biso   1.000  Ag
  O19      1.0000 0.39540  0.51058  0.43560  Biso   1.000  O
  O20      1.0000 0.34040  0.43118  0.43114  Biso   1.000  O
  C28      1.0000 0.35080  0.46630  0.49083  Biso   1.000  C
  C29      1.0000 0.30320  0.42510  0.50537  Biso   1.000  C
  H13      1.0000 0.28120  0.39950  0.48990  Biso   1.000  H
  C30      1.0000 0.36370  0.47000  0.44976  Biso   1.000  C
  C31      1.0000 0.28810  0.42190  0.54324  Biso   1.000  C
  C32      1.0000 0.23600  0.37800  0.55925  Biso   1.000  C
  C33      1.0000 0.32060  0.45990  0.56679  Biso   1.000  C
  H14      1.0000 0.31030  0.45780  0.59200  Biso   1.000  H
  C34      1.0000 0.36930  0.50130  0.55184  Biso   1.000  C
  O21      1.0000 0.21260  0.37654  0.59164  Biso   1.000  O
  O22      1.0000 0.21920  0.34150  0.53595  Biso   1.000  O
  C35      1.0000 0.40390  0.54380  0.57645  Biso   1.000  C
  C36      1.0000 0.38370  0.50400  0.51486  Biso   1.000  C
  H15      1.0000 0.41600  0.53170  0.50540  Biso   1.000  H
  O23      1.0000 0.39730  0.53793  0.61129  Biso   1.000  O
  O24      1.0000 0.43340  0.58387  0.56156  Biso   1.000  O
  H16      1.0000 0.19200  0.31400  0.54800  Biso   1.000  H
  Ag5      1.0000 0.06766  0.84136  0.40835  Biso   1.000  Ag
  O25      1.0000 0.85460  0.73942  0.43560  Biso   1.000  O
  O26      1.0000 0.90960  0.81882  0.43114  Biso   1.000  O
  C37      1.0000 0.89920  0.78370  0.49083  Biso   1.000  C
  C38      1.0000 0.94680  0.82490  0.50537  Biso   1.000  C
  H17      1.0000 0.96880  0.85050  0.48990  Biso   1.000  H
  C39      1.0000 0.88630  0.78000  0.44976  Biso   1.000  C
  C40      1.0000 0.96190  0.82810  0.54324  Biso   1.000  C
  C41      1.0000 0.01400  0.87200  0.55925  Biso   1.000  C
  C42      1.0000 0.92940  0.79010  0.56679  Biso   1.000  C
  H18      1.0000 0.93970  0.79220  0.59200  Biso   1.000  H
  C43      1.0000 0.88070  0.74870  0.55184  Biso   1.000  C
  O27      1.0000 0.03740  0.87346  0.59164  Biso   1.000  O
  O28      1.0000 0.03080  0.90850  0.53595  Biso   1.000  O
  C44      1.0000 0.84610  0.70620  0.57645  Biso   1.000  C
  C45      1.0000 0.86630  0.74600  0.51486  Biso   1.000  C
  H19      1.0000 0.83400  0.71830  0.50540  Biso   1.000  H
  O29      1.0000 0.85270  0.71207  0.61129  Biso   1.000  O
  O30      1.0000 0.81660  0.66613  0.56156  Biso   1.000  O
  H20      1.0000 0.05800  0.93600  0.54800  Biso   1.000  H
  Ag6      1.0000 0.06766  0.34136  0.90835  Biso   1.000  Ag
  O31      1.0000 0.85460  0.23942  0.93560  Biso   1.000  O
  O32      1.0000 0.90960  0.31882  0.93114  Biso   1.000  O
  C46      1.0000 0.89920  0.28370  0.99083  Biso   1.000  C
  C47      1.0000 0.94680  0.32490  0.00537  Biso   1.000  C
  H21      1.0000 0.96880  0.35050  0.98990  Biso   1.000  H
  C48      1.0000 0.88630  0.28000  0.94976  Biso   1.000  C
  C49      1.0000 0.96190  0.32810  0.04324  Biso   1.000  C
  C50      1.0000 0.01400  0.37200  0.05925  Biso   1.000  C
  C51      1.0000 0.92940  0.29010  0.06679  Biso   1.000  C
  H22      1.0000 0.93970  0.29220  0.09200  Biso   1.000  H
  C52      1.0000 0.88070  0.24870  0.05184  Biso   1.000  C
  O33      1.0000 0.03740  0.37346  0.09164  Biso   1.000  O
  O34      1.0000 0.03080  0.40850  0.03595  Biso   1.000  O
  C53      1.0000 0.84610  0.20620  0.07645  Biso   1.000  C
  C54      1.0000 0.86630  0.24600  0.01486  Biso   1.000  C
  H23      1.0000 0.83400  0.21830  0.00540  Biso   1.000  H
  O35      1.0000 0.85270  0.21207  0.11129  Biso   1.000  O
  O36      1.0000 0.81660  0.16613  0.06156  Biso   1.000  O
  H24      1.0000 0.05800  0.43600  0.04800  Biso   1.000  H
  Ag7      1.0000 0.56766  0.84136  0.90835  Biso   1.000  Ag
  O37      1.0000 0.35460  0.73942  0.93560  Biso   1.000  O
  O38      1.0000 0.40960  0.81882  0.93114  Biso   1.000  O
  C55      1.0000 0.39920  0.78370  0.99083  Biso   1.000  C
  C56      1.0000 0.44680  0.82490  0.00537  Biso   1.000  C
  H25      1.0000 0.46880  0.85050  0.98990  Biso   1.000  H
  C57      1.0000 0.38630  0.78000  0.94976  Biso   1.000  C
  C58      1.0000 0.46190  0.82810  0.04324  Biso   1.000  C
  C59      1.0000 0.51400  0.87200  0.05925  Biso   1.000  C
  C60      1.0000 0.42940  0.79010  0.06679  Biso   1.000  C
  H26      1.0000 0.43970  0.79220  0.09200  Biso   1.000  H
  C61      1.0000 0.38070  0.74870  0.05184  Biso   1.000  C
  O39      1.0000 0.53740  0.87346  0.09164  Biso   1.000  O
  O40      1.0000 0.53080  0.90850  0.03595  Biso   1.000  O
  C62      1.0000 0.34610  0.70620  0.07645  Biso   1.000  C
  C63      1.0000 0.36630  0.74600  0.01486  Biso   1.000  C
  H27      1.0000 0.33400  0.71830  0.00540  Biso   1.000  H
  O41      1.0000 0.35270  0.71207  0.11129  Biso   1.000  O
  O42      1.0000 0.31660  0.66613  0.06156  Biso   1.000  O
  H28      1.0000 0.55800  0.93600  0.04800  Biso   1.000  H
  Ag8      1.0000 0.56766  0.34136  0.40835  Biso   1.000  Ag
  O43      1.0000 0.35460  0.23942  0.43560  Biso   1.000  O
  O44      1.0000 0.40960  0.31882  0.43114  Biso   1.000  O
  C64      1.0000 0.39920  0.28370  0.49083  Biso   1.000  C
  C65      1.0000 0.44680  0.32490  0.50537  Biso   1.000  C
  H29      1.0000 0.46880  0.35050  0.48990  Biso   1.000  H
  C66      1.0000 0.38630  0.28000  0.44976  Biso   1.000  C
  C67      1.0000 0.46190  0.32810  0.54324  Biso   1.000  C
  C68      1.0000 0.51400  0.37200  0.55925  Biso   1.000  C
  C69      1.0000 0.42940  0.29010  0.56679  Biso   1.000  C
  H30      1.0000 0.43970  0.29220  0.59200  Biso   1.000  H
  C70      1.0000 0.38070  0.24870  0.55184  Biso   1.000  C
  O45      1.0000 0.53740  0.37346  0.59164  Biso   1.000  O
  O46      1.0000 0.53080  0.40850  0.53595  Biso   1.000  O
  C71      1.0000 0.34610  0.20620  0.57645  Biso   1.000  C
  C72      1.0000 0.36630  0.24600  0.51486  Biso   1.000  C
  H31      1.0000 0.33400  0.21830  0.50540  Biso   1.000  H
  O47      1.0000 0.35270  0.21207  0.61129  Biso   1.000  O
  O48      1.0000 0.31660  0.16613  0.56156  Biso   1.000  O
  H32      1.0000 0.55800  0.43600  0.54800  Biso   1.000  H
  Ag9      1.0000 0.06766  0.90864  0.34165  Biso   1.000  Ag
  O49      1.0000 0.85460  0.01058  0.31440  Biso   1.000  O
  O50      1.0000 0.90960  0.93118  0.31886  Biso   1.000  O
  C73      1.0000 0.89920  0.96630  0.25917  Biso   1.000  C
  C74      1.0000 0.94680  0.92510  0.24463  Biso   1.000  C
  H33      1.0000 0.96880  0.89950  0.26010  Biso   1.000  H
  C75      1.0000 0.88630  0.97000  0.30024  Biso   1.000  C
  C76      1.0000 0.96190  0.92190  0.20676  Biso   1.000  C
  C77      1.0000 0.01400  0.87800  0.19075  Biso   1.000  C
  C78      1.0000 0.92940  0.95990  0.18321  Biso   1.000  C
  H34      1.0000 0.93970  0.95780  0.15800  Biso   1.000  H
  C79      1.0000 0.88070  0.00130  0.19816  Biso   1.000  C
  O51      1.0000 0.03740  0.87654  0.15836  Biso   1.000  O
  O52      1.0000 0.03080  0.84150  0.21405  Biso   1.000  O
  C80      1.0000 0.84610  0.04380  0.17355  Biso   1.000  C
  C81      1.0000 0.86630  0.00400  0.23514  Biso   1.000  C
  H35      1.0000 0.83400  0.03170  0.24460  Biso   1.000  H
  O53      1.0000 0.85270  0.03793  0.13871  Biso   1.000  O
  O54      1.0000 0.81660  0.08387  0.18844  Biso   1.000  O
  H36      1.0000 0.05800  0.81400  0.20200  Biso   1.000  H
  Ag10     1.0000 0.06766  0.40864  0.84165  Biso   1.000  Ag
  O55      1.0000 0.85460  0.51058  0.81440  Biso   1.000  O
  O56      1.0000 0.90960  0.43118  0.81886  Biso   1.000  O
  C82      1.0000 0.89920  0.46630  0.75917  Biso   1.000  C
  C83      1.0000 0.94680  0.42510  0.74463  Biso   1.000  C
  H37      1.0000 0.96880  0.39950  0.76010  Biso   1.000  H
  C84      1.0000 0.88630  0.47000  0.80024  Biso   1.000  C
  C85      1.0000 0.96190  0.42190  0.70676  Biso   1.000  C
  C86      1.0000 0.01400  0.37800  0.69075  Biso   1.000  C
  C87      1.0000 0.92940  0.45990  0.68321  Biso   1.000  C
  H38      1.0000 0.93970  0.45780  0.65800  Biso   1.000  H
  C88      1.0000 0.88070  0.50130  0.69816  Biso   1.000  C
  O57      1.0000 0.03740  0.37654  0.65836  Biso   1.000  O
  O58      1.0000 0.03080  0.34150  0.71405  Biso   1.000  O
  C89      1.0000 0.84610  0.54380  0.67355  Biso   1.000  C
  C90      1.0000 0.86630  0.50400  0.73514  Biso   1.000  C
  H39      1.0000 0.83400  0.53170  0.74460  Biso   1.000  H
  O59      1.0000 0.85270  0.53793  0.63871  Biso   1.000  O
  O60      1.0000 0.81660  0.58387  0.68844  Biso   1.000  O
  H40      1.0000 0.05800  0.31400  0.70200  Biso   1.000  H
  Ag11     1.0000 0.56766  0.90864  0.84165  Biso   1.000  Ag
  O61      1.0000 0.35460  0.01058  0.81440  Biso   1.000  O
  O62      1.0000 0.40960  0.93118  0.81886  Biso   1.000  O
  C91      1.0000 0.39920  0.96630  0.75917  Biso   1.000  C
  C92      1.0000 0.44680  0.92510  0.74463  Biso   1.000  C
  H41      1.0000 0.46880  0.89950  0.76010  Biso   1.000  H
  C93      1.0000 0.38630  0.97000  0.80024  Biso   1.000  C
  C94      1.0000 0.46190  0.92190  0.70676  Biso   1.000  C
  C95      1.0000 0.51400  0.87800  0.69075  Biso   1.000  C
  C96      1.0000 0.42940  0.95990  0.68321  Biso   1.000  C
  H42      1.0000 0.43970  0.95780  0.65800  Biso   1.000  H
  C97      1.0000 0.38070  0.00130  0.69816  Biso   1.000  C
  O63      1.0000 0.53740  0.87654  0.65836  Biso   1.000  O
  O64      1.0000 0.53080  0.84150  0.71405  Biso   1.000  O
  C98      1.0000 0.34610  0.04380  0.67355  Biso   1.000  C
  C99      1.0000 0.36630  0.00400  0.73514  Biso   1.000  C
  H43      1.0000 0.33400  0.03170  0.74460  Biso   1.000  H
  O65      1.0000 0.35270  0.03793  0.63871  Biso   1.000  O
  O66      1.0000 0.31660  0.08387  0.68844  Biso   1.000  O
  H44      1.0000 0.55800  0.81400  0.70200  Biso   1.000  H
  Ag12     1.0000 0.56766  0.40864  0.34165  Biso   1.000  Ag
  O67      1.0000 0.35460  0.51058  0.31440  Biso   1.000  O
  O68      1.0000 0.40960  0.43118  0.31886  Biso   1.000  O
  C100     1.0000 0.39920  0.46630  0.25917  Biso   1.000  C
  C101     1.0000 0.44680  0.42510  0.24463  Biso   1.000  C
  H45      1.0000 0.46880  0.39950  0.26010  Biso   1.000  H
  C102     1.0000 0.38630  0.47000  0.30024  Biso   1.000  C
  C103     1.0000 0.46190  0.42190  0.20676  Biso   1.000  C
  C104     1.0000 0.51400  0.37800  0.19075  Biso   1.000  C
  C105     1.0000 0.42940  0.45990  0.18321  Biso   1.000  C
  H46      1.0000 0.43970  0.45780  0.15800  Biso   1.000  H
  C106     1.0000 0.38070  0.50130  0.19816  Biso   1.000  C
  O69      1.0000 0.53740  0.37654  0.15836  Biso   1.000  O
  O70      1.0000 0.53080  0.34150  0.21405  Biso   1.000  O
  C107     1.0000 0.34610  0.54380  0.17355  Biso   1.000  C
  C108     1.0000 0.36630  0.50400  0.23514  Biso   1.000  C
  H47      1.0000 0.33400  0.53170  0.24460  Biso   1.000  H
  O71      1.0000 0.35270  0.53793  0.13871  Biso   1.000  O
  O72      1.0000 0.31660  0.58387  0.18844  Biso   1.000  O
  H48      1.0000 0.55800  0.31400  0.20200  Biso   1.000  H
  Ag13     1.0000 0.68234  0.84136  0.34165  Biso   1.000  Ag
  O73      1.0000 0.89540  0.73942  0.31440  Biso   1.000  O
  O74      1.0000 0.84040  0.81882  0.31886  Biso   1.000  O
  C109     1.0000 0.85080  0.78370  0.25917  Biso   1.000  C
  C110     1.0000 0.80320  0.82490  0.24463  Biso   1.000  C
  H49      1.0000 0.78120  0.85050  0.26010  Biso   1.000  H
  C111     1.0000 0.86370  0.78000  0.30024  Biso   1.000  C
  C112     1.0000 0.78810  0.82810  0.20676  Biso   1.000  C
  C113     1.0000 0.73600  0.87200  0.19075  Biso   1.000  C
  C114     1.0000 0.82060  0.79010  0.18321  Biso   1.000  C
  H50      1.0000 0.81030  0.79220  0.15800  Biso   1.000  H
  C115     1.0000 0.86930  0.74870  0.19816  Biso   1.000  C
  O75      1.0000 0.71260  0.87346  0.15836  Biso   1.000  O
  O76      1.0000 0.71920  0.90850  0.21405  Biso   1.000  O
  C116     1.0000 0.90390  0.70620  0.17355  Biso   1.000  C
  C117     1.0000 0.88370  0.74600  0.23514  Biso   1.000  C
  H51      1.0000 0.91600  0.71830  0.24460  Biso   1.000  H
  O77      1.0000 0.89730  0.71207  0.13871  Biso   1.000  O
  O78      1.0000 0.93340  0.66613  0.18844  Biso   1.000  O
  H52      1.0000 0.69200  0.93600  0.20200  Biso   1.000  H
  Ag14     1.0000 0.68234  0.34136  0.84165  Biso   1.000  Ag
  O79      1.0000 0.89540  0.23942  0.81440  Biso   1.000  O
  O80      1.0000 0.84040  0.31882  0.81886  Biso   1.000  O
  C118     1.0000 0.85080  0.28370  0.75917  Biso   1.000  C
  C119     1.0000 0.80320  0.32490  0.74463  Biso   1.000  C
  H53      1.0000 0.78120  0.35050  0.76010  Biso   1.000  H
  C120     1.0000 0.86370  0.28000  0.80024  Biso   1.000  C
  C121     1.0000 0.78810  0.32810  0.70676  Biso   1.000  C
  C122     1.0000 0.73600  0.37200  0.69075  Biso   1.000  C
  C123     1.0000 0.82060  0.29010  0.68321  Biso   1.000  C
  H54      1.0000 0.81030  0.29220  0.65800  Biso   1.000  H
  C124     1.0000 0.86930  0.24870  0.69816  Biso   1.000  C
  O81      1.0000 0.71260  0.37346  0.65836  Biso   1.000  O
  O82      1.0000 0.71920  0.40850  0.71405  Biso   1.000  O
  C125     1.0000 0.90390  0.20620  0.67355  Biso   1.000  C
  C126     1.0000 0.88370  0.24600  0.73514  Biso   1.000  C
  H55      1.0000 0.91600  0.21830  0.74460  Biso   1.000  H
  O83      1.0000 0.89730  0.21207  0.63871  Biso   1.000  O
  O84      1.0000 0.93340  0.16613  0.68844  Biso   1.000  O
  H56      1.0000 0.69200  0.43600  0.70200  Biso   1.000  H
  Ag15     1.0000 0.18234  0.84136  0.84165  Biso   1.000  Ag
  O85      1.0000 0.39540  0.73942  0.81440  Biso   1.000  O
  O86      1.0000 0.34040  0.81882  0.81886  Biso   1.000  O
  C127     1.0000 0.35080  0.78370  0.75917  Biso   1.000  C
  C128     1.0000 0.30320  0.82490  0.74463  Biso   1.000  C
  H57      1.0000 0.28120  0.85050  0.76010  Biso   1.000  H
  C129     1.0000 0.36370  0.78000  0.80024  Biso   1.000  C
  C130     1.0000 0.28810  0.82810  0.70676  Biso   1.000  C
  C131     1.0000 0.23600  0.87200  0.69075  Biso   1.000  C
  C132     1.0000 0.32060  0.79010  0.68321  Biso   1.000  C
  H58      1.0000 0.31030  0.79220  0.65800  Biso   1.000  H
  C133     1.0000 0.36930  0.74870  0.69816  Biso   1.000  C
  O87      1.0000 0.21260  0.87346  0.65836  Biso   1.000  O
  O88      1.0000 0.21920  0.90850  0.71405  Biso   1.000  O
  C134     1.0000 0.40390  0.70620  0.67355  Biso   1.000  C
  C135     1.0000 0.38370  0.74600  0.73514  Biso   1.000  C
  H59      1.0000 0.41600  0.71830  0.74460  Biso   1.000  H
  O89      1.0000 0.39730  0.71207  0.63871  Biso   1.000  O
  O90      1.0000 0.43340  0.66613  0.68844  Biso   1.000  O
  H60      1.0000 0.19200  0.93600  0.70200  Biso   1.000  H
  Ag16     1.0000 0.18234  0.34136  0.34165  Biso   1.000  Ag
  O91      1.0000 0.39540  0.23942  0.31440  Biso   1.000  O
  O92      1.0000 0.34040  0.31882  0.31886  Biso   1.000  O
  C136     1.0000 0.35080  0.28370  0.25917  Biso   1.000  C
  C137     1.0000 0.30320  0.32490  0.24463  Biso   1.000  C
  H61      1.0000 0.28120  0.35050  0.26010  Biso   1.000  H
  C138     1.0000 0.36370  0.28000  0.30024  Biso   1.000  C
  C139     1.0000 0.28810  0.32810  0.20676  Biso   1.000  C
  C140     1.0000 0.23600  0.37200  0.19075  Biso   1.000  C
  C141     1.0000 0.32060  0.29010  0.18321  Biso   1.000  C
  H62      1.0000 0.31030  0.29220  0.15800  Biso   1.000  H
  C142     1.0000 0.36930  0.24870  0.19816  Biso   1.000  C
  O93      1.0000 0.21260  0.37346  0.15836  Biso   1.000  O
  O94      1.0000 0.21920  0.40850  0.21405  Biso   1.000  O
  C143     1.0000 0.40390  0.20620  0.17355  Biso   1.000  C
  C144     1.0000 0.38370  0.24600  0.23514  Biso   1.000  C
  H63      1.0000 0.41600  0.21830  0.24460  Biso   1.000  H
  O95      1.0000 0.39730  0.21207  0.13871  Biso   1.000  O
  O96      1.0000 0.43340  0.16613  0.18844  Biso   1.000  O
  H64      1.0000 0.19200  0.43600  0.20200  Biso   1.000  H
  Ag17     1.0000 0.31766  0.09136  0.59165  Biso   1.000  Ag
  O97      1.0000 0.10460  0.98942  0.56440  Biso   1.000  O
  O98      1.0000 0.15960  0.06882  0.56886  Biso   1.000  O
  C145     1.0000 0.14920  0.03370  0.50917  Biso   1.000  C
  C146     1.0000 0.19680  0.07490  0.49463  Biso   1.000  C
  H65      1.0000 0.21880  0.10050  0.51010  Biso   1.000  H
  C147     1.0000 0.13630  0.03000  0.55024  Biso   1.000  C
  C148     1.0000 0.21190  0.07810  0.45676  Biso   1.000  C
  C149     1.0000 0.26400  0.12200  0.44075  Biso   1.000  C
  C150     1.0000 0.17940  0.04010  0.43321  Biso   1.000  C
  H66      1.0000 0.18970  0.04220  0.40800  Biso   1.000  H
  C151     1.0000 0.13070  0.99870  0.44816  Biso   1.000  C
  O99      1.0000 0.28740  0.12346  0.40836  Biso   1.000  O
  O100     1.0000 0.28080  0.15850  0.46405  Biso   1.000  O
  C152     1.0000 0.09610  0.95620  0.42355  Biso   1.000  C
  C153     1.0000 0.11630  0.99600  0.48514  Biso   1.000  C
  H67      1.0000 0.08400  0.96830  0.49460  Biso   1.000  H
  O101     1.0000 0.10270  0.96207  0.38871  Biso   1.000  O
  O102     1.0000 0.06660  0.91613  0.43844  Biso   1.000  O
  H68      1.0000 0.30800  0.18600  0.45200  Biso   1.000  H
  Ag18     1.0000 0.31766  0.59136  0.09165  Biso   1.000  Ag
  O103     1.0000 0.10460  0.48942  0.06440  Biso   1.000  O
  O104     1.0000 0.15960  0.56882  0.06886  Biso   1.000  O
  C154     1.0000 0.14920  0.53370  0.00917  Biso   1.000  C
  C155     1.0000 0.19680  0.57490  0.99463  Biso   1.000  C
  H69      1.0000 0.21880  0.60050  0.01010  Biso   1.000  H
  C156     1.0000 0.13630  0.53000  0.05024  Biso   1.000  C
  C157     1.0000 0.21190  0.57810  0.95676  Biso   1.000  C
  C158     1.0000 0.26400  0.62200  0.94075  Biso   1.000  C
  C159     1.0000 0.17940  0.54010  0.93321  Biso   1.000  C
  H70      1.0000 0.18970  0.54220  0.90800  Biso   1.000  H
  C160     1.0000 0.13070  0.49870  0.94816  Biso   1.000  C
  O105     1.0000 0.28740  0.62346  0.90836  Biso   1.000  O
  O106     1.0000 0.28080  0.65850  0.96405  Biso   1.000  O
  C161     1.0000 0.09610  0.45620  0.92355  Biso   1.000  C
  C162     1.0000 0.11630  0.49600  0.98514  Biso   1.000  C
  H71      1.0000 0.08400  0.46830  0.99460  Biso   1.000  H
  O107     1.0000 0.10270  0.46207  0.88871  Biso   1.000  O
  O108     1.0000 0.06660  0.41613  0.93844  Biso   1.000  O
  H72      1.0000 0.30800  0.68600  0.95200  Biso   1.000  H
  Ag19     1.0000 0.81766  0.09136  0.09165  Biso   1.000  Ag
  O109     1.0000 0.60460  0.98942  0.06440  Biso   1.000  O
  O110     1.0000 0.65960  0.06882  0.06886  Biso   1.000  O
  C163     1.0000 0.64920  0.03370  0.00917  Biso   1.000  C
  C164     1.0000 0.69680  0.07490  0.99463  Biso   1.000  C
  H73      1.0000 0.71880  0.10050  0.01010  Biso   1.000  H
  C165     1.0000 0.63630  0.03000  0.05024  Biso   1.000  C
  C166     1.0000 0.71190  0.07810  0.95676  Biso   1.000  C
  C167     1.0000 0.76400  0.12200  0.94075  Biso   1.000  C
  C168     1.0000 0.67940  0.04010  0.93321  Biso   1.000  C
  H74      1.0000 0.68970  0.04220  0.90800  Biso   1.000  H
  C169     1.0000 0.63070  0.99870  0.94816  Biso   1.000  C
  O111     1.0000 0.78740  0.12346  0.90836  Biso   1.000  O
  O112     1.0000 0.78080  0.15850  0.96405  Biso   1.000  O
  C170     1.0000 0.59610  0.95620  0.92355  Biso   1.000  C
  C171     1.0000 0.61630  0.99600  0.98514  Biso   1.000  C
  H75      1.0000 0.58400  0.96830  0.99460  Biso   1.000  H
  O113     1.0000 0.60270  0.96207  0.88871  Biso   1.000  O
  O114     1.0000 0.56660  0.91613  0.93844  Biso   1.000  O
  H76      1.0000 0.80800  0.18600  0.95200  Biso   1.000  H
  Ag20     1.0000 0.81766  0.59136  0.59165  Biso   1.000  Ag
  O115     1.0000 0.60460  0.48942  0.56440  Biso   1.000  O
  O116     1.0000 0.65960  0.56882  0.56886  Biso   1.000  O
  C172     1.0000 0.64920  0.53370  0.50917  Biso   1.000  C
  C173     1.0000 0.69680  0.57490  0.49463  Biso   1.000  C
  H77      1.0000 0.71880  0.60050  0.51010  Biso   1.000  H
  C174     1.0000 0.63630  0.53000  0.55024  Biso   1.000  C
  C175     1.0000 0.71190  0.57810  0.45676  Biso   1.000  C
  C176     1.0000 0.76400  0.62200  0.44075  Biso   1.000  C
  C177     1.0000 0.67940  0.54010  0.43321  Biso   1.000  C
  H78      1.0000 0.68970  0.54220  0.40800  Biso   1.000  H
  C178     1.0000 0.63070  0.49870  0.44816  Biso   1.000  C
  O117     1.0000 0.78740  0.62346  0.40836  Biso   1.000  O
  O118     1.0000 0.78080  0.65850  0.46405  Biso   1.000  O
  C179     1.0000 0.59610  0.45620  0.42355  Biso   1.000  C
  C180     1.0000 0.61630  0.49600  0.48514  Biso   1.000  C
  H79      1.0000 0.58400  0.46830  0.49460  Biso   1.000  H
  O119     1.0000 0.60270  0.46207  0.38871  Biso   1.000  O
  O120     1.0000 0.56660  0.41613  0.43844  Biso   1.000  O
  H80      1.0000 0.80800  0.68600  0.45200  Biso   1.000  H
  Ag21     1.0000 0.93234  0.15864  0.59165  Biso   1.000  Ag
  O121     1.0000 0.14540  0.26058  0.56440  Biso   1.000  O
  O122     1.0000 0.09040  0.18118  0.56886  Biso   1.000  O
  C181     1.0000 0.10080  0.21630  0.50917  Biso   1.000  C
  C182     1.0000 0.05320  0.17510  0.49463  Biso   1.000  C
  H81      1.0000 0.03120  0.14950  0.51010  Biso   1.000  H
  C183     1.0000 0.11370  0.22000  0.55024  Biso   1.000  C
  C184     1.0000 0.03810  0.17190  0.45676  Biso   1.000  C
  C185     1.0000 0.98600  0.12800  0.44075  Biso   1.000  C
  C186     1.0000 0.07060  0.20990  0.43321  Biso   1.000  C
  H82      1.0000 0.06030  0.20780  0.40800  Biso   1.000  H
  C187     1.0000 0.11930  0.25130  0.44816  Biso   1.000  C
  O123     1.0000 0.96260  0.12654  0.40836  Biso   1.000  O
  O124     1.0000 0.96920  0.09150  0.46405  Biso   1.000  O
  C188     1.0000 0.15390  0.29380  0.42355  Biso   1.000  C
  C189     1.0000 0.13370  0.25400  0.48514  Biso   1.000  C
  H83      1.0000 0.16600  0.28170  0.49460  Biso   1.000  H
  O125     1.0000 0.14730  0.28793  0.38871  Biso   1.000  O
  O126     1.0000 0.18340  0.33387  0.43844  Biso   1.000  O
  H84      1.0000 0.94200  0.06400  0.45200  Biso   1.000  H
  Ag22     1.0000 0.93234  0.65864  0.09165  Biso   1.000  Ag
  O127     1.0000 0.14540  0.76058  0.06440  Biso   1.000  O
  O128     1.0000 0.09040  0.68118  0.06886  Biso   1.000  O
  C190     1.0000 0.10080  0.71630  0.00917  Biso   1.000  C
  C191     1.0000 0.05320  0.67510  0.99463  Biso   1.000  C
  H85      1.0000 0.03120  0.64950  0.01010  Biso   1.000  H
  C192     1.0000 0.11370  0.72000  0.05024  Biso   1.000  C
  C193     1.0000 0.03810  0.67190  0.95676  Biso   1.000  C
  C194     1.0000 0.98600  0.62800  0.94075  Biso   1.000  C
  C195     1.0000 0.07060  0.70990  0.93321  Biso   1.000  C
  H86      1.0000 0.06030  0.70780  0.90800  Biso   1.000  H
  C196     1.0000 0.11930  0.75130  0.94816  Biso   1.000  C
  O129     1.0000 0.96260  0.62654  0.90836  Biso   1.000  O
  O130     1.0000 0.96920  0.59150  0.96405  Biso   1.000  O
  C197     1.0000 0.15390  0.79380  0.92355  Biso   1.000  C
  C198     1.0000 0.13370  0.75400  0.98514  Biso   1.000  C
  H87      1.0000 0.16600  0.78170  0.99460  Biso   1.000  H
  O131     1.0000 0.14730  0.78793  0.88871  Biso   1.000  O
  O132     1.0000 0.18340  0.83387  0.93844  Biso   1.000  O
  H88      1.0000 0.94200  0.56400  0.95200  Biso   1.000  H
  Ag23     1.0000 0.43234  0.15864  0.09165  Biso   1.000  Ag
  O133     1.0000 0.64540  0.26058  0.06440  Biso   1.000  O
  O134     1.0000 0.59040  0.18118  0.06886  Biso   1.000  O
  C199     1.0000 0.60080  0.21630  0.00917  Biso   1.000  C
  C200     1.0000 0.55320  0.17510  0.99463  Biso   1.000  C
  H89      1.0000 0.53120  0.14950  0.01010  Biso   1.000  H
  C201     1.0000 0.61370  0.22000  0.05024  Biso   1.000  C
  C202     1.0000 0.53810  0.17190  0.95676  Biso   1.000  C
  C203     1.0000 0.48600  0.12800  0.94075  Biso   1.000  C
  C204     1.0000 0.57060  0.20990  0.93321  Biso   1.000  C
  H90      1.0000 0.56030  0.20780  0.90800  Biso   1.000  H
  C205     1.0000 0.61930  0.25130  0.94816  Biso   1.000  C
  O135     1.0000 0.46260  0.12654  0.90836  Biso   1.000  O
  O136     1.0000 0.46920  0.09150  0.96405  Biso   1.000  O
  C206     1.0000 0.65390  0.29380  0.92355  Biso   1.000  C
  C207     1.0000 0.63370  0.25400  0.98514  Biso   1.000  C
  H91      1.0000 0.66600  0.28170  0.99460  Biso   1.000  H
  O137     1.0000 0.64730  0.28793  0.88871  Biso   1.000  O
  O138     1.0000 0.68340  0.33387  0.93844  Biso   1.000  O
  H92      1.0000 0.44200  0.06400  0.95200  Biso   1.000  H
  Ag24     1.0000 0.43234  0.65864  0.59165  Biso   1.000  Ag
  O139     1.0000 0.64540  0.76058  0.56440  Biso   1.000  O
  O140     1.0000 0.59040  0.68118  0.56886  Biso   1.000  O
  C208     1.0000 0.60080  0.71630  0.50917  Biso   1.000  C
  C209     1.0000 0.55320  0.67510  0.49463  Biso   1.000  C
  H93      1.0000 0.53120  0.64950  0.51010  Biso   1.000  H
  C210     1.0000 0.61370  0.72000  0.55024  Biso   1.000  C
  C211     1.0000 0.53810  0.67190  0.45676  Biso   1.000  C
  C212     1.0000 0.48600  0.62800  0.44075  Biso   1.000  C
  C213     1.0000 0.57060  0.70990  0.43321  Biso   1.000  C
  H94      1.0000 0.56030  0.70780  0.40800  Biso   1.000  H
  C214     1.0000 0.61930  0.75130  0.44816  Biso   1.000  C
  O141     1.0000 0.46260  0.62654  0.40836  Biso   1.000  O
  O142     1.0000 0.46920  0.59150  0.46405  Biso   1.000  O
  C215     1.0000 0.65390  0.79380  0.42355  Biso   1.000  C
  C216     1.0000 0.63370  0.75400  0.48514  Biso   1.000  C
  H95      1.0000 0.66600  0.78170  0.49460  Biso   1.000  H
  O143     1.0000 0.64730  0.78793  0.38871  Biso   1.000  O
  O144     1.0000 0.68340  0.83387  0.43844  Biso   1.000  O
  H96      1.0000 0.44200  0.56400  0.45200  Biso   1.000  H
  Ag25     1.0000 0.93234  0.09136  0.65835  Biso   1.000  Ag
  O145     1.0000 0.14540  0.98942  0.68560  Biso   1.000  O
  O146     1.0000 0.09040  0.06882  0.68114  Biso   1.000  O
  C217     1.0000 0.10080  0.03370  0.74083  Biso   1.000  C
  C218     1.0000 0.05320  0.07490  0.75537  Biso   1.000  C
  H97      1.0000 0.03120  0.10050  0.73990  Biso   1.000  H
  C219     1.0000 0.11370  0.03000  0.69976  Biso   1.000  C
  C220     1.0000 0.03810  0.07810  0.79324  Biso   1.000  C
  C221     1.0000 0.98600  0.12200  0.80925  Biso   1.000  C
  C222     1.0000 0.07060  0.04010  0.81679  Biso   1.000  C
  H98      1.0000 0.06030  0.04220  0.84200  Biso   1.000  H
  C223     1.0000 0.11930  0.99870  0.80184  Biso   1.000  C
  O147     1.0000 0.96260  0.12346  0.84164  Biso   1.000  O
  O148     1.0000 0.96920  0.15850  0.78595  Biso   1.000  O
  C224     1.0000 0.15390  0.95620  0.82645  Biso   1.000  C
  C225     1.0000 0.13370  0.99600  0.76486  Biso   1.000  C
  H99      1.0000 0.16600  0.96830  0.75540  Biso   1.000  H
  O149     1.0000 0.14730  0.96207  0.86129  Biso   1.000  O
  O150     1.0000 0.18340  0.91613  0.81156  Biso   1.000  O
  H100     1.0000 0.94200  0.18600  0.79800  Biso   1.000  H
  Ag26     1.0000 0.93234  0.59136  0.15835  Biso   1.000  Ag
  O151     1.0000 0.14540  0.48942  0.18560  Biso   1.000  O
  O152     1.0000 0.09040  0.56882  0.18114  Biso   1.000  O
  C226     1.0000 0.10080  0.53370  0.24083  Biso   1.000  C
  C227     1.0000 0.05320  0.57490  0.25537  Biso   1.000  C
  H101     1.0000 0.03120  0.60050  0.23990  Biso   1.000  H
  C228     1.0000 0.11370  0.53000  0.19976  Biso   1.000  C
  C229     1.0000 0.03810  0.57810  0.29324  Biso   1.000  C
  C230     1.0000 0.98600  0.62200  0.30925  Biso   1.000  C
  C231     1.0000 0.07060  0.54010  0.31679  Biso   1.000  C
  H102     1.0000 0.06030  0.54220  0.34200  Biso   1.000  H
  C232     1.0000 0.11930  0.49870  0.30184  Biso   1.000  C
  O153     1.0000 0.96260  0.62346  0.34164  Biso   1.000  O
  O154     1.0000 0.96920  0.65850  0.28595  Biso   1.000  O
  C233     1.0000 0.15390  0.45620  0.32645  Biso   1.000  C
  C234     1.0000 0.13370  0.49600  0.26486  Biso   1.000  C
  H103     1.0000 0.16600  0.46830  0.25540  Biso   1.000  H
  O155     1.0000 0.14730  0.46207  0.36129  Biso   1.000  O
  O156     1.0000 0.18340  0.41613  0.31156  Biso   1.000  O
  H104     1.0000 0.94200  0.68600  0.29800  Biso   1.000  H
  Ag27     1.0000 0.43234  0.09136  0.15835  Biso   1.000  Ag
  O157     1.0000 0.64540  0.98942  0.18560  Biso   1.000  O
  O158     1.0000 0.59040  0.06882  0.18114  Biso   1.000  O
  C235     1.0000 0.60080  0.03370  0.24083  Biso   1.000  C
  C236     1.0000 0.55320  0.07490  0.25537  Biso   1.000  C
  H105     1.0000 0.53120  0.10050  0.23990  Biso   1.000  H
  C237     1.0000 0.61370  0.03000  0.19976  Biso   1.000  C
  C238     1.0000 0.53810  0.07810  0.29324  Biso   1.000  C
  C239     1.0000 0.48600  0.12200  0.30925  Biso   1.000  C
  C240     1.0000 0.57060  0.04010  0.31679  Biso   1.000  C
  H106     1.0000 0.56030  0.04220  0.34200  Biso   1.000  H
  C241     1.0000 0.61930  0.99870  0.30184  Biso   1.000  C
  O159     1.0000 0.46260  0.12346  0.34164  Biso   1.000  O
  O160     1.0000 0.46920  0.15850  0.28595  Biso   1.000  O
  C242     1.0000 0.65390  0.95620  0.32645  Biso   1.000  C
  C243     1.0000 0.63370  0.99600  0.26486  Biso   1.000  C
  H107     1.0000 0.66600  0.96830  0.25540  Biso   1.000  H
  O161     1.0000 0.64730  0.96207  0.36129  Biso   1.000  O
  O162     1.0000 0.68340  0.91613  0.31156  Biso   1.000  O
  H108     1.0000 0.44200  0.18600  0.29800  Biso   1.000  H
  Ag28     1.0000 0.43234  0.59136  0.65835  Biso   1.000  Ag
  O163     1.0000 0.64540  0.48942  0.68560  Biso   1.000  O
  O164     1.0000 0.59040  0.56882  0.68114  Biso   1.000  O
  C244     1.0000 0.60080  0.53370  0.74083  Biso   1.000  C
  C245     1.0000 0.55320  0.57490  0.75537  Biso   1.000  C
  H109     1.0000 0.53120  0.60050  0.73990  Biso   1.000  H
  C246     1.0000 0.61370  0.53000  0.69976  Biso   1.000  C
  C247     1.0000 0.53810  0.57810  0.79324  Biso   1.000  C
  C248     1.0000 0.48600  0.62200  0.80925  Biso   1.000  C
  C249     1.0000 0.57060  0.54010  0.81679  Biso   1.000  C
  H110     1.0000 0.56030  0.54220  0.84200  Biso   1.000  H
  C250     1.0000 0.61930  0.49870  0.80184  Biso   1.000  C
  O165     1.0000 0.46260  0.62346  0.84164  Biso   1.000  O
  O166     1.0000 0.46920  0.65850  0.78595  Biso   1.000  O
  C251     1.0000 0.65390  0.45620  0.82645  Biso   1.000  C
  C252     1.0000 0.63370  0.49600  0.76486  Biso   1.000  C
  H111     1.0000 0.66600  0.46830  0.75540  Biso   1.000  H
  O167     1.0000 0.64730  0.46207  0.86129  Biso   1.000  O
  O168     1.0000 0.68340  0.41613  0.81156  Biso   1.000  O
  H112     1.0000 0.44200  0.68600  0.79800  Biso   1.000  H
  Ag29     1.0000 0.31766  0.15864  0.65835  Biso   1.000  Ag
  O169     1.0000 0.10460  0.26058  0.68560  Biso   1.000  O
  O170     1.0000 0.15960  0.18118  0.68114  Biso   1.000  O
  C253     1.0000 0.14920  0.21630  0.74083  Biso   1.000  C
  C254     1.0000 0.19680  0.17510  0.75537  Biso   1.000  C
  H113     1.0000 0.21880  0.14950  0.73990  Biso   1.000  H
  C255     1.0000 0.13630  0.22000  0.69976  Biso   1.000  C
  C256     1.0000 0.21190  0.17190  0.79324  Biso   1.000  C
  C257     1.0000 0.26400  0.12800  0.80925  Biso   1.000  C
  C258     1.0000 0.17940  0.20990  0.81679  Biso   1.000  C
  H114     1.0000 0.18970  0.20780  0.84200  Biso   1.000  H
  C259     1.0000 0.13070  0.25130  0.80184  Biso   1.000  C
  O171     1.0000 0.28740  0.12654  0.84164  Biso   1.000  O
  O172     1.0000 0.28080  0.09150  0.78595  Biso   1.000  O
  C260     1.0000 0.09610  0.29380  0.82645  Biso   1.000  C
  C261     1.0000 0.11630  0.25400  0.76486  Biso   1.000  C
  H115     1.0000 0.08400  0.28170  0.75540  Biso   1.000  H
  O173     1.0000 0.10270  0.28793  0.86129  Biso   1.000  O
  O174     1.0000 0.06660  0.33387  0.81156  Biso   1.000  O
  H116     1.0000 0.30800  0.06400  0.79800  Biso   1.000  H
  Ag30     1.0000 0.31766  0.65864  0.15835  Biso   1.000  Ag
  O175     1.0000 0.10460  0.76058  0.18560  Biso   1.000  O
  O176     1.0000 0.15960  0.68118  0.18114  Biso   1.000  O
  C262     1.0000 0.14920  0.71630  0.24083  Biso   1.000  C
  C263     1.0000 0.19680  0.67510  0.25537  Biso   1.000  C
  H117     1.0000 0.21880  0.64950  0.23990  Biso   1.000  H
  C264     1.0000 0.13630  0.72000  0.19976  Biso   1.000  C
  C265     1.0000 0.21190  0.67190  0.29324  Biso   1.000  C
  C266     1.0000 0.26400  0.62800  0.30925  Biso   1.000  C
  C267     1.0000 0.17940  0.70990  0.31679  Biso   1.000  C
  H118     1.0000 0.18970  0.70780  0.34200  Biso   1.000  H
  C268     1.0000 0.13070  0.75130  0.30184  Biso   1.000  C
  O177     1.0000 0.28740  0.62654  0.34164  Biso   1.000  O
  O178     1.0000 0.28080  0.59150  0.28595  Biso   1.000  O
  C269     1.0000 0.09610  0.79380  0.32645  Biso   1.000  C
  C270     1.0000 0.11630  0.75400  0.26486  Biso   1.000  C
  H119     1.0000 0.08400  0.78170  0.25540  Biso   1.000  H
  O179     1.0000 0.10270  0.78793  0.36129  Biso   1.000  O
  O180     1.0000 0.06660  0.83387  0.31156  Biso   1.000  O
  H120     1.0000 0.30800  0.56400  0.29800  Biso   1.000  H
  Ag31     1.0000 0.81766  0.15864  0.15835  Biso   1.000  Ag
  O181     1.0000 0.60460  0.26058  0.18560  Biso   1.000  O
  O182     1.0000 0.65960  0.18118  0.18114  Biso   1.000  O
  C271     1.0000 0.64920  0.21630  0.24083  Biso   1.000  C
  C272     1.0000 0.69680  0.17510  0.25537  Biso   1.000  C
  H121     1.0000 0.71880  0.14950  0.23990  Biso   1.000  H
  C273     1.0000 0.63630  0.22000  0.19976  Biso   1.000  C
  C274     1.0000 0.71190  0.17190  0.29324  Biso   1.000  C
  C275     1.0000 0.76400  0.12800  0.30925  Biso   1.000  C
  C276     1.0000 0.67940  0.20990  0.31679  Biso   1.000  C
  H122     1.0000 0.68970  0.20780  0.34200  Biso   1.000  H
  C277     1.0000 0.63070  0.25130  0.30184  Biso   1.000  C
  O183     1.0000 0.78740  0.12654  0.34164  Biso   1.000  O
  O184     1.0000 0.78080  0.09150  0.28595  Biso   1.000  O
  C278     1.0000 0.59610  0.29380  0.32645  Biso   1.000  C
  C279     1.0000 0.61630  0.25400  0.26486  Biso   1.000  C
  H123     1.0000 0.58400  0.28170  0.25540  Biso   1.000  H
  O185     1.0000 0.60270  0.28793  0.36129  Biso   1.000  O
  O186     1.0000 0.56660  0.33387  0.31156  Biso   1.000  O
  H124     1.0000 0.80800  0.06400  0.29800  Biso   1.000  H
  Ag32     1.0000 0.81766  0.65864  0.65835  Biso   1.000  Ag
  O187     1.0000 0.60460  0.76058  0.68560  Biso   1.000  O
  O188     1.0000 0.65960  0.68118  0.68114  Biso   1.000  O
  C280     1.0000 0.64920  0.71630  0.74083  Biso   1.000  C
  C281     1.0000 0.69680  0.67510  0.75537  Biso   1.000  C
  H125     1.0000 0.71880  0.64950  0.73990  Biso   1.000  H
  C282     1.0000 0.63630  0.72000  0.69976  Biso   1.000  C
  C283     1.0000 0.71190  0.67190  0.79324  Biso   1.000  C
  C284     1.0000 0.76400  0.62800  0.80925  Biso   1.000  C
  C285     1.0000 0.67940  0.70990  0.81679  Biso   1.000  C
  H126     1.0000 0.68970  0.70780  0.84200  Biso   1.000  H
  C286     1.0000 0.63070  0.75130  0.80184  Biso   1.000  C
  O189     1.0000 0.78740  0.62654  0.84164  Biso   1.000  O
  O190     1.0000 0.78080  0.59150  0.78595  Biso   1.000  O
  C287     1.0000 0.59610  0.79380  0.82645  Biso   1.000  C
  C288     1.0000 0.61630  0.75400  0.76486  Biso   1.000  C
  H127     1.0000 0.58400  0.78170  0.75540  Biso   1.000  H
  O191     1.0000 0.60270  0.78793  0.86129  Biso   1.000  O
  O192     1.0000 0.56660  0.83387  0.81156  Biso   1.000  O
  H128     1.0000 0.80800  0.56400  0.79800  Biso   1.000  H
  Ag33     1.0000 0.87500  0.93462  0.37500  Biso   1.000  Ag
  Ag34     1.0000 0.87500  0.43462  0.87500  Biso   1.000  Ag
  Ag35     1.0000 0.37500  0.93462  0.87500  Biso   1.000  Ag
  Ag36     1.0000 0.37500  0.43462  0.37500  Biso   1.000  Ag
  Ag37     1.0000 0.87500  0.81538  0.37500  Biso   1.000  Ag
  Ag38     1.0000 0.87500  0.31538  0.87500  Biso   1.000  Ag
  Ag39     1.0000 0.37500  0.81538  0.87500  Biso   1.000  Ag
  Ag40     1.0000 0.37500  0.31538  0.37500  Biso   1.000  Ag
  Ag41     1.0000 0.12500  0.06538  0.62500  Biso   1.000  Ag
  Ag42     1.0000 0.12500  0.56538  0.12500  Biso   1.000  Ag
  Ag43     1.0000 0.62500  0.06538  0.12500  Biso   1.000  Ag
  Ag44     1.0000 0.62500  0.56538  0.62500  Biso   1.000  Ag
  Ag45     1.0000 0.12500  0.18462  0.62500  Biso   1.000  Ag
  Ag46     1.0000 0.12500  0.68462  0.12500  Biso   1.000  Ag
  Ag47     1.0000 0.62500  0.18462  0.12500  Biso   1.000  Ag
  Ag48     1.0000 0.62500  0.68462  0.62500  Biso   1.000  Ag
