data_image0
_cell_length_a       14.6248
_cell_length_b       25.9012
_cell_length_c       36.3162
_cell_angle_alpha    90
_cell_angle_beta     90
_cell_angle_gamma    90

_symmetry_space_group_name_H-M    "P 1"
_symmetry_int_tables_number       1

loop_
  _symmetry_equiv_pos_as_xyz
  'x, y, z'

loop_
  _atom_site_label
  _atom_site_occupancy
  _atom_site_fract_x
  _atom_site_fract_y
  _atom_site_fract_z
  _atom_site_thermal_displace_type
  _atom_site_B_iso_or_equiv
  _atom_site_type_symbol
  Ag1      1.0000 0.93297  0.65843  0.09211  Biso   1.000  Ag
  O1       1.0000 0.93358  0.58393  0.06138  Biso   1.000  O
  O2       1.0000 0.89684  0.53766  0.11132  Biso   1.000  O
  O3       1.0000 0.71205  0.37594  0.09207  Biso   1.000  O
  O4       1.0000 0.71860  0.34088  0.03576  Biso   1.000  O
  H1       1.0000 0.68910  0.31820  0.04240  Biso   1.000  H
  O5       1.0000 0.84100  0.43008  0.93134  Biso   1.000  O
  O6       1.0000 0.89601  0.51011  0.93546  Biso   1.000  O
  C1       1.0000 0.86973  0.50104  0.05206  Biso   1.000  C
  C2       1.0000 0.82010  0.45989  0.06699  Biso   1.000  C
  H2       1.0000 0.80900  0.45820  0.09220  Biso   1.000  H
  C3       1.0000 0.78741  0.42143  0.04349  Biso   1.000  C
  C4       1.0000 0.80280  0.42435  0.00543  Biso   1.000  C
  H3       1.0000 0.78110  0.39850  0.99000  Biso   1.000  H
  C5       1.0000 0.85066  0.46598  0.99077  Biso   1.000  C
  C6       1.0000 0.88440  0.50412  0.01431  Biso   1.000  C
  H4       1.0000 0.91700  0.53180  0.00460  Biso   1.000  H
  C7       1.0000 0.90385  0.54419  0.07614  Biso   1.000  C
  C8       1.0000 0.73560  0.37745  0.05970  Biso   1.000  C
  C9       1.0000 0.86386  0.46951  0.94985  Biso   1.000  C
  Ag2      1.0000 0.93297  0.15843  0.59211  Biso   1.000  Ag
  O7       1.0000 0.93358  0.08393  0.56138  Biso   1.000  O
  O8       1.0000 0.89684  0.03766  0.61132  Biso   1.000  O
  O9       1.0000 0.71205  0.87594  0.59207  Biso   1.000  O
  O10      1.0000 0.71860  0.84088  0.53576  Biso   1.000  O
  H5       1.0000 0.68910  0.81820  0.54240  Biso   1.000  H
  O11      1.0000 0.84100  0.93008  0.43134  Biso   1.000  O
  O12      1.0000 0.89601  0.01011  0.43546  Biso   1.000  O
  C10      1.0000 0.86973  0.00104  0.55206  Biso   1.000  C
  C11      1.0000 0.82010  0.95989  0.56699  Biso   1.000  C
  H6       1.0000 0.80900  0.95820  0.59220  Biso   1.000  H
  C12      1.0000 0.78741  0.92143  0.54349  Biso   1.000  C
  C13      1.0000 0.80280  0.92435  0.50543  Biso   1.000  C
  H7       1.0000 0.78110  0.89850  0.49000  Biso   1.000  H
  C14      1.0000 0.85066  0.96598  0.49077  Biso   1.000  C
  C15      1.0000 0.88440  0.00412  0.51431  Biso   1.000  C
  H8       1.0000 0.91700  0.03180  0.50460  Biso   1.000  H
  C16      1.0000 0.90385  0.04419  0.57614  Biso   1.000  C
  C17      1.0000 0.73560  0.87745  0.55970  Biso   1.000  C
  C18      1.0000 0.86386  0.96951  0.44985  Biso   1.000  C
  Ag3      1.0000 0.43297  0.65843  0.59211  Biso   1.000  Ag
  O13      1.0000 0.43358  0.58393  0.56138  Biso   1.000  O
  O14      1.0000 0.39684  0.53766  0.61132  Biso   1.000  O
  O15      1.0000 0.21205  0.37594  0.59207  Biso   1.000  O
  O16      1.0000 0.21860  0.34088  0.53576  Biso   1.000  O
  H9       1.0000 0.18910  0.31820  0.54240  Biso   1.000  H
  O17      1.0000 0.34100  0.43008  0.43134  Biso   1.000  O
  O18      1.0000 0.39601  0.51011  0.43546  Biso   1.000  O
  C19      1.0000 0.36973  0.50104  0.55206  Biso   1.000  C
  C20      1.0000 0.32010  0.45989  0.56699  Biso   1.000  C
  H10      1.0000 0.30900  0.45820  0.59220  Biso   1.000  H
  C21      1.0000 0.28741  0.42143  0.54349  Biso   1.000  C
  C22      1.0000 0.30280  0.42435  0.50543  Biso   1.000  C
  H11      1.0000 0.28110  0.39850  0.49000  Biso   1.000  H
  C23      1.0000 0.35066  0.46598  0.49077  Biso   1.000  C
  C24      1.0000 0.38440  0.50412  0.51431  Biso   1.000  C
  H12      1.0000 0.41700  0.53180  0.50460  Biso   1.000  H
  C25      1.0000 0.40385  0.54419  0.57614  Biso   1.000  C
  C26      1.0000 0.23560  0.37745  0.55970  Biso   1.000  C
  C27      1.0000 0.36386  0.46951  0.44985  Biso   1.000  C
  Ag4      1.0000 0.43297  0.15843  0.09211  Biso   1.000  Ag
  O19      1.0000 0.43358  0.08393  0.06138  Biso   1.000  O
  O20      1.0000 0.39684  0.03766  0.11132  Biso   1.000  O
  O21      1.0000 0.21205  0.87594  0.09207  Biso   1.000  O
  O22      1.0000 0.21860  0.84088  0.03576  Biso   1.000  O
  H13      1.0000 0.18910  0.81820  0.04240  Biso   1.000  H
  O23      1.0000 0.34100  0.93008  0.93134  Biso   1.000  O
  O24      1.0000 0.39601  0.01011  0.93546  Biso   1.000  O
  C28      1.0000 0.36973  0.00104  0.05206  Biso   1.000  C
  C29      1.0000 0.32010  0.95989  0.06699  Biso   1.000  C
  H14      1.0000 0.30900  0.95820  0.09220  Biso   1.000  H
  C30      1.0000 0.28741  0.92143  0.04349  Biso   1.000  C
  C31      1.0000 0.30280  0.92435  0.00543  Biso   1.000  C
  H15      1.0000 0.28110  0.89850  0.99000  Biso   1.000  H
  C32      1.0000 0.35066  0.96598  0.99077  Biso   1.000  C
  C33      1.0000 0.38440  0.00412  0.01431  Biso   1.000  C
  H16      1.0000 0.41700  0.03180  0.00460  Biso   1.000  H
  C34      1.0000 0.40385  0.04419  0.07614  Biso   1.000  C
  C35      1.0000 0.23560  0.87745  0.05970  Biso   1.000  C
  C36      1.0000 0.36386  0.96951  0.94985  Biso   1.000  C
  Ag5      1.0000 0.81703  0.09157  0.09211  Biso   1.000  Ag
  O25      1.0000 0.81642  0.16607  0.06138  Biso   1.000  O
  O26      1.0000 0.85316  0.21234  0.11132  Biso   1.000  O
  O27      1.0000 0.03795  0.37406  0.09207  Biso   1.000  O
  O28      1.0000 0.03140  0.40912  0.03576  Biso   1.000  O
  H17      1.0000 0.06090  0.43180  0.04240  Biso   1.000  H
  O29      1.0000 0.90900  0.31992  0.93134  Biso   1.000  O
  O30      1.0000 0.85399  0.23989  0.93546  Biso   1.000  O
  C37      1.0000 0.88027  0.24896  0.05206  Biso   1.000  C
  C38      1.0000 0.92990  0.29011  0.06699  Biso   1.000  C
  H18      1.0000 0.94100  0.29180  0.09220  Biso   1.000  H
  C39      1.0000 0.96259  0.32857  0.04349  Biso   1.000  C
  C40      1.0000 0.94720  0.32565  0.00543  Biso   1.000  C
  H19      1.0000 0.96890  0.35150  0.99000  Biso   1.000  H
  C41      1.0000 0.89934  0.28402  0.99077  Biso   1.000  C
  C42      1.0000 0.86560  0.24588  0.01431  Biso   1.000  C
  H20      1.0000 0.83300  0.21820  0.00460  Biso   1.000  H
  C43      1.0000 0.84615  0.20581  0.07614  Biso   1.000  C
  C44      1.0000 0.01440  0.37255  0.05970  Biso   1.000  C
  C45      1.0000 0.88614  0.28049  0.94985  Biso   1.000  C
  Ag6      1.0000 0.81703  0.59157  0.59211  Biso   1.000  Ag
  O31      1.0000 0.81642  0.66607  0.56138  Biso   1.000  O
  O32      1.0000 0.85316  0.71234  0.61132  Biso   1.000  O
  O33      1.0000 0.03795  0.87406  0.59207  Biso   1.000  O
  O34      1.0000 0.03140  0.90912  0.53576  Biso   1.000  O
  H21      1.0000 0.06090  0.93180  0.54240  Biso   1.000  H
  O35      1.0000 0.90900  0.81992  0.43134  Biso   1.000  O
  O36      1.0000 0.85399  0.73989  0.43546  Biso   1.000  O
  C46      1.0000 0.88027  0.74896  0.55206  Biso   1.000  C
  C47      1.0000 0.92990  0.79011  0.56699  Biso   1.000  C
  H22      1.0000 0.94100  0.79180  0.59220  Biso   1.000  H
  C48      1.0000 0.96259  0.82857  0.54349  Biso   1.000  C
  C49      1.0000 0.94720  0.82565  0.50543  Biso   1.000  C
  H23      1.0000 0.96890  0.85150  0.49000  Biso   1.000  H
  C50      1.0000 0.89934  0.78402  0.49077  Biso   1.000  C
  C51      1.0000 0.86560  0.74588  0.51431  Biso   1.000  C
  H24      1.0000 0.83300  0.71820  0.50460  Biso   1.000  H
  C52      1.0000 0.84615  0.70581  0.57614  Biso   1.000  C
  C53      1.0000 0.01440  0.87255  0.55970  Biso   1.000  C
  C54      1.0000 0.88614  0.78049  0.44985  Biso   1.000  C
  Ag7      1.0000 0.31703  0.09157  0.59211  Biso   1.000  Ag
  O37      1.0000 0.31642  0.16607  0.56138  Biso   1.000  O
  O38      1.0000 0.35316  0.21234  0.61132  Biso   1.000  O
  O39      1.0000 0.53795  0.37406  0.59207  Biso   1.000  O
  O40      1.0000 0.53140  0.40912  0.53576  Biso   1.000  O
  H25      1.0000 0.56090  0.43180  0.54240  Biso   1.000  H
  O41      1.0000 0.40900  0.31992  0.43134  Biso   1.000  O
  O42      1.0000 0.35399  0.23989  0.43546  Biso   1.000  O
  C55      1.0000 0.38027  0.24896  0.55206  Biso   1.000  C
  C56      1.0000 0.42990  0.29011  0.56699  Biso   1.000  C
  H26      1.0000 0.44100  0.29180  0.59220  Biso   1.000  H
  C57      1.0000 0.46259  0.32857  0.54349  Biso   1.000  C
  C58      1.0000 0.44720  0.32565  0.50543  Biso   1.000  C
  H27      1.0000 0.46890  0.35150  0.49000  Biso   1.000  H
  C59      1.0000 0.39934  0.28402  0.49077  Biso   1.000  C
  C60      1.0000 0.36560  0.24588  0.51431  Biso   1.000  C
  H28      1.0000 0.33300  0.21820  0.50460  Biso   1.000  H
  C61      1.0000 0.34615  0.20581  0.57614  Biso   1.000  C
  C62      1.0000 0.51440  0.37255  0.55970  Biso   1.000  C
  C63      1.0000 0.38614  0.28049  0.44985  Biso   1.000  C
  Ag8      1.0000 0.31703  0.59157  0.09211  Biso   1.000  Ag
  O43      1.0000 0.31642  0.66607  0.06138  Biso   1.000  O
  O44      1.0000 0.35316  0.71234  0.11132  Biso   1.000  O
  O45      1.0000 0.53795  0.87406  0.09207  Biso   1.000  O
  O46      1.0000 0.53140  0.90912  0.03576  Biso   1.000  O
  H29      1.0000 0.56090  0.93180  0.04240  Biso   1.000  H
  O47      1.0000 0.40900  0.81992  0.93134  Biso   1.000  O
  O48      1.0000 0.35399  0.73989  0.93546  Biso   1.000  O
  C64      1.0000 0.38027  0.74896  0.05206  Biso   1.000  C
  C65      1.0000 0.42990  0.79011  0.06699  Biso   1.000  C
  H30      1.0000 0.44100  0.79180  0.09220  Biso   1.000  H
  C66      1.0000 0.46259  0.82857  0.04349  Biso   1.000  C
  C67      1.0000 0.44720  0.82565  0.00543  Biso   1.000  C
  H31      1.0000 0.46890  0.85150  0.99000  Biso   1.000  H
  C68      1.0000 0.39934  0.78402  0.99077  Biso   1.000  C
  C69      1.0000 0.36560  0.74588  0.01431  Biso   1.000  C
  H32      1.0000 0.33300  0.71820  0.00460  Biso   1.000  H
  C70      1.0000 0.34615  0.70581  0.07614  Biso   1.000  C
  C71      1.0000 0.51440  0.87255  0.05970  Biso   1.000  C
  C72      1.0000 0.38614  0.78049  0.94985  Biso   1.000  C
  Ag9      1.0000 0.81703  0.65843  0.65789  Biso   1.000  Ag
  O49      1.0000 0.81642  0.58393  0.68862  Biso   1.000  O
  O50      1.0000 0.85316  0.53766  0.63868  Biso   1.000  O
  O51      1.0000 0.03795  0.37594  0.65793  Biso   1.000  O
  O52      1.0000 0.03140  0.34088  0.71424  Biso   1.000  O
  H33      1.0000 0.06090  0.31820  0.70760  Biso   1.000  H
  O53      1.0000 0.90900  0.43008  0.81866  Biso   1.000  O
  O54      1.0000 0.85399  0.51011  0.81454  Biso   1.000  O
  C73      1.0000 0.88027  0.50104  0.69794  Biso   1.000  C
  C74      1.0000 0.92990  0.45989  0.68301  Biso   1.000  C
  H34      1.0000 0.94100  0.45820  0.65780  Biso   1.000  H
  C75      1.0000 0.96259  0.42143  0.70651  Biso   1.000  C
  C76      1.0000 0.94720  0.42435  0.74457  Biso   1.000  C
  H35      1.0000 0.96890  0.39850  0.76000  Biso   1.000  H
  C77      1.0000 0.89934  0.46598  0.75923  Biso   1.000  C
  C78      1.0000 0.86560  0.50412  0.73569  Biso   1.000  C
  H36      1.0000 0.83300  0.53180  0.74540  Biso   1.000  H
  C79      1.0000 0.84615  0.54419  0.67386  Biso   1.000  C
  C80      1.0000 0.01440  0.37745  0.69030  Biso   1.000  C
  C81      1.0000 0.88614  0.46951  0.80015  Biso   1.000  C
  Ag10     1.0000 0.81703  0.15843  0.15789  Biso   1.000  Ag
  O55      1.0000 0.81642  0.08393  0.18862  Biso   1.000  O
  O56      1.0000 0.85316  0.03766  0.13868  Biso   1.000  O
  O57      1.0000 0.03795  0.87594  0.15793  Biso   1.000  O
  O58      1.0000 0.03140  0.84088  0.21424  Biso   1.000  O
  H37      1.0000 0.06090  0.81820  0.20760  Biso   1.000  H
  O59      1.0000 0.90900  0.93008  0.31866  Biso   1.000  O
  O60      1.0000 0.85399  0.01011  0.31454  Biso   1.000  O
  C82      1.0000 0.88027  0.00104  0.19794  Biso   1.000  C
  C83      1.0000 0.92990  0.95989  0.18301  Biso   1.000  C
  H38      1.0000 0.94100  0.95820  0.15780  Biso   1.000  H
  C84      1.0000 0.96259  0.92143  0.20651  Biso   1.000  C
  C85      1.0000 0.94720  0.92435  0.24457  Biso   1.000  C
  H39      1.0000 0.96890  0.89850  0.26000  Biso   1.000  H
  C86      1.0000 0.89934  0.96598  0.25923  Biso   1.000  C
  C87      1.0000 0.86560  0.00412  0.23569  Biso   1.000  C
  H40      1.0000 0.83300  0.03180  0.24540  Biso   1.000  H
  C88      1.0000 0.84615  0.04419  0.17386  Biso   1.000  C
  C89      1.0000 0.01440  0.87745  0.19030  Biso   1.000  C
  C90      1.0000 0.88614  0.96951  0.30015  Biso   1.000  C
  Ag11     1.0000 0.31703  0.65843  0.15789  Biso   1.000  Ag
  O61      1.0000 0.31642  0.58393  0.18862  Biso   1.000  O
  O62      1.0000 0.35316  0.53766  0.13868  Biso   1.000  O
  O63      1.0000 0.53795  0.37594  0.15793  Biso   1.000  O
  O64      1.0000 0.53140  0.34088  0.21424  Biso   1.000  O
  H41      1.0000 0.56090  0.31820  0.20760  Biso   1.000  H
  O65      1.0000 0.40900  0.43008  0.31866  Biso   1.000  O
  O66      1.0000 0.35399  0.51011  0.31454  Biso   1.000  O
  C91      1.0000 0.38027  0.50104  0.19794  Biso   1.000  C
  C92      1.0000 0.42990  0.45989  0.18301  Biso   1.000  C
  H42      1.0000 0.44100  0.45820  0.15780  Biso   1.000  H
  C93      1.0000 0.46259  0.42143  0.20651  Biso   1.000  C
  C94      1.0000 0.44720  0.42435  0.24457  Biso   1.000  C
  H43      1.0000 0.46890  0.39850  0.26000  Biso   1.000  H
  C95      1.0000 0.39934  0.46598  0.25923  Biso   1.000  C
  C96      1.0000 0.36560  0.50412  0.23569  Biso   1.000  C
  H44      1.0000 0.33300  0.53180  0.24540  Biso   1.000  H
  C97      1.0000 0.34615  0.54419  0.17386  Biso   1.000  C
  C98      1.0000 0.51440  0.37745  0.19030  Biso   1.000  C
  C99      1.0000 0.38614  0.46951  0.30015  Biso   1.000  C
  Ag12     1.0000 0.31703  0.15843  0.65789  Biso   1.000  Ag
  O67      1.0000 0.31642  0.08393  0.68862  Biso   1.000  O
  O68      1.0000 0.35316  0.03766  0.63868  Biso   1.000  O
  O69      1.0000 0.53795  0.87594  0.65793  Biso   1.000  O
  O70      1.0000 0.53140  0.84088  0.71424  Biso   1.000  O
  H45      1.0000 0.56090  0.81820  0.70760  Biso   1.000  H
  O71      1.0000 0.40900  0.93008  0.81866  Biso   1.000  O
  O72      1.0000 0.35399  0.01011  0.81454  Biso   1.000  O
  C100     1.0000 0.38027  0.00104  0.69794  Biso   1.000  C
  C101     1.0000 0.42990  0.95989  0.68301  Biso   1.000  C
  H46      1.0000 0.44100  0.95820  0.65780  Biso   1.000  H
  C102     1.0000 0.46259  0.92143  0.70651  Biso   1.000  C
  C103     1.0000 0.44720  0.92435  0.74457  Biso   1.000  C
  H47      1.0000 0.46890  0.89850  0.76000  Biso   1.000  H
  C104     1.0000 0.39934  0.96598  0.75923  Biso   1.000  C
  C105     1.0000 0.36560  0.00412  0.73569  Biso   1.000  C
  H48      1.0000 0.33300  0.03180  0.74540  Biso   1.000  H
  C106     1.0000 0.34615  0.04419  0.67386  Biso   1.000  C
  C107     1.0000 0.51440  0.87745  0.69030  Biso   1.000  C
  C108     1.0000 0.38614  0.96951  0.80015  Biso   1.000  C
  Ag13     1.0000 0.93297  0.09157  0.65789  Biso   1.000  Ag
  O73      1.0000 0.93358  0.16607  0.68862  Biso   1.000  O
  O74      1.0000 0.89684  0.21234  0.63868  Biso   1.000  O
  O75      1.0000 0.71205  0.37406  0.65793  Biso   1.000  O
  O76      1.0000 0.71860  0.40912  0.71424  Biso   1.000  O
  H49      1.0000 0.68910  0.43180  0.70760  Biso   1.000  H
  O77      1.0000 0.84100  0.31992  0.81866  Biso   1.000  O
  O78      1.0000 0.89601  0.23989  0.81454  Biso   1.000  O
  C109     1.0000 0.86973  0.24896  0.69794  Biso   1.000  C
  C110     1.0000 0.82010  0.29011  0.68301  Biso   1.000  C
  H50      1.0000 0.80900  0.29180  0.65780  Biso   1.000  H
  C111     1.0000 0.78741  0.32857  0.70651  Biso   1.000  C
  C112     1.0000 0.80280  0.32565  0.74457  Biso   1.000  C
  H51      1.0000 0.78110  0.35150  0.76000  Biso   1.000  H
  C113     1.0000 0.85066  0.28402  0.75923  Biso   1.000  C
  C114     1.0000 0.88440  0.24588  0.73569  Biso   1.000  C
  H52      1.0000 0.91700  0.21820  0.74540  Biso   1.000  H
  C115     1.0000 0.90385  0.20581  0.67386  Biso   1.000  C
  C116     1.0000 0.73560  0.37255  0.69030  Biso   1.000  C
  C117     1.0000 0.86386  0.28049  0.80015  Biso   1.000  C
  Ag14     1.0000 0.93297  0.59157  0.15789  Biso   1.000  Ag
  O79      1.0000 0.93358  0.66607  0.18862  Biso   1.000  O
  O80      1.0000 0.89684  0.71234  0.13868  Biso   1.000  O
  O81      1.0000 0.71205  0.87406  0.15793  Biso   1.000  O
  O82      1.0000 0.71860  0.90912  0.21424  Biso   1.000  O
  H53      1.0000 0.68910  0.93180  0.20760  Biso   1.000  H
  O83      1.0000 0.84100  0.81992  0.31866  Biso   1.000  O
  O84      1.0000 0.89601  0.73989  0.31454  Biso   1.000  O
  C118     1.0000 0.86973  0.74896  0.19794  Biso   1.000  C
  C119     1.0000 0.82010  0.79011  0.18301  Biso   1.000  C
  H54      1.0000 0.80900  0.79180  0.15780  Biso   1.000  H
  C120     1.0000 0.78741  0.82857  0.20651  Biso   1.000  C
  C121     1.0000 0.80280  0.82565  0.24457  Biso   1.000  C
  H55      1.0000 0.78110  0.85150  0.26000  Biso   1.000  H
  C122     1.0000 0.85066  0.78402  0.25923  Biso   1.000  C
  C123     1.0000 0.88440  0.74588  0.23569  Biso   1.000  C
  H56      1.0000 0.91700  0.71820  0.24540  Biso   1.000  H
  C124     1.0000 0.90385  0.70581  0.17386  Biso   1.000  C
  C125     1.0000 0.73560  0.87255  0.19030  Biso   1.000  C
  C126     1.0000 0.86386  0.78049  0.30015  Biso   1.000  C
  Ag15     1.0000 0.43297  0.09157  0.15789  Biso   1.000  Ag
  O85      1.0000 0.43358  0.16607  0.18862  Biso   1.000  O
  O86      1.0000 0.39684  0.21234  0.13868  Biso   1.000  O
  O87      1.0000 0.21205  0.37406  0.15793  Biso   1.000  O
  O88      1.0000 0.21860  0.40912  0.21424  Biso   1.000  O
  H57      1.0000 0.18910  0.43180  0.20760  Biso   1.000  H
  O89      1.0000 0.34100  0.31992  0.31866  Biso   1.000  O
  O90      1.0000 0.39601  0.23989  0.31454  Biso   1.000  O
  C127     1.0000 0.36973  0.24896  0.19794  Biso   1.000  C
  C128     1.0000 0.32010  0.29011  0.18301  Biso   1.000  C
  H58      1.0000 0.30900  0.29180  0.15780  Biso   1.000  H
  C129     1.0000 0.28741  0.32857  0.20651  Biso   1.000  C
  C130     1.0000 0.30280  0.32565  0.24457  Biso   1.000  C
  H59      1.0000 0.28110  0.35150  0.26000  Biso   1.000  H
  C131     1.0000 0.35066  0.28402  0.25923  Biso   1.000  C
  C132     1.0000 0.38440  0.24588  0.23569  Biso   1.000  C
  H60      1.0000 0.41700  0.21820  0.24540  Biso   1.000  H
  C133     1.0000 0.40385  0.20581  0.17386  Biso   1.000  C
  C134     1.0000 0.23560  0.37255  0.19030  Biso   1.000  C
  C135     1.0000 0.36386  0.28049  0.30015  Biso   1.000  C
  Ag16     1.0000 0.43297  0.59157  0.65789  Biso   1.000  Ag
  O91      1.0000 0.43358  0.66607  0.68862  Biso   1.000  O
  O92      1.0000 0.39684  0.71234  0.63868  Biso   1.000  O
  O93      1.0000 0.21205  0.87406  0.65793  Biso   1.000  O
  O94      1.0000 0.21860  0.90912  0.71424  Biso   1.000  O
  H61      1.0000 0.18910  0.93180  0.70760  Biso   1.000  H
  O95      1.0000 0.34100  0.81992  0.81866  Biso   1.000  O
  O96      1.0000 0.39601  0.73989  0.81454  Biso   1.000  O
  C136     1.0000 0.36973  0.74896  0.69794  Biso   1.000  C
  C137     1.0000 0.32010  0.79011  0.68301  Biso   1.000  C
  H62      1.0000 0.30900  0.79180  0.65780  Biso   1.000  H
  C138     1.0000 0.28741  0.82857  0.70651  Biso   1.000  C
  C139     1.0000 0.30280  0.82565  0.74457  Biso   1.000  C
  H63      1.0000 0.28110  0.85150  0.76000  Biso   1.000  H
  C140     1.0000 0.35066  0.78402  0.75923  Biso   1.000  C
  C141     1.0000 0.38440  0.74588  0.73569  Biso   1.000  C
  H64      1.0000 0.41700  0.71820  0.74540  Biso   1.000  H
  C142     1.0000 0.40385  0.70581  0.67386  Biso   1.000  C
  C143     1.0000 0.23560  0.87255  0.69030  Biso   1.000  C
  C144     1.0000 0.36386  0.78049  0.80015  Biso   1.000  C
  Ag17     1.0000 0.06703  0.34157  0.90789  Biso   1.000  Ag
  O97      1.0000 0.06642  0.41607  0.93862  Biso   1.000  O
  O98      1.0000 0.10316  0.46234  0.88868  Biso   1.000  O
  O99      1.0000 0.28795  0.62406  0.90793  Biso   1.000  O
  O100     1.0000 0.28140  0.65912  0.96424  Biso   1.000  O
  H65      1.0000 0.31090  0.68180  0.95760  Biso   1.000  H
  O101     1.0000 0.15900  0.56992  0.06866  Biso   1.000  O
  O102     1.0000 0.10399  0.48989  0.06454  Biso   1.000  O
  C145     1.0000 0.13027  0.49896  0.94794  Biso   1.000  C
  C146     1.0000 0.17990  0.54011  0.93301  Biso   1.000  C
  H66      1.0000 0.19100  0.54180  0.90780  Biso   1.000  H
  C147     1.0000 0.21259  0.57857  0.95651  Biso   1.000  C
  C148     1.0000 0.19720  0.57565  0.99457  Biso   1.000  C
  H67      1.0000 0.21890  0.60150  0.01000  Biso   1.000  H
  C149     1.0000 0.14934  0.53402  0.00923  Biso   1.000  C
  C150     1.0000 0.11560  0.49588  0.98569  Biso   1.000  C
  H68      1.0000 0.08300  0.46820  0.99540  Biso   1.000  H
  C151     1.0000 0.09615  0.45581  0.92386  Biso   1.000  C
  C152     1.0000 0.26440  0.62255  0.94030  Biso   1.000  C
  C153     1.0000 0.13614  0.53049  0.05015  Biso   1.000  C
  Ag18     1.0000 0.06703  0.84157  0.40789  Biso   1.000  Ag
  O103     1.0000 0.06642  0.91607  0.43862  Biso   1.000  O
  O104     1.0000 0.10316  0.96234  0.38868  Biso   1.000  O
  O105     1.0000 0.28795  0.12406  0.40793  Biso   1.000  O
  O106     1.0000 0.28140  0.15912  0.46424  Biso   1.000  O
  H69      1.0000 0.31090  0.18180  0.45760  Biso   1.000  H
  O107     1.0000 0.15900  0.06992  0.56866  Biso   1.000  O
  O108     1.0000 0.10399  0.98989  0.56454  Biso   1.000  O
  C154     1.0000 0.13027  0.99896  0.44794  Biso   1.000  C
  C155     1.0000 0.17990  0.04011  0.43301  Biso   1.000  C
  H70      1.0000 0.19100  0.04180  0.40780  Biso   1.000  H
  C156     1.0000 0.21259  0.07857  0.45651  Biso   1.000  C
  C157     1.0000 0.19720  0.07565  0.49457  Biso   1.000  C
  H71      1.0000 0.21890  0.10150  0.51000  Biso   1.000  H
  C158     1.0000 0.14934  0.03402  0.50923  Biso   1.000  C
  C159     1.0000 0.11560  0.99588  0.48569  Biso   1.000  C
  H72      1.0000 0.08300  0.96820  0.49540  Biso   1.000  H
  C160     1.0000 0.09615  0.95581  0.42386  Biso   1.000  C
  C161     1.0000 0.26440  0.12255  0.44030  Biso   1.000  C
  C162     1.0000 0.13614  0.03049  0.55015  Biso   1.000  C
  Ag19     1.0000 0.56703  0.34157  0.40789  Biso   1.000  Ag
  O109     1.0000 0.56642  0.41607  0.43862  Biso   1.000  O
  O110     1.0000 0.60316  0.46234  0.38868  Biso   1.000  O
  O111     1.0000 0.78795  0.62406  0.40793  Biso   1.000  O
  O112     1.0000 0.78140  0.65912  0.46424  Biso   1.000  O
  H73      1.0000 0.81090  0.68180  0.45760  Biso   1.000  H
  O113     1.0000 0.65900  0.56992  0.56866  Biso   1.000  O
  O114     1.0000 0.60399  0.48989  0.56454  Biso   1.000  O
  C163     1.0000 0.63027  0.49896  0.44794  Biso   1.000  C
  C164     1.0000 0.67990  0.54011  0.43301  Biso   1.000  C
  H74      1.0000 0.69100  0.54180  0.40780  Biso   1.000  H
  C165     1.0000 0.71259  0.57857  0.45651  Biso   1.000  C
  C166     1.0000 0.69720  0.57565  0.49457  Biso   1.000  C
  H75      1.0000 0.71890  0.60150  0.51000  Biso   1.000  H
  C167     1.0000 0.64934  0.53402  0.50923  Biso   1.000  C
  C168     1.0000 0.61560  0.49588  0.48569  Biso   1.000  C
  H76      1.0000 0.58300  0.46820  0.49540  Biso   1.000  H
  C169     1.0000 0.59615  0.45581  0.42386  Biso   1.000  C
  C170     1.0000 0.76440  0.62255  0.44030  Biso   1.000  C
  C171     1.0000 0.63614  0.53049  0.55015  Biso   1.000  C
  Ag20     1.0000 0.56703  0.84157  0.90789  Biso   1.000  Ag
  O115     1.0000 0.56642  0.91607  0.93862  Biso   1.000  O
  O116     1.0000 0.60316  0.96234  0.88868  Biso   1.000  O
  O117     1.0000 0.78795  0.12406  0.90793  Biso   1.000  O
  O118     1.0000 0.78140  0.15912  0.96424  Biso   1.000  O
  H77      1.0000 0.81090  0.18180  0.95760  Biso   1.000  H
  O119     1.0000 0.65900  0.06992  0.06866  Biso   1.000  O
  O120     1.0000 0.60399  0.98989  0.06454  Biso   1.000  O
  C172     1.0000 0.63027  0.99896  0.94794  Biso   1.000  C
  C173     1.0000 0.67990  0.04011  0.93301  Biso   1.000  C
  H78      1.0000 0.69100  0.04180  0.90780  Biso   1.000  H
  C174     1.0000 0.71259  0.07857  0.95651  Biso   1.000  C
  C175     1.0000 0.69720  0.07565  0.99457  Biso   1.000  C
  H79      1.0000 0.71890  0.10150  0.01000  Biso   1.000  H
  C176     1.0000 0.64934  0.03402  0.00923  Biso   1.000  C
  C177     1.0000 0.61560  0.99588  0.98569  Biso   1.000  C
  H80      1.0000 0.58300  0.96820  0.99540  Biso   1.000  H
  C178     1.0000 0.59615  0.95581  0.92386  Biso   1.000  C
  C179     1.0000 0.76440  0.12255  0.94030  Biso   1.000  C
  C180     1.0000 0.63614  0.03049  0.05015  Biso   1.000  C
  Ag21     1.0000 0.18297  0.90843  0.90789  Biso   1.000  Ag
  O121     1.0000 0.18358  0.83393  0.93862  Biso   1.000  O
  O122     1.0000 0.14684  0.78766  0.88868  Biso   1.000  O
  O123     1.0000 0.96205  0.62594  0.90793  Biso   1.000  O
  O124     1.0000 0.96860  0.59088  0.96424  Biso   1.000  O
  H81      1.0000 0.93910  0.56820  0.95760  Biso   1.000  H
  O125     1.0000 0.09100  0.68008  0.06866  Biso   1.000  O
  O126     1.0000 0.14601  0.76011  0.06454  Biso   1.000  O
  C181     1.0000 0.11973  0.75104  0.94794  Biso   1.000  C
  C182     1.0000 0.07010  0.70989  0.93301  Biso   1.000  C
  H82      1.0000 0.05900  0.70820  0.90780  Biso   1.000  H
  C183     1.0000 0.03741  0.67143  0.95651  Biso   1.000  C
  C184     1.0000 0.05280  0.67435  0.99457  Biso   1.000  C
  H83      1.0000 0.03110  0.64850  0.01000  Biso   1.000  H
  C185     1.0000 0.10066  0.71598  0.00923  Biso   1.000  C
  C186     1.0000 0.13440  0.75412  0.98569  Biso   1.000  C
  H84      1.0000 0.16700  0.78180  0.99540  Biso   1.000  H
  C187     1.0000 0.15385  0.79419  0.92386  Biso   1.000  C
  C188     1.0000 0.98560  0.62745  0.94030  Biso   1.000  C
  C189     1.0000 0.11386  0.71951  0.05015  Biso   1.000  C
  Ag22     1.0000 0.18297  0.40843  0.40789  Biso   1.000  Ag
  O127     1.0000 0.18358  0.33393  0.43862  Biso   1.000  O
  O128     1.0000 0.14684  0.28766  0.38868  Biso   1.000  O
  O129     1.0000 0.96205  0.12594  0.40793  Biso   1.000  O
  O130     1.0000 0.96860  0.09088  0.46424  Biso   1.000  O
  H85      1.0000 0.93910  0.06820  0.45760  Biso   1.000  H
  O131     1.0000 0.09100  0.18008  0.56866  Biso   1.000  O
  O132     1.0000 0.14601  0.26011  0.56454  Biso   1.000  O
  C190     1.0000 0.11973  0.25104  0.44794  Biso   1.000  C
  C191     1.0000 0.07010  0.20989  0.43301  Biso   1.000  C
  H86      1.0000 0.05900  0.20820  0.40780  Biso   1.000  H
  C192     1.0000 0.03741  0.17143  0.45651  Biso   1.000  C
  C193     1.0000 0.05280  0.17435  0.49457  Biso   1.000  C
  H87      1.0000 0.03110  0.14850  0.51000  Biso   1.000  H
  C194     1.0000 0.10066  0.21598  0.50923  Biso   1.000  C
  C195     1.0000 0.13440  0.25412  0.48569  Biso   1.000  C
  H88      1.0000 0.16700  0.28180  0.49540  Biso   1.000  H
  C196     1.0000 0.15385  0.29419  0.42386  Biso   1.000  C
  C197     1.0000 0.98560  0.12745  0.44030  Biso   1.000  C
  C198     1.0000 0.11386  0.21951  0.55015  Biso   1.000  C
  Ag23     1.0000 0.68297  0.90843  0.40789  Biso   1.000  Ag
  O133     1.0000 0.68358  0.83393  0.43862  Biso   1.000  O
  O134     1.0000 0.64684  0.78766  0.38868  Biso   1.000  O
  O135     1.0000 0.46205  0.62594  0.40793  Biso   1.000  O
  O136     1.0000 0.46860  0.59088  0.46424  Biso   1.000  O
  H89      1.0000 0.43910  0.56820  0.45760  Biso   1.000  H
  O137     1.0000 0.59100  0.68008  0.56866  Biso   1.000  O
  O138     1.0000 0.64601  0.76011  0.56454  Biso   1.000  O
  C199     1.0000 0.61973  0.75104  0.44794  Biso   1.000  C
  C200     1.0000 0.57010  0.70989  0.43301  Biso   1.000  C
  H90      1.0000 0.55900  0.70820  0.40780  Biso   1.000  H
  C201     1.0000 0.53741  0.67143  0.45651  Biso   1.000  C
  C202     1.0000 0.55280  0.67435  0.49457  Biso   1.000  C
  H91      1.0000 0.53110  0.64850  0.51000  Biso   1.000  H
  C203     1.0000 0.60066  0.71598  0.50923  Biso   1.000  C
  C204     1.0000 0.63440  0.75412  0.48569  Biso   1.000  C
  H92      1.0000 0.66700  0.78180  0.49540  Biso   1.000  H
  C205     1.0000 0.65385  0.79419  0.42386  Biso   1.000  C
  C206     1.0000 0.48560  0.62745  0.44030  Biso   1.000  C
  C207     1.0000 0.61386  0.71951  0.55015  Biso   1.000  C
  Ag24     1.0000 0.68297  0.40843  0.90789  Biso   1.000  Ag
  O139     1.0000 0.68358  0.33393  0.93862  Biso   1.000  O
  O140     1.0000 0.64684  0.28766  0.88868  Biso   1.000  O
  O141     1.0000 0.46205  0.12594  0.90793  Biso   1.000  O
  O142     1.0000 0.46860  0.09088  0.96424  Biso   1.000  O
  H93      1.0000 0.43910  0.06820  0.95760  Biso   1.000  H
  O143     1.0000 0.59100  0.18008  0.06866  Biso   1.000  O
  O144     1.0000 0.64601  0.26011  0.06454  Biso   1.000  O
  C208     1.0000 0.61973  0.25104  0.94794  Biso   1.000  C
  C209     1.0000 0.57010  0.20989  0.93301  Biso   1.000  C
  H94      1.0000 0.55900  0.20820  0.90780  Biso   1.000  H
  C210     1.0000 0.53741  0.17143  0.95651  Biso   1.000  C
  C211     1.0000 0.55280  0.17435  0.99457  Biso   1.000  C
  H95      1.0000 0.53110  0.14850  0.01000  Biso   1.000  H
  C212     1.0000 0.60066  0.21598  0.00923  Biso   1.000  C
  C213     1.0000 0.63440  0.25412  0.98569  Biso   1.000  C
  H96      1.0000 0.66700  0.28180  0.99540  Biso   1.000  H
  C214     1.0000 0.65385  0.29419  0.92386  Biso   1.000  C
  C215     1.0000 0.48560  0.12745  0.94030  Biso   1.000  C
  C216     1.0000 0.61386  0.21951  0.05015  Biso   1.000  C
  Ag25     1.0000 0.18297  0.34157  0.34211  Biso   1.000  Ag
  O145     1.0000 0.18358  0.41607  0.31138  Biso   1.000  O
  O146     1.0000 0.14684  0.46234  0.36132  Biso   1.000  O
  O147     1.0000 0.96205  0.62406  0.34207  Biso   1.000  O
  O148     1.0000 0.96860  0.65912  0.28576  Biso   1.000  O
  H97      1.0000 0.93910  0.68180  0.29240  Biso   1.000  H
  O149     1.0000 0.09100  0.56992  0.18134  Biso   1.000  O
  O150     1.0000 0.14601  0.48989  0.18546  Biso   1.000  O
  C217     1.0000 0.11973  0.49896  0.30206  Biso   1.000  C
  C218     1.0000 0.07010  0.54011  0.31699  Biso   1.000  C
  H98      1.0000 0.05900  0.54180  0.34220  Biso   1.000  H
  C219     1.0000 0.03741  0.57857  0.29349  Biso   1.000  C
  C220     1.0000 0.05280  0.57565  0.25543  Biso   1.000  C
  H99      1.0000 0.03110  0.60150  0.24000  Biso   1.000  H
  C221     1.0000 0.10066  0.53402  0.24077  Biso   1.000  C
  C222     1.0000 0.13440  0.49588  0.26431  Biso   1.000  C
  H100     1.0000 0.16700  0.46820  0.25460  Biso   1.000  H
  C223     1.0000 0.15385  0.45581  0.32614  Biso   1.000  C
  C224     1.0000 0.98560  0.62255  0.30970  Biso   1.000  C
  C225     1.0000 0.11386  0.53049  0.19985  Biso   1.000  C
  Ag26     1.0000 0.18297  0.84157  0.84211  Biso   1.000  Ag
  O151     1.0000 0.18358  0.91607  0.81138  Biso   1.000  O
  O152     1.0000 0.14684  0.96234  0.86132  Biso   1.000  O
  O153     1.0000 0.96205  0.12406  0.84207  Biso   1.000  O
  O154     1.0000 0.96860  0.15912  0.78576  Biso   1.000  O
  H101     1.0000 0.93910  0.18180  0.79240  Biso   1.000  H
  O155     1.0000 0.09100  0.06992  0.68134  Biso   1.000  O
  O156     1.0000 0.14601  0.98989  0.68546  Biso   1.000  O
  C226     1.0000 0.11973  0.99896  0.80206  Biso   1.000  C
  C227     1.0000 0.07010  0.04011  0.81699  Biso   1.000  C
  H102     1.0000 0.05900  0.04180  0.84220  Biso   1.000  H
  C228     1.0000 0.03741  0.07857  0.79349  Biso   1.000  C
  C229     1.0000 0.05280  0.07565  0.75543  Biso   1.000  C
  H103     1.0000 0.03110  0.10150  0.74000  Biso   1.000  H
  C230     1.0000 0.10066  0.03402  0.74077  Biso   1.000  C
  C231     1.0000 0.13440  0.99588  0.76431  Biso   1.000  C
  H104     1.0000 0.16700  0.96820  0.75460  Biso   1.000  H
  C232     1.0000 0.15385  0.95581  0.82614  Biso   1.000  C
  C233     1.0000 0.98560  0.12255  0.80970  Biso   1.000  C
  C234     1.0000 0.11386  0.03049  0.69985  Biso   1.000  C
  Ag27     1.0000 0.68297  0.34157  0.84211  Biso   1.000  Ag
  O157     1.0000 0.68358  0.41607  0.81138  Biso   1.000  O
  O158     1.0000 0.64684  0.46234  0.86132  Biso   1.000  O
  O159     1.0000 0.46205  0.62406  0.84207  Biso   1.000  O
  O160     1.0000 0.46860  0.65912  0.78576  Biso   1.000  O
  H105     1.0000 0.43910  0.68180  0.79240  Biso   1.000  H
  O161     1.0000 0.59100  0.56992  0.68134  Biso   1.000  O
  O162     1.0000 0.64601  0.48989  0.68546  Biso   1.000  O
  C235     1.0000 0.61973  0.49896  0.80206  Biso   1.000  C
  C236     1.0000 0.57010  0.54011  0.81699  Biso   1.000  C
  H106     1.0000 0.55900  0.54180  0.84220  Biso   1.000  H
  C237     1.0000 0.53741  0.57857  0.79349  Biso   1.000  C
  C238     1.0000 0.55280  0.57565  0.75543  Biso   1.000  C
  H107     1.0000 0.53110  0.60150  0.74000  Biso   1.000  H
  C239     1.0000 0.60066  0.53402  0.74077  Biso   1.000  C
  C240     1.0000 0.63440  0.49588  0.76431  Biso   1.000  C
  H108     1.0000 0.66700  0.46820  0.75460  Biso   1.000  H
  C241     1.0000 0.65385  0.45581  0.82614  Biso   1.000  C
  C242     1.0000 0.48560  0.62255  0.80970  Biso   1.000  C
  C243     1.0000 0.61386  0.53049  0.69985  Biso   1.000  C
  Ag28     1.0000 0.68297  0.84157  0.34211  Biso   1.000  Ag
  O163     1.0000 0.68358  0.91607  0.31138  Biso   1.000  O
  O164     1.0000 0.64684  0.96234  0.36132  Biso   1.000  O
  O165     1.0000 0.46205  0.12406  0.34207  Biso   1.000  O
  O166     1.0000 0.46860  0.15912  0.28576  Biso   1.000  O
  H109     1.0000 0.43910  0.18180  0.29240  Biso   1.000  H
  O167     1.0000 0.59100  0.06992  0.18134  Biso   1.000  O
  O168     1.0000 0.64601  0.98989  0.18546  Biso   1.000  O
  C244     1.0000 0.61973  0.99896  0.30206  Biso   1.000  C
  C245     1.0000 0.57010  0.04011  0.31699  Biso   1.000  C
  H110     1.0000 0.55900  0.04180  0.34220  Biso   1.000  H
  C246     1.0000 0.53741  0.07857  0.29349  Biso   1.000  C
  C247     1.0000 0.55280  0.07565  0.25543  Biso   1.000  C
  H111     1.0000 0.53110  0.10150  0.24000  Biso   1.000  H
  C248     1.0000 0.60066  0.03402  0.24077  Biso   1.000  C
  C249     1.0000 0.63440  0.99588  0.26431  Biso   1.000  C
  H112     1.0000 0.66700  0.96820  0.25460  Biso   1.000  H
  C250     1.0000 0.65385  0.95581  0.32614  Biso   1.000  C
  C251     1.0000 0.48560  0.12255  0.30970  Biso   1.000  C
  C252     1.0000 0.61386  0.03049  0.19985  Biso   1.000  C
  Ag29     1.0000 0.06703  0.90843  0.34211  Biso   1.000  Ag
  O169     1.0000 0.06642  0.83393  0.31138  Biso   1.000  O
  O170     1.0000 0.10316  0.78766  0.36132  Biso   1.000  O
  O171     1.0000 0.28795  0.62594  0.34207  Biso   1.000  O
  O172     1.0000 0.28140  0.59088  0.28576  Biso   1.000  O
  H113     1.0000 0.31090  0.56820  0.29240  Biso   1.000  H
  O173     1.0000 0.15900  0.68008  0.18134  Biso   1.000  O
  O174     1.0000 0.10399  0.76011  0.18546  Biso   1.000  O
  C253     1.0000 0.13027  0.75104  0.30206  Biso   1.000  C
  C254     1.0000 0.17990  0.70989  0.31699  Biso   1.000  C
  H114     1.0000 0.19100  0.70820  0.34220  Biso   1.000  H
  C255     1.0000 0.21259  0.67143  0.29349  Biso   1.000  C
  C256     1.0000 0.19720  0.67435  0.25543  Biso   1.000  C
  H115     1.0000 0.21890  0.64850  0.24000  Biso   1.000  H
  C257     1.0000 0.14934  0.71598  0.24077  Biso   1.000  C
  C258     1.0000 0.11560  0.75412  0.26431  Biso   1.000  C
  H116     1.0000 0.08300  0.78180  0.25460  Biso   1.000  H
  C259     1.0000 0.09615  0.79419  0.32614  Biso   1.000  C
  C260     1.0000 0.26440  0.62745  0.30970  Biso   1.000  C
  C261     1.0000 0.13614  0.71951  0.19985  Biso   1.000  C
  Ag30     1.0000 0.06703  0.40843  0.84211  Biso   1.000  Ag
  O175     1.0000 0.06642  0.33393  0.81138  Biso   1.000  O
  O176     1.0000 0.10316  0.28766  0.86132  Biso   1.000  O
  O177     1.0000 0.28795  0.12594  0.84207  Biso   1.000  O
  O178     1.0000 0.28140  0.09088  0.78576  Biso   1.000  O
  H117     1.0000 0.31090  0.06820  0.79240  Biso   1.000  H
  O179     1.0000 0.15900  0.18008  0.68134  Biso   1.000  O
  O180     1.0000 0.10399  0.26011  0.68546  Biso   1.000  O
  C262     1.0000 0.13027  0.25104  0.80206  Biso   1.000  C
  C263     1.0000 0.17990  0.20989  0.81699  Biso   1.000  C
  H118     1.0000 0.19100  0.20820  0.84220  Biso   1.000  H
  C264     1.0000 0.21259  0.17143  0.79349  Biso   1.000  C
  C265     1.0000 0.19720  0.17435  0.75543  Biso   1.000  C
  H119     1.0000 0.21890  0.14850  0.74000  Biso   1.000  H
  C266     1.0000 0.14934  0.21598  0.74077  Biso   1.000  C
  C267     1.0000 0.11560  0.25412  0.76431  Biso   1.000  C
  H120     1.0000 0.08300  0.28180  0.75460  Biso   1.000  H
  C268     1.0000 0.09615  0.29419  0.82614  Biso   1.000  C
  C269     1.0000 0.26440  0.12745  0.80970  Biso   1.000  C
  C270     1.0000 0.13614  0.21951  0.69985  Biso   1.000  C
  Ag31     1.0000 0.56703  0.90843  0.84211  Biso   1.000  Ag
  O181     1.0000 0.56642  0.83393  0.81138  Biso   1.000  O
  O182     1.0000 0.60316  0.78766  0.86132  Biso   1.000  O
  O183     1.0000 0.78795  0.62594  0.84207  Biso   1.000  O
  O184     1.0000 0.78140  0.59088  0.78576  Biso   1.000  O
  H121     1.0000 0.81090  0.56820  0.79240  Biso   1.000  H
  O185     1.0000 0.65900  0.68008  0.68134  Biso   1.000  O
  O186     1.0000 0.60399  0.76011  0.68546  Biso   1.000  O
  C271     1.0000 0.63027  0.75104  0.80206  Biso   1.000  C
  C272     1.0000 0.67990  0.70989  0.81699  Biso   1.000  C
  H122     1.0000 0.69100  0.70820  0.84220  Biso   1.000  H
  C273     1.0000 0.71259  0.67143  0.79349  Biso   1.000  C
  C274     1.0000 0.69720  0.67435  0.75543  Biso   1.000  C
  H123     1.0000 0.71890  0.64850  0.74000  Biso   1.000  H
  C275     1.0000 0.64934  0.71598  0.74077  Biso   1.000  C
  C276     1.0000 0.61560  0.75412  0.76431  Biso   1.000  C
  H124     1.0000 0.58300  0.78180  0.75460  Biso   1.000  H
  C277     1.0000 0.59615  0.79419  0.82614  Biso   1.000  C
  C278     1.0000 0.76440  0.62745  0.80970  Biso   1.000  C
  C279     1.0000 0.63614  0.71951  0.69985  Biso   1.000  C
  Ag32     1.0000 0.56703  0.40843  0.34211  Biso   1.000  Ag
  O187     1.0000 0.56642  0.33393  0.31138  Biso   1.000  O
  O188     1.0000 0.60316  0.28766  0.36132  Biso   1.000  O
  O189     1.0000 0.78795  0.12594  0.34207  Biso   1.000  O
  O190     1.0000 0.78140  0.09088  0.28576  Biso   1.000  O
  H125     1.0000 0.81090  0.06820  0.29240  Biso   1.000  H
  O191     1.0000 0.65900  0.18008  0.18134  Biso   1.000  O
  O192     1.0000 0.60399  0.26011  0.18546  Biso   1.000  O
  C280     1.0000 0.63027  0.25104  0.30206  Biso   1.000  C
  C281     1.0000 0.67990  0.20989  0.31699  Biso   1.000  C
  H126     1.0000 0.69100  0.20820  0.34220  Biso   1.000  H
  C282     1.0000 0.71259  0.17143  0.29349  Biso   1.000  C
  C283     1.0000 0.69720  0.17435  0.25543  Biso   1.000  C
  H127     1.0000 0.71890  0.14850  0.24000  Biso   1.000  H
  C284     1.0000 0.64934  0.21598  0.24077  Biso   1.000  C
  C285     1.0000 0.61560  0.25412  0.26431  Biso   1.000  C
  H128     1.0000 0.58300  0.28180  0.25460  Biso   1.000  H
  C286     1.0000 0.59615  0.29419  0.32614  Biso   1.000  C
  C287     1.0000 0.76440  0.12745  0.30970  Biso   1.000  C
  C288     1.0000 0.63614  0.21951  0.19985  Biso   1.000  C
  Ag33     1.0000 0.87500  0.43377  0.87500  Biso   1.000  Ag
  Ag34     1.0000 0.87500  0.93377  0.37500  Biso   1.000  Ag
  Ag35     1.0000 0.37500  0.43377  0.37500  Biso   1.000  Ag
  Ag36     1.0000 0.37500  0.93377  0.87500  Biso   1.000  Ag
  Ag37     1.0000 0.87500  0.31623  0.87500  Biso   1.000  Ag
  Ag38     1.0000 0.87500  0.81623  0.37500  Biso   1.000  Ag
  Ag39     1.0000 0.37500  0.31623  0.37500  Biso   1.000  Ag
  Ag40     1.0000 0.37500  0.81623  0.87500  Biso   1.000  Ag
  Ag41     1.0000 0.12500  0.56623  0.12500  Biso   1.000  Ag
  Ag42     1.0000 0.12500  0.06623  0.62500  Biso   1.000  Ag
  Ag43     1.0000 0.62500  0.56623  0.62500  Biso   1.000  Ag
  Ag44     1.0000 0.62500  0.06623  0.12500  Biso   1.000  Ag
  Ag45     1.0000 0.12500  0.68377  0.12500  Biso   1.000  Ag
  Ag46     1.0000 0.12500  0.18377  0.62500  Biso   1.000  Ag
  Ag47     1.0000 0.62500  0.68377  0.62500  Biso   1.000  Ag
  Ag48     1.0000 0.62500  0.18377  0.12500  Biso   1.000  Ag
