data_image0
_cell_length_a       14.655
_cell_length_b       25.896
_cell_length_c       36.317
_cell_angle_alpha    90
_cell_angle_beta     90
_cell_angle_gamma    90

_symmetry_space_group_name_H-M    "P 1"
_symmetry_int_tables_number       1

loop_
  _symmetry_equiv_pos_as_xyz
  'x, y, z'

loop_
  _atom_site_label
  _atom_site_occupancy
  _atom_site_fract_x
  _atom_site_fract_y
  _atom_site_fract_z
  _atom_site_thermal_displace_type
  _atom_site_B_iso_or_equiv
  _atom_site_type_symbol
  Ag1      1.0000 0.06701  0.34157  0.90793  Biso   1.000  Ag
  O1       1.0000 0.03830  0.37389  0.09204  Biso   1.000  O
  O2       1.0000 0.03140  0.40918  0.03583  Biso   1.000  O
  O3       1.0000 0.85390  0.23993  0.93548  Biso   1.000  O
  O4       1.0000 0.90890  0.31976  0.93143  Biso   1.000  O
  O5       1.0000 0.85310  0.21225  0.11133  Biso   1.000  O
  O6       1.0000 0.81620  0.16610  0.06134  Biso   1.000  O
  C1       1.0000 0.96230  0.32860  0.04341  Biso   1.000  C
  C2       1.0000 0.92960  0.29000  0.06706  Biso   1.000  C
  C3       1.0000 0.88010  0.24910  0.05218  Biso   1.000  C
  C4       1.0000 0.86560  0.24610  0.01432  Biso   1.000  C
  C5       1.0000 0.89930  0.28420  0.99085  Biso   1.000  C
  C6       1.0000 0.94710  0.32570  0.00558  Biso   1.000  C
  C7       1.0000 0.01420  0.37250  0.05974  Biso   1.000  C
  C8       1.0000 0.88610  0.28050  0.94991  Biso   1.000  C
  C9       1.0000 0.84620  0.20580  0.07620  Biso   1.000  C
  H1       1.0000 0.94650  0.29020  0.09120  Biso   1.000  H
  H2       1.0000 0.83760  0.21800  0.00660  Biso   1.000  H
  H3       1.0000 0.97090  0.35410  0.98990  Biso   1.000  H
  H4       1.0000 0.05510  0.43580  0.04120  Biso   1.000  H
  Ag2      1.0000 0.06701  0.84157  0.40793  Biso   1.000  Ag
  O7       1.0000 0.03830  0.87389  0.59204  Biso   1.000  O
  O8       1.0000 0.03140  0.90918  0.53583  Biso   1.000  O
  O9       1.0000 0.85390  0.73993  0.43548  Biso   1.000  O
  O10      1.0000 0.90890  0.81976  0.43143  Biso   1.000  O
  O11      1.0000 0.85310  0.71225  0.61133  Biso   1.000  O
  O12      1.0000 0.81620  0.66610  0.56134  Biso   1.000  O
  C10      1.0000 0.96230  0.82860  0.54341  Biso   1.000  C
  C11      1.0000 0.92960  0.79000  0.56706  Biso   1.000  C
  C12      1.0000 0.88010  0.74910  0.55218  Biso   1.000  C
  C13      1.0000 0.86560  0.74610  0.51432  Biso   1.000  C
  C14      1.0000 0.89930  0.78420  0.49085  Biso   1.000  C
  C15      1.0000 0.94710  0.82570  0.50558  Biso   1.000  C
  C16      1.0000 0.01420  0.87250  0.55974  Biso   1.000  C
  C17      1.0000 0.88610  0.78050  0.44991  Biso   1.000  C
  C18      1.0000 0.84620  0.70580  0.57620  Biso   1.000  C
  H5       1.0000 0.94650  0.79020  0.59120  Biso   1.000  H
  H6       1.0000 0.83760  0.71800  0.50660  Biso   1.000  H
  H7       1.0000 0.97090  0.85410  0.48990  Biso   1.000  H
  H8       1.0000 0.05510  0.93580  0.54120  Biso   1.000  H
  Ag3      1.0000 0.56701  0.34157  0.40793  Biso   1.000  Ag
  O13      1.0000 0.53830  0.37389  0.59204  Biso   1.000  O
  O14      1.0000 0.53140  0.40918  0.53583  Biso   1.000  O
  O15      1.0000 0.35390  0.23993  0.43548  Biso   1.000  O
  O16      1.0000 0.40890  0.31976  0.43143  Biso   1.000  O
  O17      1.0000 0.35310  0.21225  0.61133  Biso   1.000  O
  O18      1.0000 0.31620  0.16610  0.56134  Biso   1.000  O
  C19      1.0000 0.46230  0.32860  0.54341  Biso   1.000  C
  C20      1.0000 0.42960  0.29000  0.56706  Biso   1.000  C
  C21      1.0000 0.38010  0.24910  0.55218  Biso   1.000  C
  C22      1.0000 0.36560  0.24610  0.51432  Biso   1.000  C
  C23      1.0000 0.39930  0.28420  0.49085  Biso   1.000  C
  C24      1.0000 0.44710  0.32570  0.50558  Biso   1.000  C
  C25      1.0000 0.51420  0.37250  0.55974  Biso   1.000  C
  C26      1.0000 0.38610  0.28050  0.44991  Biso   1.000  C
  C27      1.0000 0.34620  0.20580  0.57620  Biso   1.000  C
  H9       1.0000 0.44650  0.29020  0.59120  Biso   1.000  H
  H10      1.0000 0.33760  0.21800  0.50660  Biso   1.000  H
  H11      1.0000 0.47090  0.35410  0.48990  Biso   1.000  H
  H12      1.0000 0.55510  0.43580  0.54120  Biso   1.000  H
  Ag4      1.0000 0.56701  0.84157  0.90793  Biso   1.000  Ag
  O19      1.0000 0.53830  0.87389  0.09204  Biso   1.000  O
  O20      1.0000 0.53140  0.90918  0.03583  Biso   1.000  O
  O21      1.0000 0.35390  0.73993  0.93548  Biso   1.000  O
  O22      1.0000 0.40890  0.81976  0.93143  Biso   1.000  O
  O23      1.0000 0.35310  0.71225  0.11133  Biso   1.000  O
  O24      1.0000 0.31620  0.66610  0.06134  Biso   1.000  O
  C28      1.0000 0.46230  0.82860  0.04341  Biso   1.000  C
  C29      1.0000 0.42960  0.79000  0.06706  Biso   1.000  C
  C30      1.0000 0.38010  0.74910  0.05218  Biso   1.000  C
  C31      1.0000 0.36560  0.74610  0.01432  Biso   1.000  C
  C32      1.0000 0.39930  0.78420  0.99085  Biso   1.000  C
  C33      1.0000 0.44710  0.82570  0.00558  Biso   1.000  C
  C34      1.0000 0.51420  0.87250  0.05974  Biso   1.000  C
  C35      1.0000 0.38610  0.78050  0.94991  Biso   1.000  C
  C36      1.0000 0.34620  0.70580  0.07620  Biso   1.000  C
  H13      1.0000 0.44650  0.79020  0.09120  Biso   1.000  H
  H14      1.0000 0.33760  0.71800  0.00660  Biso   1.000  H
  H15      1.0000 0.47090  0.85410  0.98990  Biso   1.000  H
  H16      1.0000 0.55510  0.93580  0.04120  Biso   1.000  H
  Ag5      1.0000 0.68299  0.40843  0.90793  Biso   1.000  Ag
  O25      1.0000 0.71170  0.37611  0.09204  Biso   1.000  O
  O26      1.0000 0.71860  0.34082  0.03583  Biso   1.000  O
  O27      1.0000 0.89610  0.51007  0.93548  Biso   1.000  O
  O28      1.0000 0.84110  0.43024  0.93143  Biso   1.000  O
  O29      1.0000 0.89690  0.53775  0.11133  Biso   1.000  O
  O30      1.0000 0.93380  0.58390  0.06134  Biso   1.000  O
  C37      1.0000 0.78770  0.42140  0.04341  Biso   1.000  C
  C38      1.0000 0.82040  0.46000  0.06706  Biso   1.000  C
  C39      1.0000 0.86990  0.50090  0.05218  Biso   1.000  C
  C40      1.0000 0.88440  0.50390  0.01432  Biso   1.000  C
  C41      1.0000 0.85070  0.46580  0.99085  Biso   1.000  C
  C42      1.0000 0.80290  0.42430  0.00558  Biso   1.000  C
  C43      1.0000 0.73580  0.37750  0.05974  Biso   1.000  C
  C44      1.0000 0.86390  0.46950  0.94991  Biso   1.000  C
  C45      1.0000 0.90380  0.54420  0.07620  Biso   1.000  C
  H17      1.0000 0.80350  0.45980  0.09120  Biso   1.000  H
  H18      1.0000 0.91240  0.53200  0.00660  Biso   1.000  H
  H19      1.0000 0.77910  0.39590  0.98990  Biso   1.000  H
  H20      1.0000 0.69490  0.31420  0.04120  Biso   1.000  H
  Ag6      1.0000 0.68299  0.90843  0.40793  Biso   1.000  Ag
  O31      1.0000 0.71170  0.87611  0.59204  Biso   1.000  O
  O32      1.0000 0.71860  0.84082  0.53583  Biso   1.000  O
  O33      1.0000 0.89610  0.01007  0.43548  Biso   1.000  O
  O34      1.0000 0.84110  0.93024  0.43143  Biso   1.000  O
  O35      1.0000 0.89690  0.03775  0.61133  Biso   1.000  O
  O36      1.0000 0.93380  0.08390  0.56134  Biso   1.000  O
  C46      1.0000 0.78770  0.92140  0.54341  Biso   1.000  C
  C47      1.0000 0.82040  0.96000  0.56706  Biso   1.000  C
  C48      1.0000 0.86990  0.00090  0.55218  Biso   1.000  C
  C49      1.0000 0.88440  0.00390  0.51432  Biso   1.000  C
  C50      1.0000 0.85070  0.96580  0.49085  Biso   1.000  C
  C51      1.0000 0.80290  0.92430  0.50558  Biso   1.000  C
  C52      1.0000 0.73580  0.87750  0.55974  Biso   1.000  C
  C53      1.0000 0.86390  0.96950  0.44991  Biso   1.000  C
  C54      1.0000 0.90380  0.04420  0.57620  Biso   1.000  C
  H21      1.0000 0.80350  0.95980  0.59120  Biso   1.000  H
  H22      1.0000 0.91240  0.03200  0.50660  Biso   1.000  H
  H23      1.0000 0.77910  0.89590  0.48990  Biso   1.000  H
  H24      1.0000 0.69490  0.81420  0.54120  Biso   1.000  H
  Ag7      1.0000 0.18299  0.40843  0.40793  Biso   1.000  Ag
  O37      1.0000 0.21170  0.37611  0.59204  Biso   1.000  O
  O38      1.0000 0.21860  0.34082  0.53583  Biso   1.000  O
  O39      1.0000 0.39610  0.51007  0.43548  Biso   1.000  O
  O40      1.0000 0.34110  0.43024  0.43143  Biso   1.000  O
  O41      1.0000 0.39690  0.53775  0.61133  Biso   1.000  O
  O42      1.0000 0.43380  0.58390  0.56134  Biso   1.000  O
  C55      1.0000 0.28770  0.42140  0.54341  Biso   1.000  C
  C56      1.0000 0.32040  0.46000  0.56706  Biso   1.000  C
  C57      1.0000 0.36990  0.50090  0.55218  Biso   1.000  C
  C58      1.0000 0.38440  0.50390  0.51432  Biso   1.000  C
  C59      1.0000 0.35070  0.46580  0.49085  Biso   1.000  C
  C60      1.0000 0.30290  0.42430  0.50558  Biso   1.000  C
  C61      1.0000 0.23580  0.37750  0.55974  Biso   1.000  C
  C62      1.0000 0.36390  0.46950  0.44991  Biso   1.000  C
  C63      1.0000 0.40380  0.54420  0.57620  Biso   1.000  C
  H25      1.0000 0.30350  0.45980  0.59120  Biso   1.000  H
  H26      1.0000 0.41240  0.53200  0.50660  Biso   1.000  H
  H27      1.0000 0.27910  0.39590  0.48990  Biso   1.000  H
  H28      1.0000 0.19490  0.31420  0.54120  Biso   1.000  H
  Ag8      1.0000 0.18299  0.90843  0.90793  Biso   1.000  Ag
  O43      1.0000 0.21170  0.87611  0.09204  Biso   1.000  O
  O44      1.0000 0.21860  0.84082  0.03583  Biso   1.000  O
  O45      1.0000 0.39610  0.01007  0.93548  Biso   1.000  O
  O46      1.0000 0.34110  0.93024  0.93143  Biso   1.000  O
  O47      1.0000 0.39690  0.03775  0.11133  Biso   1.000  O
  O48      1.0000 0.43380  0.08390  0.06134  Biso   1.000  O
  C64      1.0000 0.28770  0.92140  0.04341  Biso   1.000  C
  C65      1.0000 0.32040  0.96000  0.06706  Biso   1.000  C
  C66      1.0000 0.36990  0.00090  0.05218  Biso   1.000  C
  C67      1.0000 0.38440  0.00390  0.01432  Biso   1.000  C
  C68      1.0000 0.35070  0.96580  0.99085  Biso   1.000  C
  C69      1.0000 0.30290  0.92430  0.00558  Biso   1.000  C
  C70      1.0000 0.23580  0.87750  0.05974  Biso   1.000  C
  C71      1.0000 0.36390  0.96950  0.94991  Biso   1.000  C
  C72      1.0000 0.40380  0.04420  0.07620  Biso   1.000  C
  H29      1.0000 0.30350  0.95980  0.09120  Biso   1.000  H
  H30      1.0000 0.41240  0.03200  0.00660  Biso   1.000  H
  H31      1.0000 0.27910  0.89590  0.98990  Biso   1.000  H
  H32      1.0000 0.19490  0.81420  0.04120  Biso   1.000  H
  Ag9      1.0000 0.68299  0.34157  0.84207  Biso   1.000  Ag
  O49      1.0000 0.71170  0.37389  0.65796  Biso   1.000  O
  O50      1.0000 0.71860  0.40918  0.71417  Biso   1.000  O
  O51      1.0000 0.89610  0.23993  0.81452  Biso   1.000  O
  O52      1.0000 0.84110  0.31976  0.81857  Biso   1.000  O
  O53      1.0000 0.89690  0.21225  0.63867  Biso   1.000  O
  O54      1.0000 0.93380  0.16610  0.68866  Biso   1.000  O
  C73      1.0000 0.78770  0.32860  0.70659  Biso   1.000  C
  C74      1.0000 0.82040  0.29000  0.68294  Biso   1.000  C
  C75      1.0000 0.86990  0.24910  0.69782  Biso   1.000  C
  C76      1.0000 0.88440  0.24610  0.73568  Biso   1.000  C
  C77      1.0000 0.85070  0.28420  0.75915  Biso   1.000  C
  C78      1.0000 0.80290  0.32570  0.74442  Biso   1.000  C
  C79      1.0000 0.73580  0.37250  0.69026  Biso   1.000  C
  C80      1.0000 0.86390  0.28050  0.80009  Biso   1.000  C
  C81      1.0000 0.90380  0.20580  0.67380  Biso   1.000  C
  H33      1.0000 0.80350  0.29020  0.65880  Biso   1.000  H
  H34      1.0000 0.91240  0.21800  0.74340  Biso   1.000  H
  H35      1.0000 0.77910  0.35410  0.76010  Biso   1.000  H
  H36      1.0000 0.69490  0.43580  0.70880  Biso   1.000  H
  Ag10     1.0000 0.68299  0.84157  0.34207  Biso   1.000  Ag
  O55      1.0000 0.71170  0.87389  0.15796  Biso   1.000  O
  O56      1.0000 0.71860  0.90918  0.21417  Biso   1.000  O
  O57      1.0000 0.89610  0.73993  0.31452  Biso   1.000  O
  O58      1.0000 0.84110  0.81976  0.31857  Biso   1.000  O
  O59      1.0000 0.89690  0.71225  0.13867  Biso   1.000  O
  O60      1.0000 0.93380  0.66610  0.18866  Biso   1.000  O
  C82      1.0000 0.78770  0.82860  0.20659  Biso   1.000  C
  C83      1.0000 0.82040  0.79000  0.18294  Biso   1.000  C
  C84      1.0000 0.86990  0.74910  0.19782  Biso   1.000  C
  C85      1.0000 0.88440  0.74610  0.23568  Biso   1.000  C
  C86      1.0000 0.85070  0.78420  0.25915  Biso   1.000  C
  C87      1.0000 0.80290  0.82570  0.24442  Biso   1.000  C
  C88      1.0000 0.73580  0.87250  0.19026  Biso   1.000  C
  C89      1.0000 0.86390  0.78050  0.30009  Biso   1.000  C
  C90      1.0000 0.90380  0.70580  0.17380  Biso   1.000  C
  H37      1.0000 0.80350  0.79020  0.15880  Biso   1.000  H
  H38      1.0000 0.91240  0.71800  0.24340  Biso   1.000  H
  H39      1.0000 0.77910  0.85410  0.26010  Biso   1.000  H
  H40      1.0000 0.69490  0.93580  0.20880  Biso   1.000  H
  Ag11     1.0000 0.18299  0.34157  0.34207  Biso   1.000  Ag
  O61      1.0000 0.21170  0.37389  0.15796  Biso   1.000  O
  O62      1.0000 0.21860  0.40918  0.21417  Biso   1.000  O
  O63      1.0000 0.39610  0.23993  0.31452  Biso   1.000  O
  O64      1.0000 0.34110  0.31976  0.31857  Biso   1.000  O
  O65      1.0000 0.39690  0.21225  0.13867  Biso   1.000  O
  O66      1.0000 0.43380  0.16610  0.18866  Biso   1.000  O
  C91      1.0000 0.28770  0.32860  0.20659  Biso   1.000  C
  C92      1.0000 0.32040  0.29000  0.18294  Biso   1.000  C
  C93      1.0000 0.36990  0.24910  0.19782  Biso   1.000  C
  C94      1.0000 0.38440  0.24610  0.23568  Biso   1.000  C
  C95      1.0000 0.35070  0.28420  0.25915  Biso   1.000  C
  C96      1.0000 0.30290  0.32570  0.24442  Biso   1.000  C
  C97      1.0000 0.23580  0.37250  0.19026  Biso   1.000  C
  C98      1.0000 0.36390  0.28050  0.30009  Biso   1.000  C
  C99      1.0000 0.40380  0.20580  0.17380  Biso   1.000  C
  H41      1.0000 0.30350  0.29020  0.15880  Biso   1.000  H
  H42      1.0000 0.41240  0.21800  0.24340  Biso   1.000  H
  H43      1.0000 0.27910  0.35410  0.26010  Biso   1.000  H
  H44      1.0000 0.19490  0.43580  0.20880  Biso   1.000  H
  Ag12     1.0000 0.18299  0.84157  0.84207  Biso   1.000  Ag
  O67      1.0000 0.21170  0.87389  0.65796  Biso   1.000  O
  O68      1.0000 0.21860  0.90918  0.71417  Biso   1.000  O
  O69      1.0000 0.39610  0.73993  0.81452  Biso   1.000  O
  O70      1.0000 0.34110  0.81976  0.81857  Biso   1.000  O
  O71      1.0000 0.39690  0.71225  0.63867  Biso   1.000  O
  O72      1.0000 0.43380  0.66610  0.68866  Biso   1.000  O
  C100     1.0000 0.28770  0.82860  0.70659  Biso   1.000  C
  C101     1.0000 0.32040  0.79000  0.68294  Biso   1.000  C
  C102     1.0000 0.36990  0.74910  0.69782  Biso   1.000  C
  C103     1.0000 0.38440  0.74610  0.73568  Biso   1.000  C
  C104     1.0000 0.35070  0.78420  0.75915  Biso   1.000  C
  C105     1.0000 0.30290  0.82570  0.74442  Biso   1.000  C
  C106     1.0000 0.23580  0.87250  0.69026  Biso   1.000  C
  C107     1.0000 0.36390  0.78050  0.80009  Biso   1.000  C
  C108     1.0000 0.40380  0.70580  0.67380  Biso   1.000  C
  H45      1.0000 0.30350  0.79020  0.65880  Biso   1.000  H
  H46      1.0000 0.41240  0.71800  0.74340  Biso   1.000  H
  H47      1.0000 0.27910  0.85410  0.76010  Biso   1.000  H
  H48      1.0000 0.19490  0.93580  0.70880  Biso   1.000  H
  Ag13     1.0000 0.06701  0.40843  0.84207  Biso   1.000  Ag
  O73      1.0000 0.03830  0.37611  0.65796  Biso   1.000  O
  O74      1.0000 0.03140  0.34082  0.71417  Biso   1.000  O
  O75      1.0000 0.85390  0.51007  0.81452  Biso   1.000  O
  O76      1.0000 0.90890  0.43024  0.81857  Biso   1.000  O
  O77      1.0000 0.85310  0.53775  0.63867  Biso   1.000  O
  O78      1.0000 0.81620  0.58390  0.68866  Biso   1.000  O
  C109     1.0000 0.96230  0.42140  0.70659  Biso   1.000  C
  C110     1.0000 0.92960  0.46000  0.68294  Biso   1.000  C
  C111     1.0000 0.88010  0.50090  0.69782  Biso   1.000  C
  C112     1.0000 0.86560  0.50390  0.73568  Biso   1.000  C
  C113     1.0000 0.89930  0.46580  0.75915  Biso   1.000  C
  C114     1.0000 0.94710  0.42430  0.74442  Biso   1.000  C
  C115     1.0000 0.01420  0.37750  0.69026  Biso   1.000  C
  C116     1.0000 0.88610  0.46950  0.80009  Biso   1.000  C
  C117     1.0000 0.84620  0.54420  0.67380  Biso   1.000  C
  H49      1.0000 0.94650  0.45980  0.65880  Biso   1.000  H
  H50      1.0000 0.83760  0.53200  0.74340  Biso   1.000  H
  H51      1.0000 0.97090  0.39590  0.76010  Biso   1.000  H
  H52      1.0000 0.05510  0.31420  0.70880  Biso   1.000  H
  Ag14     1.0000 0.06701  0.90843  0.34207  Biso   1.000  Ag
  O79      1.0000 0.03830  0.87611  0.15796  Biso   1.000  O
  O80      1.0000 0.03140  0.84082  0.21417  Biso   1.000  O
  O81      1.0000 0.85390  0.01007  0.31452  Biso   1.000  O
  O82      1.0000 0.90890  0.93024  0.31857  Biso   1.000  O
  O83      1.0000 0.85310  0.03775  0.13867  Biso   1.000  O
  O84      1.0000 0.81620  0.08390  0.18866  Biso   1.000  O
  C118     1.0000 0.96230  0.92140  0.20659  Biso   1.000  C
  C119     1.0000 0.92960  0.96000  0.18294  Biso   1.000  C
  C120     1.0000 0.88010  0.00090  0.19782  Biso   1.000  C
  C121     1.0000 0.86560  0.00390  0.23568  Biso   1.000  C
  C122     1.0000 0.89930  0.96580  0.25915  Biso   1.000  C
  C123     1.0000 0.94710  0.92430  0.24442  Biso   1.000  C
  C124     1.0000 0.01420  0.87750  0.19026  Biso   1.000  C
  C125     1.0000 0.88610  0.96950  0.30009  Biso   1.000  C
  C126     1.0000 0.84620  0.04420  0.17380  Biso   1.000  C
  H53      1.0000 0.94650  0.95980  0.15880  Biso   1.000  H
  H54      1.0000 0.83760  0.03200  0.24340  Biso   1.000  H
  H55      1.0000 0.97090  0.89590  0.26010  Biso   1.000  H
  H56      1.0000 0.05510  0.81420  0.20880  Biso   1.000  H
  Ag15     1.0000 0.56701  0.40843  0.34207  Biso   1.000  Ag
  O85      1.0000 0.53830  0.37611  0.15796  Biso   1.000  O
  O86      1.0000 0.53140  0.34082  0.21417  Biso   1.000  O
  O87      1.0000 0.35390  0.51007  0.31452  Biso   1.000  O
  O88      1.0000 0.40890  0.43024  0.31857  Biso   1.000  O
  O89      1.0000 0.35310  0.53775  0.13867  Biso   1.000  O
  O90      1.0000 0.31620  0.58390  0.18866  Biso   1.000  O
  C127     1.0000 0.46230  0.42140  0.20659  Biso   1.000  C
  C128     1.0000 0.42960  0.46000  0.18294  Biso   1.000  C
  C129     1.0000 0.38010  0.50090  0.19782  Biso   1.000  C
  C130     1.0000 0.36560  0.50390  0.23568  Biso   1.000  C
  C131     1.0000 0.39930  0.46580  0.25915  Biso   1.000  C
  C132     1.0000 0.44710  0.42430  0.24442  Biso   1.000  C
  C133     1.0000 0.51420  0.37750  0.19026  Biso   1.000  C
  C134     1.0000 0.38610  0.46950  0.30009  Biso   1.000  C
  C135     1.0000 0.34620  0.54420  0.17380  Biso   1.000  C
  H57      1.0000 0.44650  0.45980  0.15880  Biso   1.000  H
  H58      1.0000 0.33760  0.53200  0.24340  Biso   1.000  H
  H59      1.0000 0.47090  0.39590  0.26010  Biso   1.000  H
  H60      1.0000 0.55510  0.31420  0.20880  Biso   1.000  H
  Ag16     1.0000 0.56701  0.90843  0.84207  Biso   1.000  Ag
  O91      1.0000 0.53830  0.87611  0.65796  Biso   1.000  O
  O92      1.0000 0.53140  0.84082  0.71417  Biso   1.000  O
  O93      1.0000 0.35390  0.01007  0.81452  Biso   1.000  O
  O94      1.0000 0.40890  0.93024  0.81857  Biso   1.000  O
  O95      1.0000 0.35310  0.03775  0.63867  Biso   1.000  O
  O96      1.0000 0.31620  0.08390  0.68866  Biso   1.000  O
  C136     1.0000 0.46230  0.92140  0.70659  Biso   1.000  C
  C137     1.0000 0.42960  0.96000  0.68294  Biso   1.000  C
  C138     1.0000 0.38010  0.00090  0.69782  Biso   1.000  C
  C139     1.0000 0.36560  0.00390  0.73568  Biso   1.000  C
  C140     1.0000 0.39930  0.96580  0.75915  Biso   1.000  C
  C141     1.0000 0.44710  0.92430  0.74442  Biso   1.000  C
  C142     1.0000 0.51420  0.87750  0.69026  Biso   1.000  C
  C143     1.0000 0.38610  0.96950  0.80009  Biso   1.000  C
  C144     1.0000 0.34620  0.04420  0.67380  Biso   1.000  C
  H61      1.0000 0.44650  0.95980  0.65880  Biso   1.000  H
  H62      1.0000 0.33760  0.03200  0.74340  Biso   1.000  H
  H63      1.0000 0.47090  0.89590  0.76010  Biso   1.000  H
  H64      1.0000 0.55510  0.81420  0.70880  Biso   1.000  H
  Ag17     1.0000 0.93299  0.65843  0.09207  Biso   1.000  Ag
  O97      1.0000 0.96170  0.62611  0.90796  Biso   1.000  O
  O98      1.0000 0.96860  0.59082  0.96417  Biso   1.000  O
  O99      1.0000 0.14610  0.76007  0.06452  Biso   1.000  O
  O100     1.0000 0.09110  0.68024  0.06857  Biso   1.000  O
  O101     1.0000 0.14690  0.78775  0.88867  Biso   1.000  O
  O102     1.0000 0.18380  0.83390  0.93866  Biso   1.000  O
  C145     1.0000 0.03770  0.67140  0.95659  Biso   1.000  C
  C146     1.0000 0.07040  0.71000  0.93294  Biso   1.000  C
  C147     1.0000 0.11990  0.75090  0.94782  Biso   1.000  C
  C148     1.0000 0.13440  0.75390  0.98568  Biso   1.000  C
  C149     1.0000 0.10070  0.71580  0.00915  Biso   1.000  C
  C150     1.0000 0.05290  0.67430  0.99442  Biso   1.000  C
  C151     1.0000 0.98580  0.62750  0.94026  Biso   1.000  C
  C152     1.0000 0.11390  0.71950  0.05009  Biso   1.000  C
  C153     1.0000 0.15380  0.79420  0.92380  Biso   1.000  C
  H65      1.0000 0.05350  0.70980  0.90880  Biso   1.000  H
  H66      1.0000 0.16240  0.78200  0.99340  Biso   1.000  H
  H67      1.0000 0.02910  0.64590  0.01010  Biso   1.000  H
  H68      1.0000 0.94490  0.56420  0.95880  Biso   1.000  H
  Ag18     1.0000 0.93299  0.15843  0.59207  Biso   1.000  Ag
  O103     1.0000 0.96170  0.12611  0.40796  Biso   1.000  O
  O104     1.0000 0.96860  0.09082  0.46417  Biso   1.000  O
  O105     1.0000 0.14610  0.26007  0.56452  Biso   1.000  O
  O106     1.0000 0.09110  0.18024  0.56857  Biso   1.000  O
  O107     1.0000 0.14690  0.28775  0.38867  Biso   1.000  O
  O108     1.0000 0.18380  0.33390  0.43866  Biso   1.000  O
  C154     1.0000 0.03770  0.17140  0.45659  Biso   1.000  C
  C155     1.0000 0.07040  0.21000  0.43294  Biso   1.000  C
  C156     1.0000 0.11990  0.25090  0.44782  Biso   1.000  C
  C157     1.0000 0.13440  0.25390  0.48568  Biso   1.000  C
  C158     1.0000 0.10070  0.21580  0.50915  Biso   1.000  C
  C159     1.0000 0.05290  0.17430  0.49442  Biso   1.000  C
  C160     1.0000 0.98580  0.12750  0.44026  Biso   1.000  C
  C161     1.0000 0.11390  0.21950  0.55009  Biso   1.000  C
  C162     1.0000 0.15380  0.29420  0.42380  Biso   1.000  C
  H69      1.0000 0.05350  0.20980  0.40880  Biso   1.000  H
  H70      1.0000 0.16240  0.28200  0.49340  Biso   1.000  H
  H71      1.0000 0.02910  0.14590  0.51010  Biso   1.000  H
  H72      1.0000 0.94490  0.06420  0.45880  Biso   1.000  H
  Ag19     1.0000 0.43299  0.65843  0.59207  Biso   1.000  Ag
  O109     1.0000 0.46170  0.62611  0.40796  Biso   1.000  O
  O110     1.0000 0.46860  0.59082  0.46417  Biso   1.000  O
  O111     1.0000 0.64610  0.76007  0.56452  Biso   1.000  O
  O112     1.0000 0.59110  0.68024  0.56857  Biso   1.000  O
  O113     1.0000 0.64690  0.78775  0.38867  Biso   1.000  O
  O114     1.0000 0.68380  0.83390  0.43866  Biso   1.000  O
  C163     1.0000 0.53770  0.67140  0.45659  Biso   1.000  C
  C164     1.0000 0.57040  0.71000  0.43294  Biso   1.000  C
  C165     1.0000 0.61990  0.75090  0.44782  Biso   1.000  C
  C166     1.0000 0.63440  0.75390  0.48568  Biso   1.000  C
  C167     1.0000 0.60070  0.71580  0.50915  Biso   1.000  C
  C168     1.0000 0.55290  0.67430  0.49442  Biso   1.000  C
  C169     1.0000 0.48580  0.62750  0.44026  Biso   1.000  C
  C170     1.0000 0.61390  0.71950  0.55009  Biso   1.000  C
  C171     1.0000 0.65380  0.79420  0.42380  Biso   1.000  C
  H73      1.0000 0.55350  0.70980  0.40880  Biso   1.000  H
  H74      1.0000 0.66240  0.78200  0.49340  Biso   1.000  H
  H75      1.0000 0.52910  0.64590  0.51010  Biso   1.000  H
  H76      1.0000 0.44490  0.56420  0.45880  Biso   1.000  H
  Ag20     1.0000 0.43299  0.15843  0.09207  Biso   1.000  Ag
  O115     1.0000 0.46170  0.12611  0.90796  Biso   1.000  O
  O116     1.0000 0.46860  0.09082  0.96417  Biso   1.000  O
  O117     1.0000 0.64610  0.26007  0.06452  Biso   1.000  O
  O118     1.0000 0.59110  0.18024  0.06857  Biso   1.000  O
  O119     1.0000 0.64690  0.28775  0.88867  Biso   1.000  O
  O120     1.0000 0.68380  0.33390  0.93866  Biso   1.000  O
  C172     1.0000 0.53770  0.17140  0.95659  Biso   1.000  C
  C173     1.0000 0.57040  0.21000  0.93294  Biso   1.000  C
  C174     1.0000 0.61990  0.25090  0.94782  Biso   1.000  C
  C175     1.0000 0.63440  0.25390  0.98568  Biso   1.000  C
  C176     1.0000 0.60070  0.21580  0.00915  Biso   1.000  C
  C177     1.0000 0.55290  0.17430  0.99442  Biso   1.000  C
  C178     1.0000 0.48580  0.12750  0.94026  Biso   1.000  C
  C179     1.0000 0.61390  0.21950  0.05009  Biso   1.000  C
  C180     1.0000 0.65380  0.29420  0.92380  Biso   1.000  C
  H77      1.0000 0.55350  0.20980  0.90880  Biso   1.000  H
  H78      1.0000 0.66240  0.28200  0.99340  Biso   1.000  H
  H79      1.0000 0.52910  0.14590  0.01010  Biso   1.000  H
  H80      1.0000 0.44490  0.06420  0.95880  Biso   1.000  H
  Ag21     1.0000 0.31701  0.59157  0.09207  Biso   1.000  Ag
  O121     1.0000 0.28830  0.62389  0.90796  Biso   1.000  O
  O122     1.0000 0.28140  0.65918  0.96417  Biso   1.000  O
  O123     1.0000 0.10390  0.48993  0.06452  Biso   1.000  O
  O124     1.0000 0.15890  0.56976  0.06857  Biso   1.000  O
  O125     1.0000 0.10310  0.46225  0.88867  Biso   1.000  O
  O126     1.0000 0.06620  0.41610  0.93866  Biso   1.000  O
  C181     1.0000 0.21230  0.57860  0.95659  Biso   1.000  C
  C182     1.0000 0.17960  0.54000  0.93294  Biso   1.000  C
  C183     1.0000 0.13010  0.49910  0.94782  Biso   1.000  C
  C184     1.0000 0.11560  0.49610  0.98568  Biso   1.000  C
  C185     1.0000 0.14930  0.53420  0.00915  Biso   1.000  C
  C186     1.0000 0.19710  0.57570  0.99442  Biso   1.000  C
  C187     1.0000 0.26420  0.62250  0.94026  Biso   1.000  C
  C188     1.0000 0.13610  0.53050  0.05009  Biso   1.000  C
  C189     1.0000 0.09620  0.45580  0.92380  Biso   1.000  C
  H81      1.0000 0.19650  0.54020  0.90880  Biso   1.000  H
  H82      1.0000 0.08760  0.46800  0.99340  Biso   1.000  H
  H83      1.0000 0.22090  0.60410  0.01010  Biso   1.000  H
  H84      1.0000 0.30510  0.68580  0.95880  Biso   1.000  H
  Ag22     1.0000 0.31701  0.09157  0.59207  Biso   1.000  Ag
  O127     1.0000 0.28830  0.12389  0.40796  Biso   1.000  O
  O128     1.0000 0.28140  0.15918  0.46417  Biso   1.000  O
  O129     1.0000 0.10390  0.98993  0.56452  Biso   1.000  O
  O130     1.0000 0.15890  0.06976  0.56857  Biso   1.000  O
  O131     1.0000 0.10310  0.96225  0.38867  Biso   1.000  O
  O132     1.0000 0.06620  0.91610  0.43866  Biso   1.000  O
  C190     1.0000 0.21230  0.07860  0.45659  Biso   1.000  C
  C191     1.0000 0.17960  0.04000  0.43294  Biso   1.000  C
  C192     1.0000 0.13010  0.99910  0.44782  Biso   1.000  C
  C193     1.0000 0.11560  0.99610  0.48568  Biso   1.000  C
  C194     1.0000 0.14930  0.03420  0.50915  Biso   1.000  C
  C195     1.0000 0.19710  0.07570  0.49442  Biso   1.000  C
  C196     1.0000 0.26420  0.12250  0.44026  Biso   1.000  C
  C197     1.0000 0.13610  0.03050  0.55009  Biso   1.000  C
  C198     1.0000 0.09620  0.95580  0.42380  Biso   1.000  C
  H85      1.0000 0.19650  0.04020  0.40880  Biso   1.000  H
  H86      1.0000 0.08760  0.96800  0.49340  Biso   1.000  H
  H87      1.0000 0.22090  0.10410  0.51010  Biso   1.000  H
  H88      1.0000 0.30510  0.18580  0.45880  Biso   1.000  H
  Ag23     1.0000 0.81701  0.59157  0.59207  Biso   1.000  Ag
  O133     1.0000 0.78830  0.62389  0.40796  Biso   1.000  O
  O134     1.0000 0.78140  0.65918  0.46417  Biso   1.000  O
  O135     1.0000 0.60390  0.48993  0.56452  Biso   1.000  O
  O136     1.0000 0.65890  0.56976  0.56857  Biso   1.000  O
  O137     1.0000 0.60310  0.46225  0.38867  Biso   1.000  O
  O138     1.0000 0.56620  0.41610  0.43866  Biso   1.000  O
  C199     1.0000 0.71230  0.57860  0.45659  Biso   1.000  C
  C200     1.0000 0.67960  0.54000  0.43294  Biso   1.000  C
  C201     1.0000 0.63010  0.49910  0.44782  Biso   1.000  C
  C202     1.0000 0.61560  0.49610  0.48568  Biso   1.000  C
  C203     1.0000 0.64930  0.53420  0.50915  Biso   1.000  C
  C204     1.0000 0.69710  0.57570  0.49442  Biso   1.000  C
  C205     1.0000 0.76420  0.62250  0.44026  Biso   1.000  C
  C206     1.0000 0.63610  0.53050  0.55009  Biso   1.000  C
  C207     1.0000 0.59620  0.45580  0.42380  Biso   1.000  C
  H89      1.0000 0.69650  0.54020  0.40880  Biso   1.000  H
  H90      1.0000 0.58760  0.46800  0.49340  Biso   1.000  H
  H91      1.0000 0.72090  0.60410  0.51010  Biso   1.000  H
  H92      1.0000 0.80510  0.68580  0.45880  Biso   1.000  H
  Ag24     1.0000 0.81701  0.09157  0.09207  Biso   1.000  Ag
  O139     1.0000 0.78830  0.12389  0.90796  Biso   1.000  O
  O140     1.0000 0.78140  0.15918  0.96417  Biso   1.000  O
  O141     1.0000 0.60390  0.98993  0.06452  Biso   1.000  O
  O142     1.0000 0.65890  0.06976  0.06857  Biso   1.000  O
  O143     1.0000 0.60310  0.96225  0.88867  Biso   1.000  O
  O144     1.0000 0.56620  0.91610  0.93866  Biso   1.000  O
  C208     1.0000 0.71230  0.07860  0.95659  Biso   1.000  C
  C209     1.0000 0.67960  0.04000  0.93294  Biso   1.000  C
  C210     1.0000 0.63010  0.99910  0.94782  Biso   1.000  C
  C211     1.0000 0.61560  0.99610  0.98568  Biso   1.000  C
  C212     1.0000 0.64930  0.03420  0.00915  Biso   1.000  C
  C213     1.0000 0.69710  0.07570  0.99442  Biso   1.000  C
  C214     1.0000 0.76420  0.12250  0.94026  Biso   1.000  C
  C215     1.0000 0.63610  0.03050  0.05009  Biso   1.000  C
  C216     1.0000 0.59620  0.95580  0.92380  Biso   1.000  C
  H93      1.0000 0.69650  0.04020  0.90880  Biso   1.000  H
  H94      1.0000 0.58760  0.96800  0.99340  Biso   1.000  H
  H95      1.0000 0.72090  0.10410  0.01010  Biso   1.000  H
  H96      1.0000 0.80510  0.18580  0.95880  Biso   1.000  H
  Ag25     1.0000 0.31701  0.65843  0.15793  Biso   1.000  Ag
  O145     1.0000 0.28830  0.62611  0.34204  Biso   1.000  O
  O146     1.0000 0.28140  0.59082  0.28583  Biso   1.000  O
  O147     1.0000 0.10390  0.76007  0.18548  Biso   1.000  O
  O148     1.0000 0.15890  0.68024  0.18143  Biso   1.000  O
  O149     1.0000 0.10310  0.78775  0.36133  Biso   1.000  O
  O150     1.0000 0.06620  0.83390  0.31134  Biso   1.000  O
  C217     1.0000 0.21230  0.67140  0.29341  Biso   1.000  C
  C218     1.0000 0.17960  0.71000  0.31706  Biso   1.000  C
  C219     1.0000 0.13010  0.75090  0.30218  Biso   1.000  C
  C220     1.0000 0.11560  0.75390  0.26432  Biso   1.000  C
  C221     1.0000 0.14930  0.71580  0.24085  Biso   1.000  C
  C222     1.0000 0.19710  0.67430  0.25558  Biso   1.000  C
  C223     1.0000 0.26420  0.62750  0.30974  Biso   1.000  C
  C224     1.0000 0.13610  0.71950  0.19991  Biso   1.000  C
  C225     1.0000 0.09620  0.79420  0.32620  Biso   1.000  C
  H97      1.0000 0.19650  0.70980  0.34120  Biso   1.000  H
  H98      1.0000 0.08760  0.78200  0.25660  Biso   1.000  H
  H99      1.0000 0.22090  0.64590  0.23990  Biso   1.000  H
  H100     1.0000 0.30510  0.56420  0.29120  Biso   1.000  H
  Ag26     1.0000 0.31701  0.15843  0.65793  Biso   1.000  Ag
  O151     1.0000 0.28830  0.12611  0.84204  Biso   1.000  O
  O152     1.0000 0.28140  0.09082  0.78583  Biso   1.000  O
  O153     1.0000 0.10390  0.26007  0.68548  Biso   1.000  O
  O154     1.0000 0.15890  0.18024  0.68143  Biso   1.000  O
  O155     1.0000 0.10310  0.28775  0.86133  Biso   1.000  O
  O156     1.0000 0.06620  0.33390  0.81134  Biso   1.000  O
  C226     1.0000 0.21230  0.17140  0.79341  Biso   1.000  C
  C227     1.0000 0.17960  0.21000  0.81706  Biso   1.000  C
  C228     1.0000 0.13010  0.25090  0.80218  Biso   1.000  C
  C229     1.0000 0.11560  0.25390  0.76432  Biso   1.000  C
  C230     1.0000 0.14930  0.21580  0.74085  Biso   1.000  C
  C231     1.0000 0.19710  0.17430  0.75558  Biso   1.000  C
  C232     1.0000 0.26420  0.12750  0.80974  Biso   1.000  C
  C233     1.0000 0.13610  0.21950  0.69991  Biso   1.000  C
  C234     1.0000 0.09620  0.29420  0.82620  Biso   1.000  C
  H101     1.0000 0.19650  0.20980  0.84120  Biso   1.000  H
  H102     1.0000 0.08760  0.28200  0.75660  Biso   1.000  H
  H103     1.0000 0.22090  0.14590  0.73990  Biso   1.000  H
  H104     1.0000 0.30510  0.06420  0.79120  Biso   1.000  H
  Ag27     1.0000 0.81701  0.65843  0.65793  Biso   1.000  Ag
  O157     1.0000 0.78830  0.62611  0.84204  Biso   1.000  O
  O158     1.0000 0.78140  0.59082  0.78583  Biso   1.000  O
  O159     1.0000 0.60390  0.76007  0.68548  Biso   1.000  O
  O160     1.0000 0.65890  0.68024  0.68143  Biso   1.000  O
  O161     1.0000 0.60310  0.78775  0.86133  Biso   1.000  O
  O162     1.0000 0.56620  0.83390  0.81134  Biso   1.000  O
  C235     1.0000 0.71230  0.67140  0.79341  Biso   1.000  C
  C236     1.0000 0.67960  0.71000  0.81706  Biso   1.000  C
  C237     1.0000 0.63010  0.75090  0.80218  Biso   1.000  C
  C238     1.0000 0.61560  0.75390  0.76432  Biso   1.000  C
  C239     1.0000 0.64930  0.71580  0.74085  Biso   1.000  C
  C240     1.0000 0.69710  0.67430  0.75558  Biso   1.000  C
  C241     1.0000 0.76420  0.62750  0.80974  Biso   1.000  C
  C242     1.0000 0.63610  0.71950  0.69991  Biso   1.000  C
  C243     1.0000 0.59620  0.79420  0.82620  Biso   1.000  C
  H105     1.0000 0.69650  0.70980  0.84120  Biso   1.000  H
  H106     1.0000 0.58760  0.78200  0.75660  Biso   1.000  H
  H107     1.0000 0.72090  0.64590  0.73990  Biso   1.000  H
  H108     1.0000 0.80510  0.56420  0.79120  Biso   1.000  H
  Ag28     1.0000 0.81701  0.15843  0.15793  Biso   1.000  Ag
  O163     1.0000 0.78830  0.12611  0.34204  Biso   1.000  O
  O164     1.0000 0.78140  0.09082  0.28583  Biso   1.000  O
  O165     1.0000 0.60390  0.26007  0.18548  Biso   1.000  O
  O166     1.0000 0.65890  0.18024  0.18143  Biso   1.000  O
  O167     1.0000 0.60310  0.28775  0.36133  Biso   1.000  O
  O168     1.0000 0.56620  0.33390  0.31134  Biso   1.000  O
  C244     1.0000 0.71230  0.17140  0.29341  Biso   1.000  C
  C245     1.0000 0.67960  0.21000  0.31706  Biso   1.000  C
  C246     1.0000 0.63010  0.25090  0.30218  Biso   1.000  C
  C247     1.0000 0.61560  0.25390  0.26432  Biso   1.000  C
  C248     1.0000 0.64930  0.21580  0.24085  Biso   1.000  C
  C249     1.0000 0.69710  0.17430  0.25558  Biso   1.000  C
  C250     1.0000 0.76420  0.12750  0.30974  Biso   1.000  C
  C251     1.0000 0.63610  0.21950  0.19991  Biso   1.000  C
  C252     1.0000 0.59620  0.29420  0.32620  Biso   1.000  C
  H109     1.0000 0.69650  0.20980  0.34120  Biso   1.000  H
  H110     1.0000 0.58760  0.28200  0.25660  Biso   1.000  H
  H111     1.0000 0.72090  0.14590  0.23990  Biso   1.000  H
  H112     1.0000 0.80510  0.06420  0.29120  Biso   1.000  H
  Ag29     1.0000 0.93299  0.59157  0.15793  Biso   1.000  Ag
  O169     1.0000 0.96170  0.62389  0.34204  Biso   1.000  O
  O170     1.0000 0.96860  0.65918  0.28583  Biso   1.000  O
  O171     1.0000 0.14610  0.48993  0.18548  Biso   1.000  O
  O172     1.0000 0.09110  0.56976  0.18143  Biso   1.000  O
  O173     1.0000 0.14690  0.46225  0.36133  Biso   1.000  O
  O174     1.0000 0.18380  0.41610  0.31134  Biso   1.000  O
  C253     1.0000 0.03770  0.57860  0.29341  Biso   1.000  C
  C254     1.0000 0.07040  0.54000  0.31706  Biso   1.000  C
  C255     1.0000 0.11990  0.49910  0.30218  Biso   1.000  C
  C256     1.0000 0.13440  0.49610  0.26432  Biso   1.000  C
  C257     1.0000 0.10070  0.53420  0.24085  Biso   1.000  C
  C258     1.0000 0.05290  0.57570  0.25558  Biso   1.000  C
  C259     1.0000 0.98580  0.62250  0.30974  Biso   1.000  C
  C260     1.0000 0.11390  0.53050  0.19991  Biso   1.000  C
  C261     1.0000 0.15380  0.45580  0.32620  Biso   1.000  C
  H113     1.0000 0.05350  0.54020  0.34120  Biso   1.000  H
  H114     1.0000 0.16240  0.46800  0.25660  Biso   1.000  H
  H115     1.0000 0.02910  0.60410  0.23990  Biso   1.000  H
  H116     1.0000 0.94490  0.68580  0.29120  Biso   1.000  H
  Ag30     1.0000 0.93299  0.09157  0.65793  Biso   1.000  Ag
  O175     1.0000 0.96170  0.12389  0.84204  Biso   1.000  O
  O176     1.0000 0.96860  0.15918  0.78583  Biso   1.000  O
  O177     1.0000 0.14610  0.98993  0.68548  Biso   1.000  O
  O178     1.0000 0.09110  0.06976  0.68143  Biso   1.000  O
  O179     1.0000 0.14690  0.96225  0.86133  Biso   1.000  O
  O180     1.0000 0.18380  0.91610  0.81134  Biso   1.000  O
  C262     1.0000 0.03770  0.07860  0.79341  Biso   1.000  C
  C263     1.0000 0.07040  0.04000  0.81706  Biso   1.000  C
  C264     1.0000 0.11990  0.99910  0.80218  Biso   1.000  C
  C265     1.0000 0.13440  0.99610  0.76432  Biso   1.000  C
  C266     1.0000 0.10070  0.03420  0.74085  Biso   1.000  C
  C267     1.0000 0.05290  0.07570  0.75558  Biso   1.000  C
  C268     1.0000 0.98580  0.12250  0.80974  Biso   1.000  C
  C269     1.0000 0.11390  0.03050  0.69991  Biso   1.000  C
  C270     1.0000 0.15380  0.95580  0.82620  Biso   1.000  C
  H117     1.0000 0.05350  0.04020  0.84120  Biso   1.000  H
  H118     1.0000 0.16240  0.96800  0.75660  Biso   1.000  H
  H119     1.0000 0.02910  0.10410  0.73990  Biso   1.000  H
  H120     1.0000 0.94490  0.18580  0.79120  Biso   1.000  H
  Ag31     1.0000 0.43299  0.59157  0.65793  Biso   1.000  Ag
  O181     1.0000 0.46170  0.62389  0.84204  Biso   1.000  O
  O182     1.0000 0.46860  0.65918  0.78583  Biso   1.000  O
  O183     1.0000 0.64610  0.48993  0.68548  Biso   1.000  O
  O184     1.0000 0.59110  0.56976  0.68143  Biso   1.000  O
  O185     1.0000 0.64690  0.46225  0.86133  Biso   1.000  O
  O186     1.0000 0.68380  0.41610  0.81134  Biso   1.000  O
  C271     1.0000 0.53770  0.57860  0.79341  Biso   1.000  C
  C272     1.0000 0.57040  0.54000  0.81706  Biso   1.000  C
  C273     1.0000 0.61990  0.49910  0.80218  Biso   1.000  C
  C274     1.0000 0.63440  0.49610  0.76432  Biso   1.000  C
  C275     1.0000 0.60070  0.53420  0.74085  Biso   1.000  C
  C276     1.0000 0.55290  0.57570  0.75558  Biso   1.000  C
  C277     1.0000 0.48580  0.62250  0.80974  Biso   1.000  C
  C278     1.0000 0.61390  0.53050  0.69991  Biso   1.000  C
  C279     1.0000 0.65380  0.45580  0.82620  Biso   1.000  C
  H121     1.0000 0.55350  0.54020  0.84120  Biso   1.000  H
  H122     1.0000 0.66240  0.46800  0.75660  Biso   1.000  H
  H123     1.0000 0.52910  0.60410  0.73990  Biso   1.000  H
  H124     1.0000 0.44490  0.68580  0.79120  Biso   1.000  H
  Ag32     1.0000 0.43299  0.09157  0.15793  Biso   1.000  Ag
  O187     1.0000 0.46170  0.12389  0.34204  Biso   1.000  O
  O188     1.0000 0.46860  0.15918  0.28583  Biso   1.000  O
  O189     1.0000 0.64610  0.98993  0.18548  Biso   1.000  O
  O190     1.0000 0.59110  0.06976  0.18143  Biso   1.000  O
  O191     1.0000 0.64690  0.96225  0.36133  Biso   1.000  O
  O192     1.0000 0.68380  0.91610  0.31134  Biso   1.000  O
  C280     1.0000 0.53770  0.07860  0.29341  Biso   1.000  C
  C281     1.0000 0.57040  0.04000  0.31706  Biso   1.000  C
  C282     1.0000 0.61990  0.99910  0.30218  Biso   1.000  C
  C283     1.0000 0.63440  0.99610  0.26432  Biso   1.000  C
  C284     1.0000 0.60070  0.03420  0.24085  Biso   1.000  C
  C285     1.0000 0.55290  0.07570  0.25558  Biso   1.000  C
  C286     1.0000 0.48580  0.12250  0.30974  Biso   1.000  C
  C287     1.0000 0.61390  0.03050  0.19991  Biso   1.000  C
  C288     1.0000 0.65380  0.95580  0.32620  Biso   1.000  C
  H125     1.0000 0.55350  0.04020  0.34120  Biso   1.000  H
  H126     1.0000 0.66240  0.96800  0.25660  Biso   1.000  H
  H127     1.0000 0.52910  0.10410  0.23990  Biso   1.000  H
  H128     1.0000 0.44490  0.18580  0.29120  Biso   1.000  H
  Ag33     1.0000 0.87500  0.31605  0.87500  Biso   1.000  Ag
  Ag34     1.0000 0.87500  0.81605  0.37500  Biso   1.000  Ag
  Ag35     1.0000 0.37500  0.31605  0.37500  Biso   1.000  Ag
  Ag36     1.0000 0.37500  0.81605  0.87500  Biso   1.000  Ag
  Ag37     1.0000 0.87500  0.43395  0.87500  Biso   1.000  Ag
  Ag38     1.0000 0.87500  0.93395  0.37500  Biso   1.000  Ag
  Ag39     1.0000 0.37500  0.43395  0.37500  Biso   1.000  Ag
  Ag40     1.0000 0.37500  0.93395  0.87500  Biso   1.000  Ag
  Ag41     1.0000 0.12500  0.68395  0.12500  Biso   1.000  Ag
  Ag42     1.0000 0.12500  0.18395  0.62500  Biso   1.000  Ag
  Ag43     1.0000 0.62500  0.68395  0.62500  Biso   1.000  Ag
  Ag44     1.0000 0.62500  0.18395  0.12500  Biso   1.000  Ag
  Ag45     1.0000 0.12500  0.56605  0.12500  Biso   1.000  Ag
  Ag46     1.0000 0.12500  0.06605  0.62500  Biso   1.000  Ag
  Ag47     1.0000 0.62500  0.56605  0.62500  Biso   1.000  Ag
  Ag48     1.0000 0.62500  0.06605  0.12500  Biso   1.000  Ag
