data_image0
_cell_length_a       52.9345
_cell_length_b       52.9345
_cell_length_c       52.9345
_cell_angle_alpha    90
_cell_angle_beta     90
_cell_angle_gamma    90

_symmetry_space_group_name_H-M    "P 1"
_symmetry_int_tables_number       1

loop_
  _symmetry_equiv_pos_as_xyz
  'x, y, z'

loop_
  _atom_site_label
  _atom_site_occupancy
  _atom_site_fract_x
  _atom_site_fract_y
  _atom_site_fract_z
  _atom_site_thermal_displace_type
  _atom_site_B_iso_or_equiv
  _atom_site_type_symbol
  Zn1      1.0000 0.72820  0.27180  0.22820  Biso   1.000  Zn
  Zn2      1.0000 0.27180  0.72820  0.22820  Biso   1.000  Zn
  Zn3      1.0000 0.27180  0.27180  0.77180  Biso   1.000  Zn
  Zn4      1.0000 0.72820  0.72820  0.77180  Biso   1.000  Zn
  Zn5      1.0000 0.22820  0.72820  0.27180  Biso   1.000  Zn
  Zn6      1.0000 0.22820  0.22820  0.77180  Biso   1.000  Zn
  Zn7      1.0000 0.22820  0.27180  0.72820  Biso   1.000  Zn
  Zn8      1.0000 0.22820  0.77180  0.22820  Biso   1.000  Zn
  Zn9      1.0000 0.77180  0.27180  0.27180  Biso   1.000  Zn
  Zn10     1.0000 0.77180  0.77180  0.77180  Biso   1.000  Zn
  Zn11     1.0000 0.77180  0.72820  0.72820  Biso   1.000  Zn
  Zn12     1.0000 0.77180  0.22820  0.22820  Biso   1.000  Zn
  Zn13     1.0000 0.27180  0.22820  0.72820  Biso   1.000  Zn
  Zn14     1.0000 0.72820  0.22820  0.27180  Biso   1.000  Zn
  Zn15     1.0000 0.27180  0.77180  0.27180  Biso   1.000  Zn
  Zn16     1.0000 0.72820  0.77180  0.72820  Biso   1.000  Zn
  Zn17     1.0000 0.27180  0.72820  0.77180  Biso   1.000  Zn
  Zn18     1.0000 0.72820  0.27180  0.77180  Biso   1.000  Zn
  Zn19     1.0000 0.27180  0.27180  0.22820  Biso   1.000  Zn
  Zn20     1.0000 0.72820  0.72820  0.22820  Biso   1.000  Zn
  Zn21     1.0000 0.72820  0.22820  0.72820  Biso   1.000  Zn
  Zn22     1.0000 0.27180  0.22820  0.27180  Biso   1.000  Zn
  Zn23     1.0000 0.27180  0.77180  0.72820  Biso   1.000  Zn
  Zn24     1.0000 0.72820  0.77180  0.27180  Biso   1.000  Zn
  Zn25     1.0000 0.22820  0.27180  0.27180  Biso   1.000  Zn
  Zn26     1.0000 0.22820  0.77180  0.77180  Biso   1.000  Zn
  Zn27     1.0000 0.22820  0.72820  0.72820  Biso   1.000  Zn
  Zn28     1.0000 0.22820  0.22820  0.22820  Biso   1.000  Zn
  Zn29     1.0000 0.77180  0.27180  0.72820  Biso   1.000  Zn
  Zn30     1.0000 0.77180  0.77180  0.22820  Biso   1.000  Zn
  Zn31     1.0000 0.77180  0.72820  0.27180  Biso   1.000  Zn
  Zn32     1.0000 0.77180  0.22820  0.77180  Biso   1.000  Zn
  O1       1.0000 0.69000  0.26750  0.23250  Biso   1.000  O
  C1       1.0000 0.64190  0.26620  0.23380  Biso   1.000  C
  H1       1.0000 0.65060  0.27700  0.22300  Biso   1.000  H
  C2       1.0000 0.61550  0.26620  0.23380  Biso   1.000  C
  H2       1.0000 0.60660  0.27690  0.22310  Biso   1.000  H
  O2       1.0000 0.19000  0.26750  0.73250  Biso   1.000  O
  C3       1.0000 0.14190  0.26620  0.73380  Biso   1.000  C
  H3       1.0000 0.15060  0.27700  0.72300  Biso   1.000  H
  C4       1.0000 0.11550  0.26620  0.73380  Biso   1.000  C
  H4       1.0000 0.10660  0.27690  0.72310  Biso   1.000  H
  O3       1.0000 0.31000  0.73250  0.23250  Biso   1.000  O
  C5       1.0000 0.35810  0.73380  0.23380  Biso   1.000  C
  H5       1.0000 0.34940  0.72300  0.22300  Biso   1.000  H
  C6       1.0000 0.38450  0.73380  0.23380  Biso   1.000  C
  H6       1.0000 0.39340  0.72310  0.22310  Biso   1.000  H
  O4       1.0000 0.81000  0.73250  0.73250  Biso   1.000  O
  C7       1.0000 0.85810  0.73380  0.73380  Biso   1.000  C
  H7       1.0000 0.84940  0.72300  0.72300  Biso   1.000  H
  C8       1.0000 0.88450  0.73380  0.73380  Biso   1.000  C
  H8       1.0000 0.89340  0.72310  0.72310  Biso   1.000  H
  O5       1.0000 0.81000  0.23250  0.23250  Biso   1.000  O
  C9       1.0000 0.85810  0.23380  0.23380  Biso   1.000  C
  H9       1.0000 0.84940  0.22300  0.22300  Biso   1.000  H
  C10      1.0000 0.88450  0.23380  0.23380  Biso   1.000  C
  H10      1.0000 0.89340  0.22310  0.22310  Biso   1.000  H
  O6       1.0000 0.31000  0.26750  0.76750  Biso   1.000  O
  C11      1.0000 0.35810  0.26620  0.76620  Biso   1.000  C
  H11      1.0000 0.34940  0.27700  0.77700  Biso   1.000  H
  C12      1.0000 0.38450  0.26620  0.76620  Biso   1.000  C
  H12      1.0000 0.39340  0.27690  0.77690  Biso   1.000  H
  O7       1.0000 0.81000  0.26750  0.26750  Biso   1.000  O
  C13      1.0000 0.85810  0.26620  0.26620  Biso   1.000  C
  H13      1.0000 0.84940  0.27700  0.27700  Biso   1.000  H
  C14      1.0000 0.88450  0.26620  0.26620  Biso   1.000  C
  H14      1.0000 0.89340  0.27690  0.27690  Biso   1.000  H
  O8       1.0000 0.69000  0.73250  0.76750  Biso   1.000  O
  C15      1.0000 0.64190  0.73380  0.76620  Biso   1.000  C
  H15      1.0000 0.65060  0.72300  0.77700  Biso   1.000  H
  C16      1.0000 0.61550  0.73380  0.76620  Biso   1.000  C
  H16      1.0000 0.60660  0.72310  0.77690  Biso   1.000  H
  O9       1.0000 0.69000  0.23250  0.26750  Biso   1.000  O
  C17      1.0000 0.64190  0.23380  0.26620  Biso   1.000  C
  H17      1.0000 0.65060  0.22300  0.27700  Biso   1.000  H
  C18      1.0000 0.61550  0.23380  0.26620  Biso   1.000  C
  H18      1.0000 0.60660  0.22310  0.27690  Biso   1.000  H
  O10      1.0000 0.19000  0.73250  0.26750  Biso   1.000  O
  C19      1.0000 0.14190  0.73380  0.26620  Biso   1.000  C
  H19      1.0000 0.15060  0.72300  0.27700  Biso   1.000  H
  C20      1.0000 0.11550  0.73380  0.26620  Biso   1.000  C
  H20      1.0000 0.10660  0.72310  0.27690  Biso   1.000  H
  O11      1.0000 0.23250  0.69000  0.26750  Biso   1.000  O
  C21      1.0000 0.23380  0.64190  0.26620  Biso   1.000  C
  H21      1.0000 0.22300  0.65060  0.27700  Biso   1.000  H
  C22      1.0000 0.23380  0.61550  0.26620  Biso   1.000  C
  H22      1.0000 0.22310  0.60660  0.27690  Biso   1.000  H
  O12      1.0000 0.23250  0.19000  0.76750  Biso   1.000  O
  C23      1.0000 0.23380  0.14190  0.76620  Biso   1.000  C
  H23      1.0000 0.22300  0.15060  0.77700  Biso   1.000  H
  C24      1.0000 0.23380  0.11550  0.76620  Biso   1.000  C
  H24      1.0000 0.22310  0.10660  0.77690  Biso   1.000  H
  O13      1.0000 0.23250  0.31000  0.73250  Biso   1.000  O
  C25      1.0000 0.23380  0.35810  0.73380  Biso   1.000  C
  H25      1.0000 0.22300  0.34940  0.72300  Biso   1.000  H
  C26      1.0000 0.23380  0.38450  0.73380  Biso   1.000  C
  H26      1.0000 0.22310  0.39340  0.72310  Biso   1.000  H
  O14      1.0000 0.23250  0.81000  0.23250  Biso   1.000  O
  C27      1.0000 0.23380  0.85810  0.23380  Biso   1.000  C
  H27      1.0000 0.22300  0.84940  0.22300  Biso   1.000  H
  C28      1.0000 0.23380  0.88450  0.23380  Biso   1.000  C
  H28      1.0000 0.22310  0.89340  0.22310  Biso   1.000  H
  O15      1.0000 0.76750  0.31000  0.26750  Biso   1.000  O
  C29      1.0000 0.76620  0.35810  0.26620  Biso   1.000  C
  H29      1.0000 0.77700  0.34940  0.27700  Biso   1.000  H
  C30      1.0000 0.76620  0.38450  0.26620  Biso   1.000  C
  H30      1.0000 0.77690  0.39340  0.27690  Biso   1.000  H
  O16      1.0000 0.76750  0.81000  0.76750  Biso   1.000  O
  C31      1.0000 0.76620  0.85810  0.76620  Biso   1.000  C
  H31      1.0000 0.77700  0.84940  0.77700  Biso   1.000  H
  C32      1.0000 0.76620  0.88450  0.76620  Biso   1.000  C
  H32      1.0000 0.77690  0.89340  0.77690  Biso   1.000  H
  O17      1.0000 0.26750  0.81000  0.26750  Biso   1.000  O
  C33      1.0000 0.26620  0.85810  0.26620  Biso   1.000  C
  H33      1.0000 0.27700  0.84940  0.27700  Biso   1.000  H
  C34      1.0000 0.26620  0.88450  0.26620  Biso   1.000  C
  H34      1.0000 0.27690  0.89340  0.27690  Biso   1.000  H
  O18      1.0000 0.76750  0.69000  0.73250  Biso   1.000  O
  C35      1.0000 0.76620  0.64190  0.73380  Biso   1.000  C
  H35      1.0000 0.77700  0.65060  0.72300  Biso   1.000  H
  C36      1.0000 0.76620  0.61550  0.73380  Biso   1.000  C
  H36      1.0000 0.77690  0.60660  0.72310  Biso   1.000  H
  O19      1.0000 0.76750  0.19000  0.23250  Biso   1.000  O
  C37      1.0000 0.76620  0.14190  0.23380  Biso   1.000  C
  H37      1.0000 0.77700  0.15060  0.22300  Biso   1.000  H
  C38      1.0000 0.76620  0.11550  0.23380  Biso   1.000  C
  H38      1.0000 0.77690  0.10660  0.22310  Biso   1.000  H
  O20      1.0000 0.26750  0.69000  0.23250  Biso   1.000  O
  C39      1.0000 0.26620  0.64190  0.23380  Biso   1.000  C
  H39      1.0000 0.27700  0.65060  0.22300  Biso   1.000  H
  C40      1.0000 0.26620  0.61550  0.23380  Biso   1.000  C
  H40      1.0000 0.27690  0.60660  0.22310  Biso   1.000  H
  O21      1.0000 0.26750  0.23250  0.69000  Biso   1.000  O
  C41      1.0000 0.26620  0.23380  0.64190  Biso   1.000  C
  H41      1.0000 0.27700  0.22300  0.65060  Biso   1.000  H
  C42      1.0000 0.26620  0.23380  0.61550  Biso   1.000  C
  H42      1.0000 0.27690  0.22310  0.60660  Biso   1.000  H
  O22      1.0000 0.26750  0.73250  0.19000  Biso   1.000  O
  C43      1.0000 0.26620  0.73380  0.14190  Biso   1.000  C
  H43      1.0000 0.27700  0.72300  0.15060  Biso   1.000  H
  C44      1.0000 0.26620  0.73380  0.11550  Biso   1.000  C
  H44      1.0000 0.27690  0.72310  0.10660  Biso   1.000  H
  O23      1.0000 0.73250  0.23250  0.31000  Biso   1.000  O
  C45      1.0000 0.73380  0.23380  0.35810  Biso   1.000  C
  H45      1.0000 0.72300  0.22300  0.34940  Biso   1.000  H
  C46      1.0000 0.73380  0.23380  0.38450  Biso   1.000  C
  H46      1.0000 0.72310  0.22310  0.39340  Biso   1.000  H
  O24      1.0000 0.73250  0.73250  0.81000  Biso   1.000  O
  C47      1.0000 0.73380  0.73380  0.85810  Biso   1.000  C
  H47      1.0000 0.72300  0.72300  0.84940  Biso   1.000  H
  C48      1.0000 0.73380  0.73380  0.88450  Biso   1.000  C
  H48      1.0000 0.72310  0.72310  0.89340  Biso   1.000  H
  O25      1.0000 0.23250  0.23250  0.81000  Biso   1.000  O
  C49      1.0000 0.23380  0.23380  0.85810  Biso   1.000  C
  H49      1.0000 0.22300  0.22300  0.84940  Biso   1.000  H
  C50      1.0000 0.23380  0.23380  0.88450  Biso   1.000  C
  H50      1.0000 0.22310  0.22310  0.89340  Biso   1.000  H
  O26      1.0000 0.26750  0.76750  0.31000  Biso   1.000  O
  C51      1.0000 0.26620  0.76620  0.35810  Biso   1.000  C
  H51      1.0000 0.27700  0.77700  0.34940  Biso   1.000  H
  C52      1.0000 0.26620  0.76620  0.38450  Biso   1.000  C
  H52      1.0000 0.27690  0.77690  0.39340  Biso   1.000  H
  O27      1.0000 0.26750  0.26750  0.81000  Biso   1.000  O
  C53      1.0000 0.26620  0.26620  0.85810  Biso   1.000  C
  H53      1.0000 0.27700  0.27700  0.84940  Biso   1.000  H
  C54      1.0000 0.26620  0.26620  0.88450  Biso   1.000  C
  H54      1.0000 0.27690  0.27690  0.89340  Biso   1.000  H
  O28      1.0000 0.73250  0.76750  0.69000  Biso   1.000  O
  C55      1.0000 0.73380  0.76620  0.64190  Biso   1.000  C
  H55      1.0000 0.72300  0.77700  0.65060  Biso   1.000  H
  C56      1.0000 0.73380  0.76620  0.61550  Biso   1.000  C
  H56      1.0000 0.72310  0.77690  0.60660  Biso   1.000  H
  O29      1.0000 0.73250  0.26750  0.19000  Biso   1.000  O
  C57      1.0000 0.73380  0.26620  0.14190  Biso   1.000  C
  H57      1.0000 0.72300  0.27700  0.15060  Biso   1.000  H
  C58      1.0000 0.73380  0.26620  0.11550  Biso   1.000  C
  H58      1.0000 0.72310  0.27690  0.10660  Biso   1.000  H
  O30      1.0000 0.23250  0.26750  0.69000  Biso   1.000  O
  C59      1.0000 0.23380  0.26620  0.64190  Biso   1.000  C
  H59      1.0000 0.22300  0.27700  0.65060  Biso   1.000  H
  C60      1.0000 0.23380  0.26620  0.61550  Biso   1.000  C
  H60      1.0000 0.22310  0.27690  0.60660  Biso   1.000  H
  O31      1.0000 0.26750  0.69000  0.76750  Biso   1.000  O
  C61      1.0000 0.26620  0.64190  0.76620  Biso   1.000  C
  H61      1.0000 0.27700  0.65060  0.77700  Biso   1.000  H
  C62      1.0000 0.26620  0.61550  0.76620  Biso   1.000  C
  H62      1.0000 0.27690  0.60660  0.77690  Biso   1.000  H
  O32      1.0000 0.26750  0.19000  0.26750  Biso   1.000  O
  C63      1.0000 0.26620  0.14190  0.26620  Biso   1.000  C
  H63      1.0000 0.27700  0.15060  0.27700  Biso   1.000  H
  C64      1.0000 0.26620  0.11550  0.26620  Biso   1.000  C
  H64      1.0000 0.27690  0.10660  0.27690  Biso   1.000  H
  O33      1.0000 0.73250  0.31000  0.76750  Biso   1.000  O
  C65      1.0000 0.73380  0.35810  0.76620  Biso   1.000  C
  H65      1.0000 0.72300  0.34940  0.77700  Biso   1.000  H
  C66      1.0000 0.73380  0.38450  0.76620  Biso   1.000  C
  H66      1.0000 0.72310  0.39340  0.77690  Biso   1.000  H
  O34      1.0000 0.73250  0.81000  0.26750  Biso   1.000  O
  C67      1.0000 0.73380  0.85810  0.26620  Biso   1.000  C
  H67      1.0000 0.72300  0.84940  0.27700  Biso   1.000  H
  C68      1.0000 0.73380  0.88450  0.26620  Biso   1.000  C
  H68      1.0000 0.72310  0.89340  0.27690  Biso   1.000  H
  O35      1.0000 0.23250  0.31000  0.26750  Biso   1.000  O
  C69      1.0000 0.23380  0.35810  0.26620  Biso   1.000  C
  H69      1.0000 0.22300  0.34940  0.27700  Biso   1.000  H
  C70      1.0000 0.23380  0.38450  0.26620  Biso   1.000  C
  H70      1.0000 0.22310  0.39340  0.27690  Biso   1.000  H
  O36      1.0000 0.26750  0.31000  0.23250  Biso   1.000  O
  C71      1.0000 0.26620  0.35810  0.23380  Biso   1.000  C
  H71      1.0000 0.27700  0.34940  0.22300  Biso   1.000  H
  C72      1.0000 0.26620  0.38450  0.23380  Biso   1.000  C
  H72      1.0000 0.27690  0.39340  0.22310  Biso   1.000  H
  O37      1.0000 0.26750  0.81000  0.73250  Biso   1.000  O
  C73      1.0000 0.26620  0.85810  0.73380  Biso   1.000  C
  H73      1.0000 0.27700  0.84940  0.72300  Biso   1.000  H
  C74      1.0000 0.26620  0.88450  0.73380  Biso   1.000  C
  H74      1.0000 0.27690  0.89340  0.72310  Biso   1.000  H
  O38      1.0000 0.73250  0.69000  0.23250  Biso   1.000  O
  C75      1.0000 0.73380  0.64190  0.23380  Biso   1.000  C
  H75      1.0000 0.72300  0.65060  0.22300  Biso   1.000  H
  C76      1.0000 0.73380  0.61550  0.23380  Biso   1.000  C
  H76      1.0000 0.72310  0.60660  0.22310  Biso   1.000  H
  O39      1.0000 0.73250  0.19000  0.73250  Biso   1.000  O
  C77      1.0000 0.73380  0.14190  0.73380  Biso   1.000  C
  H77      1.0000 0.72300  0.15060  0.72300  Biso   1.000  H
  C78      1.0000 0.73380  0.11550  0.73380  Biso   1.000  C
  H78      1.0000 0.72310  0.10660  0.72310  Biso   1.000  H
  O40      1.0000 0.23250  0.19000  0.23250  Biso   1.000  O
  C79      1.0000 0.23380  0.14190  0.23380  Biso   1.000  C
  H79      1.0000 0.22300  0.15060  0.22300  Biso   1.000  H
  C80      1.0000 0.23380  0.11550  0.23380  Biso   1.000  C
  H80      1.0000 0.22310  0.10660  0.22310  Biso   1.000  H
  O41      1.0000 0.69000  0.23250  0.73250  Biso   1.000  O
  C81      1.0000 0.64190  0.23380  0.73380  Biso   1.000  C
  H81      1.0000 0.65060  0.22300  0.72300  Biso   1.000  H
  C82      1.0000 0.61550  0.23380  0.73380  Biso   1.000  C
  H82      1.0000 0.60660  0.22310  0.72310  Biso   1.000  H
  O42      1.0000 0.19000  0.23250  0.23250  Biso   1.000  O
  C83      1.0000 0.14190  0.23380  0.23380  Biso   1.000  C
  H83      1.0000 0.15060  0.22300  0.22300  Biso   1.000  H
  C84      1.0000 0.11550  0.23380  0.23380  Biso   1.000  C
  H84      1.0000 0.10660  0.22310  0.22310  Biso   1.000  H
  O43      1.0000 0.31000  0.23250  0.26750  Biso   1.000  O
  C85      1.0000 0.35810  0.23380  0.26620  Biso   1.000  C
  H85      1.0000 0.34940  0.22300  0.27700  Biso   1.000  H
  C86      1.0000 0.38450  0.23380  0.26620  Biso   1.000  C
  H86      1.0000 0.39340  0.22310  0.27690  Biso   1.000  H
  O44      1.0000 0.81000  0.23250  0.76750  Biso   1.000  O
  C87      1.0000 0.85810  0.23380  0.76620  Biso   1.000  C
  H87      1.0000 0.84940  0.22300  0.77700  Biso   1.000  H
  C88      1.0000 0.88450  0.23380  0.76620  Biso   1.000  C
  H88      1.0000 0.89340  0.22310  0.77690  Biso   1.000  H
  O45      1.0000 0.31000  0.76750  0.73250  Biso   1.000  O
  C89      1.0000 0.35810  0.76620  0.73380  Biso   1.000  C
  H89      1.0000 0.34940  0.77700  0.72300  Biso   1.000  H
  C90      1.0000 0.38450  0.76620  0.73380  Biso   1.000  C
  H90      1.0000 0.39340  0.77690  0.72310  Biso   1.000  H
  O46      1.0000 0.31000  0.26750  0.23250  Biso   1.000  O
  C91      1.0000 0.35810  0.26620  0.23380  Biso   1.000  C
  H91      1.0000 0.34940  0.27700  0.22300  Biso   1.000  H
  C92      1.0000 0.38450  0.26620  0.23380  Biso   1.000  C
  H92      1.0000 0.39340  0.27690  0.22310  Biso   1.000  H
  O47      1.0000 0.81000  0.76750  0.23250  Biso   1.000  O
  C93      1.0000 0.85810  0.76620  0.23380  Biso   1.000  C
  H93      1.0000 0.84940  0.77700  0.22300  Biso   1.000  H
  C94      1.0000 0.88450  0.76620  0.23380  Biso   1.000  C
  H94      1.0000 0.89340  0.77690  0.22310  Biso   1.000  H
  O48      1.0000 0.69000  0.76750  0.26750  Biso   1.000  O
  C95      1.0000 0.64190  0.76620  0.26620  Biso   1.000  C
  H95      1.0000 0.65060  0.77700  0.27700  Biso   1.000  H
  C96      1.0000 0.61550  0.76620  0.26620  Biso   1.000  C
  H96      1.0000 0.60660  0.77690  0.27690  Biso   1.000  H
  O49      1.0000 0.19000  0.76750  0.76750  Biso   1.000  O
  C97      1.0000 0.14190  0.76620  0.76620  Biso   1.000  C
  H97      1.0000 0.15060  0.77700  0.77700  Biso   1.000  H
  C98      1.0000 0.11550  0.76620  0.76620  Biso   1.000  C
  H98      1.0000 0.10660  0.77690  0.77690  Biso   1.000  H
  O50      1.0000 0.19000  0.26750  0.26750  Biso   1.000  O
  C99      1.0000 0.14190  0.26620  0.26620  Biso   1.000  C
  H99      1.0000 0.15060  0.27700  0.27700  Biso   1.000  H
  C100     1.0000 0.11550  0.26620  0.26620  Biso   1.000  C
  H100     1.0000 0.10660  0.27690  0.27690  Biso   1.000  H
  O51      1.0000 0.23250  0.26750  0.31000  Biso   1.000  O
  C101     1.0000 0.23380  0.26620  0.35810  Biso   1.000  C
  H101     1.0000 0.22300  0.27700  0.34940  Biso   1.000  H
  C102     1.0000 0.23380  0.26620  0.38450  Biso   1.000  C
  H102     1.0000 0.22310  0.27690  0.39340  Biso   1.000  H
  O52      1.0000 0.23250  0.76750  0.81000  Biso   1.000  O
  C103     1.0000 0.23380  0.76620  0.85810  Biso   1.000  C
  H103     1.0000 0.22300  0.77700  0.84940  Biso   1.000  H
  C104     1.0000 0.23380  0.76620  0.88450  Biso   1.000  C
  H104     1.0000 0.22310  0.77690  0.89340  Biso   1.000  H
  O53      1.0000 0.23250  0.73250  0.69000  Biso   1.000  O
  C105     1.0000 0.23380  0.73380  0.64190  Biso   1.000  C
  H105     1.0000 0.22300  0.72300  0.65060  Biso   1.000  H
  C106     1.0000 0.23380  0.73380  0.61550  Biso   1.000  C
  H106     1.0000 0.22310  0.72310  0.60660  Biso   1.000  H
  O54      1.0000 0.23250  0.23250  0.19000  Biso   1.000  O
  C107     1.0000 0.23380  0.23380  0.14190  Biso   1.000  C
  H107     1.0000 0.22300  0.22300  0.15060  Biso   1.000  H
  C108     1.0000 0.23380  0.23380  0.11550  Biso   1.000  C
  H108     1.0000 0.22310  0.22310  0.10660  Biso   1.000  H
  O55      1.0000 0.76750  0.26750  0.69000  Biso   1.000  O
  C109     1.0000 0.76620  0.26620  0.64190  Biso   1.000  C
  H109     1.0000 0.77700  0.27700  0.65060  Biso   1.000  H
  C110     1.0000 0.76620  0.26620  0.61550  Biso   1.000  C
  H110     1.0000 0.77690  0.27690  0.60660  Biso   1.000  H
  O56      1.0000 0.76750  0.76750  0.19000  Biso   1.000  O
  C111     1.0000 0.76620  0.76620  0.14190  Biso   1.000  C
  H111     1.0000 0.77700  0.77700  0.15060  Biso   1.000  H
  C112     1.0000 0.76620  0.76620  0.11550  Biso   1.000  C
  H112     1.0000 0.77690  0.77690  0.10660  Biso   1.000  H
  O57      1.0000 0.26750  0.26750  0.19000  Biso   1.000  O
  C113     1.0000 0.26620  0.26620  0.14190  Biso   1.000  C
  H113     1.0000 0.27700  0.27700  0.15060  Biso   1.000  H
  C114     1.0000 0.26620  0.26620  0.11550  Biso   1.000  C
  H114     1.0000 0.27690  0.27690  0.10660  Biso   1.000  H
  O58      1.0000 0.76750  0.73250  0.31000  Biso   1.000  O
  C115     1.0000 0.76620  0.73380  0.35810  Biso   1.000  C
  H115     1.0000 0.77700  0.72300  0.34940  Biso   1.000  H
  C116     1.0000 0.76620  0.73380  0.38450  Biso   1.000  C
  H116     1.0000 0.77690  0.72310  0.39340  Biso   1.000  H
  O59      1.0000 0.76750  0.23250  0.81000  Biso   1.000  O
  C117     1.0000 0.76620  0.23380  0.85810  Biso   1.000  C
  H117     1.0000 0.77700  0.22300  0.84940  Biso   1.000  H
  C118     1.0000 0.76620  0.23380  0.88450  Biso   1.000  C
  H118     1.0000 0.77690  0.22310  0.89340  Biso   1.000  H
  O60      1.0000 0.26750  0.23250  0.31000  Biso   1.000  O
  C119     1.0000 0.26620  0.23380  0.35810  Biso   1.000  C
  H119     1.0000 0.27700  0.22300  0.34940  Biso   1.000  H
  C120     1.0000 0.26620  0.23380  0.38450  Biso   1.000  C
  H120     1.0000 0.27690  0.22310  0.39340  Biso   1.000  H
  O61      1.0000 0.31000  0.73250  0.76750  Biso   1.000  O
  C121     1.0000 0.35810  0.73380  0.76620  Biso   1.000  C
  H121     1.0000 0.34940  0.72300  0.77700  Biso   1.000  H
  C122     1.0000 0.38450  0.73380  0.76620  Biso   1.000  C
  H122     1.0000 0.39340  0.72310  0.77690  Biso   1.000  H
  O62      1.0000 0.81000  0.73250  0.26750  Biso   1.000  O
  C123     1.0000 0.85810  0.73380  0.26620  Biso   1.000  C
  H123     1.0000 0.84940  0.72300  0.27700  Biso   1.000  H
  C124     1.0000 0.88450  0.73380  0.26620  Biso   1.000  C
  H124     1.0000 0.89340  0.72310  0.27690  Biso   1.000  H
  O63      1.0000 0.69000  0.26750  0.76750  Biso   1.000  O
  C125     1.0000 0.64190  0.26620  0.76620  Biso   1.000  C
  H125     1.0000 0.65060  0.27700  0.77700  Biso   1.000  H
  C126     1.0000 0.61550  0.26620  0.76620  Biso   1.000  C
  H126     1.0000 0.60660  0.27690  0.77690  Biso   1.000  H
  O64      1.0000 0.69000  0.73250  0.23250  Biso   1.000  O
  C127     1.0000 0.64190  0.73380  0.23380  Biso   1.000  C
  H127     1.0000 0.65060  0.72300  0.22300  Biso   1.000  H
  C128     1.0000 0.61550  0.73380  0.23380  Biso   1.000  C
  H128     1.0000 0.60660  0.72310  0.22310  Biso   1.000  H
  O65      1.0000 0.19000  0.73250  0.73250  Biso   1.000  O
  C129     1.0000 0.14190  0.73380  0.73380  Biso   1.000  C
  H129     1.0000 0.15060  0.72300  0.72300  Biso   1.000  H
  C130     1.0000 0.11550  0.73380  0.73380  Biso   1.000  C
  H130     1.0000 0.10660  0.72310  0.72310  Biso   1.000  H
  O66      1.0000 0.81000  0.26750  0.73250  Biso   1.000  O
  C131     1.0000 0.85810  0.26620  0.73380  Biso   1.000  C
  H131     1.0000 0.84940  0.27700  0.72300  Biso   1.000  H
  C132     1.0000 0.88450  0.26620  0.73380  Biso   1.000  C
  H132     1.0000 0.89340  0.27690  0.72310  Biso   1.000  H
  O67      1.0000 0.76750  0.31000  0.73250  Biso   1.000  O
  C133     1.0000 0.76620  0.35810  0.73380  Biso   1.000  C
  H133     1.0000 0.77700  0.34940  0.72300  Biso   1.000  H
  C134     1.0000 0.76620  0.38450  0.73380  Biso   1.000  C
  H134     1.0000 0.77690  0.39340  0.72310  Biso   1.000  H
  O68      1.0000 0.76750  0.81000  0.23250  Biso   1.000  O
  C135     1.0000 0.76620  0.85810  0.23380  Biso   1.000  C
  H135     1.0000 0.77700  0.84940  0.22300  Biso   1.000  H
  C136     1.0000 0.76620  0.88450  0.23380  Biso   1.000  C
  H136     1.0000 0.77690  0.89340  0.22310  Biso   1.000  H
  O69      1.0000 0.76750  0.69000  0.26750  Biso   1.000  O
  C137     1.0000 0.76620  0.64190  0.26620  Biso   1.000  C
  H137     1.0000 0.77700  0.65060  0.27700  Biso   1.000  H
  C138     1.0000 0.76620  0.61550  0.26620  Biso   1.000  C
  H138     1.0000 0.77690  0.60660  0.27690  Biso   1.000  H
  O70      1.0000 0.76750  0.19000  0.76750  Biso   1.000  O
  C139     1.0000 0.76620  0.14190  0.76620  Biso   1.000  C
  H139     1.0000 0.77700  0.15060  0.77700  Biso   1.000  H
  C140     1.0000 0.76620  0.11550  0.76620  Biso   1.000  C
  H140     1.0000 0.77690  0.10660  0.77690  Biso   1.000  H
  O71      1.0000 0.23250  0.69000  0.73250  Biso   1.000  O
  C141     1.0000 0.23380  0.64190  0.73380  Biso   1.000  C
  H141     1.0000 0.22300  0.65060  0.72300  Biso   1.000  H
  C142     1.0000 0.23380  0.61550  0.73380  Biso   1.000  C
  H142     1.0000 0.22310  0.60660  0.72310  Biso   1.000  H
  O72      1.0000 0.23250  0.81000  0.76750  Biso   1.000  O
  C143     1.0000 0.23380  0.85810  0.76620  Biso   1.000  C
  H143     1.0000 0.22300  0.84940  0.77700  Biso   1.000  H
  C144     1.0000 0.23380  0.88450  0.76620  Biso   1.000  C
  H144     1.0000 0.22310  0.89340  0.77690  Biso   1.000  H
  O73      1.0000 0.73250  0.76750  0.31000  Biso   1.000  O
  C145     1.0000 0.73380  0.76620  0.35810  Biso   1.000  C
  H145     1.0000 0.72300  0.77700  0.34940  Biso   1.000  H
  C146     1.0000 0.73380  0.76620  0.38450  Biso   1.000  C
  H146     1.0000 0.72310  0.77690  0.39340  Biso   1.000  H
  O74      1.0000 0.73250  0.26750  0.81000  Biso   1.000  O
  C147     1.0000 0.73380  0.26620  0.85810  Biso   1.000  C
  H147     1.0000 0.72300  0.27700  0.84940  Biso   1.000  H
  C148     1.0000 0.73380  0.26620  0.88450  Biso   1.000  C
  H148     1.0000 0.72310  0.27690  0.89340  Biso   1.000  H
  O75      1.0000 0.26750  0.76750  0.69000  Biso   1.000  O
  C149     1.0000 0.26620  0.76620  0.64190  Biso   1.000  C
  H149     1.0000 0.27700  0.77700  0.65060  Biso   1.000  H
  C150     1.0000 0.26620  0.76620  0.61550  Biso   1.000  C
  H150     1.0000 0.27690  0.77690  0.60660  Biso   1.000  H
  O76      1.0000 0.73250  0.23250  0.69000  Biso   1.000  O
  C151     1.0000 0.73380  0.23380  0.64190  Biso   1.000  C
  H151     1.0000 0.72300  0.22300  0.65060  Biso   1.000  H
  C152     1.0000 0.73380  0.23380  0.61550  Biso   1.000  C
  H152     1.0000 0.72310  0.22310  0.60660  Biso   1.000  H
  O77      1.0000 0.73250  0.73250  0.19000  Biso   1.000  O
  C153     1.0000 0.73380  0.73380  0.14190  Biso   1.000  C
  H153     1.0000 0.72300  0.72300  0.15060  Biso   1.000  H
  C154     1.0000 0.73380  0.73380  0.11550  Biso   1.000  C
  H154     1.0000 0.72310  0.72310  0.10660  Biso   1.000  H
  O78      1.0000 0.26750  0.73250  0.81000  Biso   1.000  O
  C155     1.0000 0.26620  0.73380  0.85810  Biso   1.000  C
  H155     1.0000 0.27700  0.72300  0.84940  Biso   1.000  H
  C156     1.0000 0.26620  0.73380  0.88450  Biso   1.000  C
  H156     1.0000 0.27690  0.72310  0.89340  Biso   1.000  H
  O79      1.0000 0.73250  0.31000  0.23250  Biso   1.000  O
  C157     1.0000 0.73380  0.35810  0.23380  Biso   1.000  C
  H157     1.0000 0.72300  0.34940  0.22300  Biso   1.000  H
  C158     1.0000 0.73380  0.38450  0.23380  Biso   1.000  C
  H158     1.0000 0.72310  0.39340  0.22310  Biso   1.000  H
  O80      1.0000 0.73250  0.81000  0.73250  Biso   1.000  O
  C159     1.0000 0.73380  0.85810  0.73380  Biso   1.000  C
  H159     1.0000 0.72300  0.84940  0.72300  Biso   1.000  H
  C160     1.0000 0.73380  0.88450  0.73380  Biso   1.000  C
  H160     1.0000 0.72310  0.89340  0.72310  Biso   1.000  H
  O81      1.0000 0.26750  0.19000  0.73250  Biso   1.000  O
  C161     1.0000 0.26620  0.14190  0.73380  Biso   1.000  C
  H161     1.0000 0.27700  0.15060  0.72300  Biso   1.000  H
  C162     1.0000 0.26620  0.11550  0.73380  Biso   1.000  C
  H162     1.0000 0.27690  0.10660  0.72310  Biso   1.000  H
  O82      1.0000 0.73250  0.69000  0.76750  Biso   1.000  O
  C163     1.0000 0.73380  0.64190  0.76620  Biso   1.000  C
  H163     1.0000 0.72300  0.65060  0.77700  Biso   1.000  H
  C164     1.0000 0.73380  0.61550  0.76620  Biso   1.000  C
  H164     1.0000 0.72310  0.60660  0.77690  Biso   1.000  H
  O83      1.0000 0.73250  0.19000  0.26750  Biso   1.000  O
  C165     1.0000 0.73380  0.14190  0.26620  Biso   1.000  C
  H165     1.0000 0.72300  0.15060  0.27700  Biso   1.000  H
  C166     1.0000 0.73380  0.11550  0.26620  Biso   1.000  C
  H166     1.0000 0.72310  0.10660  0.27690  Biso   1.000  H
  O84      1.0000 0.26750  0.31000  0.76750  Biso   1.000  O
  C167     1.0000 0.26620  0.35810  0.76620  Biso   1.000  C
  H167     1.0000 0.27700  0.34940  0.77700  Biso   1.000  H
  C168     1.0000 0.26620  0.38450  0.76620  Biso   1.000  C
  H168     1.0000 0.27690  0.39340  0.77690  Biso   1.000  H
  O85      1.0000 0.31000  0.76750  0.26750  Biso   1.000  O
  C169     1.0000 0.35810  0.76620  0.26620  Biso   1.000  C
  H169     1.0000 0.34940  0.77700  0.27700  Biso   1.000  H
  C170     1.0000 0.38450  0.76620  0.26620  Biso   1.000  C
  H170     1.0000 0.39340  0.77690  0.27690  Biso   1.000  H
  O86      1.0000 0.81000  0.76750  0.76750  Biso   1.000  O
  C171     1.0000 0.85810  0.76620  0.76620  Biso   1.000  C
  H171     1.0000 0.84940  0.77700  0.77700  Biso   1.000  H
  C172     1.0000 0.88450  0.76620  0.76620  Biso   1.000  C
  H172     1.0000 0.89340  0.77690  0.77690  Biso   1.000  H
  O87      1.0000 0.69000  0.76750  0.73250  Biso   1.000  O
  C173     1.0000 0.64190  0.76620  0.73380  Biso   1.000  C
  H173     1.0000 0.65060  0.77700  0.72300  Biso   1.000  H
  C174     1.0000 0.61550  0.76620  0.73380  Biso   1.000  C
  H174     1.0000 0.60660  0.77690  0.72310  Biso   1.000  H
  O88      1.0000 0.19000  0.76750  0.23250  Biso   1.000  O
  C175     1.0000 0.14190  0.76620  0.23380  Biso   1.000  C
  H175     1.0000 0.15060  0.77700  0.22300  Biso   1.000  H
  C176     1.0000 0.11550  0.76620  0.23380  Biso   1.000  C
  H176     1.0000 0.10660  0.77690  0.22310  Biso   1.000  H
  O89      1.0000 0.19000  0.23250  0.76750  Biso   1.000  O
  C177     1.0000 0.14190  0.23380  0.76620  Biso   1.000  C
  H177     1.0000 0.15060  0.22300  0.77700  Biso   1.000  H
  C178     1.0000 0.11550  0.23380  0.76620  Biso   1.000  C
  H178     1.0000 0.10660  0.22310  0.77690  Biso   1.000  H
  O90      1.0000 0.31000  0.23250  0.73250  Biso   1.000  O
  C179     1.0000 0.35810  0.23380  0.73380  Biso   1.000  C
  H179     1.0000 0.34940  0.22300  0.72300  Biso   1.000  H
  C180     1.0000 0.38450  0.23380  0.73380  Biso   1.000  C
  H180     1.0000 0.39340  0.22310  0.72310  Biso   1.000  H
  O91      1.0000 0.76750  0.73250  0.69000  Biso   1.000  O
  C181     1.0000 0.76620  0.73380  0.64190  Biso   1.000  C
  H181     1.0000 0.77700  0.72300  0.65060  Biso   1.000  H
  C182     1.0000 0.76620  0.73380  0.61550  Biso   1.000  C
  H182     1.0000 0.77690  0.72310  0.60660  Biso   1.000  H
  O92      1.0000 0.76750  0.23250  0.19000  Biso   1.000  O
  C183     1.0000 0.76620  0.23380  0.14190  Biso   1.000  C
  H183     1.0000 0.77700  0.22300  0.15060  Biso   1.000  H
  C184     1.0000 0.76620  0.23380  0.11550  Biso   1.000  C
  H184     1.0000 0.77690  0.22310  0.10660  Biso   1.000  H
  O93      1.0000 0.76750  0.26750  0.31000  Biso   1.000  O
  C185     1.0000 0.76620  0.26620  0.35810  Biso   1.000  C
  H185     1.0000 0.77700  0.27700  0.34940  Biso   1.000  H
  C186     1.0000 0.76620  0.26620  0.38450  Biso   1.000  C
  H186     1.0000 0.77690  0.27690  0.39340  Biso   1.000  H
  O94      1.0000 0.76750  0.76750  0.81000  Biso   1.000  O
  C187     1.0000 0.76620  0.76620  0.85810  Biso   1.000  C
  H187     1.0000 0.77700  0.77700  0.84940  Biso   1.000  H
  C188     1.0000 0.76620  0.76620  0.88450  Biso   1.000  C
  H188     1.0000 0.77690  0.77690  0.89340  Biso   1.000  H
  O95      1.0000 0.23250  0.73250  0.31000  Biso   1.000  O
  C189     1.0000 0.23380  0.73380  0.35810  Biso   1.000  C
  H189     1.0000 0.22300  0.72300  0.34940  Biso   1.000  H
  C190     1.0000 0.23380  0.73380  0.38450  Biso   1.000  C
  H190     1.0000 0.22310  0.72310  0.39340  Biso   1.000  H
  O96      1.0000 0.23250  0.76750  0.19000  Biso   1.000  O
  C191     1.0000 0.23380  0.76620  0.14190  Biso   1.000  C
  H191     1.0000 0.22300  0.77700  0.15060  Biso   1.000  H
  C192     1.0000 0.23380  0.76620  0.11550  Biso   1.000  C
  H192     1.0000 0.22310  0.77690  0.10660  Biso   1.000  H
  Zn33     1.0000 0.72884  0.22884  0.22884  Biso   1.000  Zn
  Zn34     1.0000 0.72884  0.72884  0.72884  Biso   1.000  Zn
  Zn35     1.0000 0.27116  0.77116  0.22884  Biso   1.000  Zn
  Zn36     1.0000 0.27116  0.27116  0.72884  Biso   1.000  Zn
  Zn37     1.0000 0.77116  0.77116  0.72884  Biso   1.000  Zn
  Zn38     1.0000 0.27116  0.22884  0.77116  Biso   1.000  Zn
  Zn39     1.0000 0.27116  0.72884  0.27116  Biso   1.000  Zn
  Zn40     1.0000 0.77116  0.72884  0.77116  Biso   1.000  Zn
  Zn41     1.0000 0.72884  0.77116  0.77116  Biso   1.000  Zn
  Zn42     1.0000 0.72884  0.27116  0.27116  Biso   1.000  Zn
  Zn43     1.0000 0.22884  0.72884  0.22884  Biso   1.000  Zn
  Zn44     1.0000 0.22884  0.27116  0.77116  Biso   1.000  Zn
  Zn45     1.0000 0.77116  0.27116  0.22884  Biso   1.000  Zn
  Zn46     1.0000 0.22884  0.22884  0.72884  Biso   1.000  Zn
  Zn47     1.0000 0.77116  0.22884  0.27116  Biso   1.000  Zn
  Zn48     1.0000 0.22884  0.77116  0.27116  Biso   1.000  Zn
  Zn49     1.0000 0.22884  0.72884  0.77116  Biso   1.000  Zn
  Zn50     1.0000 0.72884  0.72884  0.27116  Biso   1.000  Zn
  Zn51     1.0000 0.77116  0.27116  0.77116  Biso   1.000  Zn
  Zn52     1.0000 0.22884  0.27116  0.22884  Biso   1.000  Zn
  Zn53     1.0000 0.22884  0.77116  0.72884  Biso   1.000  Zn
  Zn54     1.0000 0.72884  0.77116  0.22884  Biso   1.000  Zn
  Zn55     1.0000 0.77116  0.72884  0.22884  Biso   1.000  Zn
  Zn56     1.0000 0.72884  0.22884  0.77116  Biso   1.000  Zn
  Zn57     1.0000 0.27116  0.22884  0.22884  Biso   1.000  Zn
  Zn58     1.0000 0.27116  0.72884  0.72884  Biso   1.000  Zn
  Zn59     1.0000 0.77116  0.22884  0.72884  Biso   1.000  Zn
  Zn60     1.0000 0.27116  0.77116  0.77116  Biso   1.000  Zn
  Zn61     1.0000 0.27116  0.27116  0.27116  Biso   1.000  Zn
  Zn62     1.0000 0.72884  0.27116  0.72884  Biso   1.000  Zn
  Zn63     1.0000 0.22884  0.22884  0.27116  Biso   1.000  Zn
  Zn64     1.0000 0.77116  0.77116  0.27116  Biso   1.000  Zn
  O97      1.0000 0.69380  0.23540  0.23540  Biso   1.000  O
  C193     1.0000 0.51350  0.23365  0.23365  Biso   1.000  C
  H193     1.0000 0.52250  0.22290  0.22290  Biso   1.000  H
  C194     1.0000 0.61530  0.23400  0.23400  Biso   1.000  C
  H194     1.0000 0.60630  0.22330  0.22330  Biso   1.000  H
  C195     1.0000 0.64210  0.23400  0.23400  Biso   1.000  C
  H195     1.0000 0.65090  0.22330  0.22330  Biso   1.000  H
  O98      1.0000 0.69380  0.73540  0.73540  Biso   1.000  O
  C196     1.0000 0.51350  0.73365  0.73365  Biso   1.000  C
  H196     1.0000 0.52250  0.72290  0.72290  Biso   1.000  H
  C197     1.0000 0.61530  0.73400  0.73400  Biso   1.000  C
  H197     1.0000 0.60630  0.72330  0.72330  Biso   1.000  H
  C198     1.0000 0.64210  0.73400  0.73400  Biso   1.000  C
  H198     1.0000 0.65090  0.72330  0.72330  Biso   1.000  H
  O99      1.0000 0.19380  0.23540  0.73540  Biso   1.000  O
  C199     1.0000 0.01350  0.23365  0.73365  Biso   1.000  C
  H199     1.0000 0.02250  0.22290  0.72290  Biso   1.000  H
  C200     1.0000 0.11530  0.23400  0.73400  Biso   1.000  C
  H200     1.0000 0.10630  0.22330  0.72330  Biso   1.000  H
  C201     1.0000 0.14210  0.23400  0.73400  Biso   1.000  C
  H201     1.0000 0.15090  0.22330  0.72330  Biso   1.000  H
  O100     1.0000 0.19380  0.73540  0.23540  Biso   1.000  O
  C202     1.0000 0.01350  0.73365  0.23365  Biso   1.000  C
  H202     1.0000 0.02250  0.72290  0.22290  Biso   1.000  H
  C203     1.0000 0.11530  0.73400  0.23400  Biso   1.000  C
  H203     1.0000 0.10630  0.72330  0.22330  Biso   1.000  H
  C204     1.0000 0.14210  0.73400  0.23400  Biso   1.000  C
  H204     1.0000 0.15090  0.72330  0.22330  Biso   1.000  H
  O101     1.0000 0.30620  0.76460  0.23540  Biso   1.000  O
  C205     1.0000 0.48650  0.76635  0.23365  Biso   1.000  C
  H205     1.0000 0.47750  0.77710  0.22290  Biso   1.000  H
  C206     1.0000 0.38470  0.76600  0.23400  Biso   1.000  C
  H206     1.0000 0.39370  0.77670  0.22330  Biso   1.000  H
  C207     1.0000 0.35790  0.76600  0.23400  Biso   1.000  C
  H207     1.0000 0.34910  0.77670  0.22330  Biso   1.000  H
  O102     1.0000 0.30620  0.26460  0.73540  Biso   1.000  O
  C208     1.0000 0.48650  0.26635  0.73365  Biso   1.000  C
  H208     1.0000 0.47750  0.27710  0.72290  Biso   1.000  H
  C209     1.0000 0.38470  0.26600  0.73400  Biso   1.000  C
  H209     1.0000 0.39370  0.27670  0.72330  Biso   1.000  H
  C210     1.0000 0.35790  0.26600  0.73400  Biso   1.000  C
  H210     1.0000 0.34910  0.27670  0.72330  Biso   1.000  H
  O103     1.0000 0.80620  0.76460  0.73540  Biso   1.000  O
  C211     1.0000 0.98650  0.76635  0.73365  Biso   1.000  C
  H211     1.0000 0.97750  0.77710  0.72290  Biso   1.000  H
  C212     1.0000 0.88470  0.76600  0.73400  Biso   1.000  C
  H212     1.0000 0.89370  0.77670  0.72330  Biso   1.000  H
  C213     1.0000 0.85790  0.76600  0.73400  Biso   1.000  C
  H213     1.0000 0.84910  0.77670  0.72330  Biso   1.000  H
  O104     1.0000 0.80620  0.26460  0.23540  Biso   1.000  O
  C214     1.0000 0.98650  0.26635  0.23365  Biso   1.000  C
  H214     1.0000 0.97750  0.27710  0.22290  Biso   1.000  H
  C215     1.0000 0.88470  0.26600  0.23400  Biso   1.000  C
  H215     1.0000 0.89370  0.27670  0.22330  Biso   1.000  H
  C216     1.0000 0.85790  0.26600  0.23400  Biso   1.000  C
  H216     1.0000 0.84910  0.27670  0.22330  Biso   1.000  H
  O105     1.0000 0.30620  0.23540  0.76460  Biso   1.000  O
  C217     1.0000 0.48650  0.23365  0.76635  Biso   1.000  C
  H217     1.0000 0.47750  0.22290  0.77710  Biso   1.000  H
  C218     1.0000 0.38470  0.23400  0.76600  Biso   1.000  C
  H218     1.0000 0.39370  0.22330  0.77670  Biso   1.000  H
  C219     1.0000 0.35790  0.23400  0.76600  Biso   1.000  C
  H219     1.0000 0.34910  0.22330  0.77670  Biso   1.000  H
  O106     1.0000 0.30620  0.73540  0.26460  Biso   1.000  O
  C220     1.0000 0.48650  0.73365  0.26635  Biso   1.000  C
  H220     1.0000 0.47750  0.72290  0.27710  Biso   1.000  H
  C221     1.0000 0.38470  0.73400  0.26600  Biso   1.000  C
  H221     1.0000 0.39370  0.72330  0.27670  Biso   1.000  H
  C222     1.0000 0.35790  0.73400  0.26600  Biso   1.000  C
  H222     1.0000 0.34910  0.72330  0.27670  Biso   1.000  H
  O107     1.0000 0.80620  0.23540  0.26460  Biso   1.000  O
  C223     1.0000 0.98650  0.23365  0.26635  Biso   1.000  C
  H223     1.0000 0.97750  0.22290  0.27710  Biso   1.000  H
  C224     1.0000 0.88470  0.23400  0.26600  Biso   1.000  C
  H224     1.0000 0.89370  0.22330  0.27670  Biso   1.000  H
  C225     1.0000 0.85790  0.23400  0.26600  Biso   1.000  C
  H225     1.0000 0.84910  0.22330  0.27670  Biso   1.000  H
  O108     1.0000 0.80620  0.73540  0.76460  Biso   1.000  O
  C226     1.0000 0.98650  0.73365  0.76635  Biso   1.000  C
  H226     1.0000 0.97750  0.72290  0.77710  Biso   1.000  H
  C227     1.0000 0.88470  0.73400  0.76600  Biso   1.000  C
  H227     1.0000 0.89370  0.72330  0.77670  Biso   1.000  H
  C228     1.0000 0.85790  0.73400  0.76600  Biso   1.000  C
  H228     1.0000 0.84910  0.72330  0.77670  Biso   1.000  H
  O109     1.0000 0.69380  0.76460  0.76460  Biso   1.000  O
  C229     1.0000 0.51350  0.76635  0.76635  Biso   1.000  C
  H229     1.0000 0.52250  0.77710  0.77710  Biso   1.000  H
  C230     1.0000 0.61530  0.76600  0.76600  Biso   1.000  C
  H230     1.0000 0.60630  0.77670  0.77670  Biso   1.000  H
  C231     1.0000 0.64210  0.76600  0.76600  Biso   1.000  C
  H231     1.0000 0.65090  0.77670  0.77670  Biso   1.000  H
  O110     1.0000 0.69380  0.26460  0.26460  Biso   1.000  O
  C232     1.0000 0.51350  0.26635  0.26635  Biso   1.000  C
  H232     1.0000 0.52250  0.27710  0.27710  Biso   1.000  H
  C233     1.0000 0.61530  0.26600  0.26600  Biso   1.000  C
  H233     1.0000 0.60630  0.27670  0.27670  Biso   1.000  H
  C234     1.0000 0.64210  0.26600  0.26600  Biso   1.000  C
  H234     1.0000 0.65090  0.27670  0.27670  Biso   1.000  H
  O111     1.0000 0.19380  0.76460  0.26460  Biso   1.000  O
  C235     1.0000 0.01350  0.76635  0.26635  Biso   1.000  C
  H235     1.0000 0.02250  0.77710  0.27710  Biso   1.000  H
  C236     1.0000 0.11530  0.76600  0.26600  Biso   1.000  C
  H236     1.0000 0.10630  0.77670  0.27670  Biso   1.000  H
  C237     1.0000 0.14210  0.76600  0.26600  Biso   1.000  C
  H237     1.0000 0.15090  0.77670  0.27670  Biso   1.000  H
  O112     1.0000 0.19380  0.26460  0.76460  Biso   1.000  O
  C238     1.0000 0.01350  0.26635  0.76635  Biso   1.000  C
  H238     1.0000 0.02250  0.27710  0.77710  Biso   1.000  H
  C239     1.0000 0.11530  0.26600  0.76600  Biso   1.000  C
  H239     1.0000 0.10630  0.27670  0.77670  Biso   1.000  H
  C240     1.0000 0.14210  0.26600  0.76600  Biso   1.000  C
  H240     1.0000 0.15090  0.27670  0.77670  Biso   1.000  H
  O113     1.0000 0.23540  0.69380  0.23540  Biso   1.000  O
  C241     1.0000 0.23365  0.51350  0.23365  Biso   1.000  C
  H241     1.0000 0.22290  0.52250  0.22290  Biso   1.000  H
  C242     1.0000 0.23400  0.61530  0.23400  Biso   1.000  C
  H242     1.0000 0.22330  0.60630  0.22330  Biso   1.000  H
  C243     1.0000 0.23400  0.64210  0.23400  Biso   1.000  C
  H243     1.0000 0.22330  0.65090  0.22330  Biso   1.000  H
  O114     1.0000 0.23540  0.19380  0.73540  Biso   1.000  O
  C244     1.0000 0.23365  0.01350  0.73365  Biso   1.000  C
  H244     1.0000 0.22290  0.02250  0.72290  Biso   1.000  H
  C245     1.0000 0.23400  0.11530  0.73400  Biso   1.000  C
  H245     1.0000 0.22330  0.10630  0.72330  Biso   1.000  H
  C246     1.0000 0.23400  0.14210  0.73400  Biso   1.000  C
  H246     1.0000 0.22330  0.15090  0.72330  Biso   1.000  H
  O115     1.0000 0.73540  0.69380  0.73540  Biso   1.000  O
  C247     1.0000 0.73365  0.51350  0.73365  Biso   1.000  C
  H247     1.0000 0.72290  0.52250  0.72290  Biso   1.000  H
  C248     1.0000 0.73400  0.61530  0.73400  Biso   1.000  C
  H248     1.0000 0.72330  0.60630  0.72330  Biso   1.000  H
  C249     1.0000 0.73400  0.64210  0.73400  Biso   1.000  C
  H249     1.0000 0.72330  0.65090  0.72330  Biso   1.000  H
  O116     1.0000 0.73540  0.19380  0.23540  Biso   1.000  O
  C250     1.0000 0.73365  0.01350  0.23365  Biso   1.000  C
  H250     1.0000 0.72290  0.02250  0.22290  Biso   1.000  H
  C251     1.0000 0.73400  0.11530  0.23400  Biso   1.000  C
  H251     1.0000 0.72330  0.10630  0.22330  Biso   1.000  H
  C252     1.0000 0.73400  0.14210  0.23400  Biso   1.000  C
  H252     1.0000 0.72330  0.15090  0.22330  Biso   1.000  H
  O117     1.0000 0.23540  0.30620  0.76460  Biso   1.000  O
  C253     1.0000 0.23365  0.48650  0.76635  Biso   1.000  C
  H253     1.0000 0.22290  0.47750  0.77710  Biso   1.000  H
  C254     1.0000 0.23400  0.38470  0.76600  Biso   1.000  C
  H254     1.0000 0.22330  0.39370  0.77670  Biso   1.000  H
  C255     1.0000 0.23400  0.35790  0.76600  Biso   1.000  C
  H255     1.0000 0.22330  0.34910  0.77670  Biso   1.000  H
  O118     1.0000 0.23540  0.80620  0.26460  Biso   1.000  O
  C256     1.0000 0.23365  0.98650  0.26635  Biso   1.000  C
  H256     1.0000 0.22290  0.97750  0.27710  Biso   1.000  H
  C257     1.0000 0.23400  0.88470  0.26600  Biso   1.000  C
  H257     1.0000 0.22330  0.89370  0.27670  Biso   1.000  H
  C258     1.0000 0.23400  0.85790  0.26600  Biso   1.000  C
  H258     1.0000 0.22330  0.84910  0.27670  Biso   1.000  H
  O119     1.0000 0.73540  0.30620  0.26460  Biso   1.000  O
  C259     1.0000 0.73365  0.48650  0.26635  Biso   1.000  C
  H259     1.0000 0.72290  0.47750  0.27710  Biso   1.000  H
  C260     1.0000 0.73400  0.38470  0.26600  Biso   1.000  C
  H260     1.0000 0.72330  0.39370  0.27670  Biso   1.000  H
  C261     1.0000 0.73400  0.35790  0.26600  Biso   1.000  C
  H261     1.0000 0.72330  0.34910  0.27670  Biso   1.000  H
  O120     1.0000 0.73540  0.80620  0.76460  Biso   1.000  O
  C262     1.0000 0.73365  0.98650  0.76635  Biso   1.000  C
  H262     1.0000 0.72290  0.97750  0.77710  Biso   1.000  H
  C263     1.0000 0.73400  0.88470  0.76600  Biso   1.000  C
  H263     1.0000 0.72330  0.89370  0.77670  Biso   1.000  H
  C264     1.0000 0.73400  0.85790  0.76600  Biso   1.000  C
  H264     1.0000 0.72330  0.84910  0.77670  Biso   1.000  H
  O121     1.0000 0.76460  0.30620  0.23540  Biso   1.000  O
  C265     1.0000 0.76635  0.48650  0.23365  Biso   1.000  C
  H265     1.0000 0.77710  0.47750  0.22290  Biso   1.000  H
  C266     1.0000 0.76600  0.38470  0.23400  Biso   1.000  C
  H266     1.0000 0.77670  0.39370  0.22330  Biso   1.000  H
  C267     1.0000 0.76600  0.35790  0.23400  Biso   1.000  C
  H267     1.0000 0.77670  0.34910  0.22330  Biso   1.000  H
  O122     1.0000 0.76460  0.80620  0.73540  Biso   1.000  O
  C268     1.0000 0.76635  0.98650  0.73365  Biso   1.000  C
  H268     1.0000 0.77710  0.97750  0.72290  Biso   1.000  H
  C269     1.0000 0.76600  0.88470  0.73400  Biso   1.000  C
  H269     1.0000 0.77670  0.89370  0.72330  Biso   1.000  H
  C270     1.0000 0.76600  0.85790  0.73400  Biso   1.000  C
  H270     1.0000 0.77670  0.84910  0.72330  Biso   1.000  H
  O123     1.0000 0.26460  0.30620  0.73540  Biso   1.000  O
  C271     1.0000 0.26635  0.48650  0.73365  Biso   1.000  C
  H271     1.0000 0.27710  0.47750  0.72290  Biso   1.000  H
  C272     1.0000 0.26600  0.38470  0.73400  Biso   1.000  C
  H272     1.0000 0.27670  0.39370  0.72330  Biso   1.000  H
  C273     1.0000 0.26600  0.35790  0.73400  Biso   1.000  C
  H273     1.0000 0.27670  0.34910  0.72330  Biso   1.000  H
  O124     1.0000 0.26460  0.80620  0.23540  Biso   1.000  O
  C274     1.0000 0.26635  0.98650  0.23365  Biso   1.000  C
  H274     1.0000 0.27710  0.97750  0.22290  Biso   1.000  H
  C275     1.0000 0.26600  0.88470  0.23400  Biso   1.000  C
  H275     1.0000 0.27670  0.89370  0.22330  Biso   1.000  H
  C276     1.0000 0.26600  0.85790  0.23400  Biso   1.000  C
  H276     1.0000 0.27670  0.84910  0.22330  Biso   1.000  H
  O125     1.0000 0.76460  0.69380  0.76460  Biso   1.000  O
  C277     1.0000 0.76635  0.51350  0.76635  Biso   1.000  C
  H277     1.0000 0.77710  0.52250  0.77710  Biso   1.000  H
  C278     1.0000 0.76600  0.61530  0.76600  Biso   1.000  C
  H278     1.0000 0.77670  0.60630  0.77670  Biso   1.000  H
  C279     1.0000 0.76600  0.64210  0.76600  Biso   1.000  C
  H279     1.0000 0.77670  0.65090  0.77670  Biso   1.000  H
  O126     1.0000 0.76460  0.19380  0.26460  Biso   1.000  O
  C280     1.0000 0.76635  0.01350  0.26635  Biso   1.000  C
  H280     1.0000 0.77710  0.02250  0.27710  Biso   1.000  H
  C281     1.0000 0.76600  0.11530  0.26600  Biso   1.000  C
  H281     1.0000 0.77670  0.10630  0.27670  Biso   1.000  H
  C282     1.0000 0.76600  0.14210  0.26600  Biso   1.000  C
  H282     1.0000 0.77670  0.15090  0.27670  Biso   1.000  H
  O127     1.0000 0.26460  0.69380  0.26460  Biso   1.000  O
  C283     1.0000 0.26635  0.51350  0.26635  Biso   1.000  C
  H283     1.0000 0.27710  0.52250  0.27710  Biso   1.000  H
  C284     1.0000 0.26600  0.61530  0.26600  Biso   1.000  C
  H284     1.0000 0.27670  0.60630  0.27670  Biso   1.000  H
  C285     1.0000 0.26600  0.64210  0.26600  Biso   1.000  C
  H285     1.0000 0.27670  0.65090  0.27670  Biso   1.000  H
  O128     1.0000 0.26460  0.19380  0.76460  Biso   1.000  O
  C286     1.0000 0.26635  0.01350  0.76635  Biso   1.000  C
  H286     1.0000 0.27710  0.02250  0.77710  Biso   1.000  H
  C287     1.0000 0.26600  0.11530  0.76600  Biso   1.000  C
  H287     1.0000 0.27670  0.10630  0.77670  Biso   1.000  H
  C288     1.0000 0.26600  0.14210  0.76600  Biso   1.000  C
  H288     1.0000 0.27670  0.15090  0.77670  Biso   1.000  H
  O129     1.0000 0.23540  0.23540  0.69380  Biso   1.000  O
  C289     1.0000 0.23365  0.23365  0.51350  Biso   1.000  C
  H289     1.0000 0.22290  0.22290  0.52250  Biso   1.000  H
  C290     1.0000 0.23400  0.23400  0.61530  Biso   1.000  C
  H290     1.0000 0.22330  0.22330  0.60630  Biso   1.000  H
  C291     1.0000 0.23400  0.23400  0.64210  Biso   1.000  C
  H291     1.0000 0.22330  0.22330  0.65090  Biso   1.000  H
  O130     1.0000 0.23540  0.73540  0.19380  Biso   1.000  O
  C292     1.0000 0.23365  0.73365  0.01350  Biso   1.000  C
  H292     1.0000 0.22290  0.72290  0.02250  Biso   1.000  H
  C293     1.0000 0.23400  0.73400  0.11530  Biso   1.000  C
  H293     1.0000 0.22330  0.72330  0.10630  Biso   1.000  H
  C294     1.0000 0.23400  0.73400  0.14210  Biso   1.000  C
  H294     1.0000 0.22330  0.72330  0.15090  Biso   1.000  H
  O131     1.0000 0.73540  0.23540  0.19380  Biso   1.000  O
  C295     1.0000 0.73365  0.23365  0.01350  Biso   1.000  C
  H295     1.0000 0.72290  0.22290  0.02250  Biso   1.000  H
  C296     1.0000 0.73400  0.23400  0.11530  Biso   1.000  C
  H296     1.0000 0.72330  0.22330  0.10630  Biso   1.000  H
  C297     1.0000 0.73400  0.23400  0.14210  Biso   1.000  C
  H297     1.0000 0.72330  0.22330  0.15090  Biso   1.000  H
  O132     1.0000 0.73540  0.73540  0.69380  Biso   1.000  O
  C298     1.0000 0.73365  0.73365  0.51350  Biso   1.000  C
  H298     1.0000 0.72290  0.72290  0.52250  Biso   1.000  H
  C299     1.0000 0.73400  0.73400  0.61530  Biso   1.000  C
  H299     1.0000 0.72330  0.72330  0.60630  Biso   1.000  H
  C300     1.0000 0.73400  0.73400  0.64210  Biso   1.000  C
  H300     1.0000 0.72330  0.72330  0.65090  Biso   1.000  H
  O133     1.0000 0.76460  0.23540  0.30620  Biso   1.000  O
  C301     1.0000 0.76635  0.23365  0.48650  Biso   1.000  C
  H301     1.0000 0.77710  0.22290  0.47750  Biso   1.000  H
  C302     1.0000 0.76600  0.23400  0.38470  Biso   1.000  C
  H302     1.0000 0.77670  0.22330  0.39370  Biso   1.000  H
  C303     1.0000 0.76600  0.23400  0.35790  Biso   1.000  C
  H303     1.0000 0.77670  0.22330  0.34910  Biso   1.000  H
  O134     1.0000 0.76460  0.73540  0.80620  Biso   1.000  O
  C304     1.0000 0.76635  0.73365  0.98650  Biso   1.000  C
  H304     1.0000 0.77710  0.72290  0.97750  Biso   1.000  H
  C305     1.0000 0.76600  0.73400  0.88470  Biso   1.000  C
  H305     1.0000 0.77670  0.72330  0.89370  Biso   1.000  H
  C306     1.0000 0.76600  0.73400  0.85790  Biso   1.000  C
  H306     1.0000 0.77670  0.72330  0.84910  Biso   1.000  H
  O135     1.0000 0.26460  0.23540  0.80620  Biso   1.000  O
  C307     1.0000 0.26635  0.23365  0.98650  Biso   1.000  C
  H307     1.0000 0.27710  0.22290  0.97750  Biso   1.000  H
  C308     1.0000 0.26600  0.23400  0.88470  Biso   1.000  C
  H308     1.0000 0.27670  0.22330  0.89370  Biso   1.000  H
  C309     1.0000 0.26600  0.23400  0.85790  Biso   1.000  C
  H309     1.0000 0.27670  0.22330  0.84910  Biso   1.000  H
  O136     1.0000 0.26460  0.73540  0.30620  Biso   1.000  O
  C310     1.0000 0.26635  0.73365  0.48650  Biso   1.000  C
  H310     1.0000 0.27710  0.72290  0.47750  Biso   1.000  H
  C311     1.0000 0.26600  0.73400  0.38470  Biso   1.000  C
  H311     1.0000 0.27670  0.72330  0.39370  Biso   1.000  H
  C312     1.0000 0.26600  0.73400  0.35790  Biso   1.000  C
  H312     1.0000 0.27670  0.72330  0.34910  Biso   1.000  H
  O137     1.0000 0.23540  0.76460  0.30620  Biso   1.000  O
  C313     1.0000 0.23365  0.76635  0.48650  Biso   1.000  C
  H313     1.0000 0.22290  0.77710  0.47750  Biso   1.000  H
  C314     1.0000 0.23400  0.76600  0.38470  Biso   1.000  C
  H314     1.0000 0.22330  0.77670  0.39370  Biso   1.000  H
  C315     1.0000 0.23400  0.76600  0.35790  Biso   1.000  C
  H315     1.0000 0.22330  0.77670  0.34910  Biso   1.000  H
  O138     1.0000 0.23540  0.26460  0.80620  Biso   1.000  O
  C316     1.0000 0.23365  0.26635  0.98650  Biso   1.000  C
  H316     1.0000 0.22290  0.27710  0.97750  Biso   1.000  H
  C317     1.0000 0.23400  0.26600  0.88470  Biso   1.000  C
  H317     1.0000 0.22330  0.27670  0.89370  Biso   1.000  H
  C318     1.0000 0.23400  0.26600  0.85790  Biso   1.000  C
  H318     1.0000 0.22330  0.27670  0.84910  Biso   1.000  H
  O139     1.0000 0.73540  0.76460  0.80620  Biso   1.000  O
  C319     1.0000 0.73365  0.76635  0.98650  Biso   1.000  C
  H319     1.0000 0.72290  0.77710  0.97750  Biso   1.000  H
  C320     1.0000 0.73400  0.76600  0.88470  Biso   1.000  C
  H320     1.0000 0.72330  0.77670  0.89370  Biso   1.000  H
  C321     1.0000 0.73400  0.76600  0.85790  Biso   1.000  C
  H321     1.0000 0.72330  0.77670  0.84910  Biso   1.000  H
  O140     1.0000 0.73540  0.26460  0.30620  Biso   1.000  O
  C322     1.0000 0.73365  0.26635  0.48650  Biso   1.000  C
  H322     1.0000 0.72290  0.27710  0.47750  Biso   1.000  H
  C323     1.0000 0.73400  0.26600  0.38470  Biso   1.000  C
  H323     1.0000 0.72330  0.27670  0.39370  Biso   1.000  H
  C324     1.0000 0.73400  0.26600  0.35790  Biso   1.000  C
  H324     1.0000 0.72330  0.27670  0.34910  Biso   1.000  H
  O141     1.0000 0.76460  0.76460  0.69380  Biso   1.000  O
  C325     1.0000 0.76635  0.76635  0.51350  Biso   1.000  C
  H325     1.0000 0.77710  0.77710  0.52250  Biso   1.000  H
  C326     1.0000 0.76600  0.76600  0.61530  Biso   1.000  C
  H326     1.0000 0.77670  0.77670  0.60630  Biso   1.000  H
  C327     1.0000 0.76600  0.76600  0.64210  Biso   1.000  C
  H327     1.0000 0.77670  0.77670  0.65090  Biso   1.000  H
  O142     1.0000 0.76460  0.26460  0.19380  Biso   1.000  O
  C328     1.0000 0.76635  0.26635  0.01350  Biso   1.000  C
  H328     1.0000 0.77710  0.27710  0.02250  Biso   1.000  H
  C329     1.0000 0.76600  0.26600  0.11530  Biso   1.000  C
  H329     1.0000 0.77670  0.27670  0.10630  Biso   1.000  H
  C330     1.0000 0.76600  0.26600  0.14210  Biso   1.000  C
  H330     1.0000 0.77670  0.27670  0.15090  Biso   1.000  H
  O143     1.0000 0.26460  0.76460  0.19380  Biso   1.000  O
  C331     1.0000 0.26635  0.76635  0.01350  Biso   1.000  C
  H331     1.0000 0.27710  0.77710  0.02250  Biso   1.000  H
  C332     1.0000 0.26600  0.76600  0.11530  Biso   1.000  C
  H332     1.0000 0.27670  0.77670  0.10630  Biso   1.000  H
  C333     1.0000 0.26600  0.76600  0.14210  Biso   1.000  C
  H333     1.0000 0.27670  0.77670  0.15090  Biso   1.000  H
  O144     1.0000 0.26460  0.26460  0.69380  Biso   1.000  O
  C334     1.0000 0.26635  0.26635  0.51350  Biso   1.000  C
  H334     1.0000 0.27710  0.27710  0.52250  Biso   1.000  H
  C335     1.0000 0.26600  0.26600  0.61530  Biso   1.000  C
  H335     1.0000 0.27670  0.27670  0.60630  Biso   1.000  H
  C336     1.0000 0.26600  0.26600  0.64210  Biso   1.000  C
  H336     1.0000 0.27670  0.27670  0.65090  Biso   1.000  H
  O145     1.0000 0.23540  0.69380  0.76460  Biso   1.000  O
  C337     1.0000 0.23365  0.51350  0.76635  Biso   1.000  C
  H337     1.0000 0.22290  0.52250  0.77710  Biso   1.000  H
  C338     1.0000 0.23400  0.61530  0.76600  Biso   1.000  C
  H338     1.0000 0.22330  0.60630  0.77670  Biso   1.000  H
  C339     1.0000 0.23400  0.64210  0.76600  Biso   1.000  C
  H339     1.0000 0.22330  0.65090  0.77670  Biso   1.000  H
  O146     1.0000 0.23540  0.19380  0.26460  Biso   1.000  O
  C340     1.0000 0.23365  0.01350  0.26635  Biso   1.000  C
  H340     1.0000 0.22290  0.02250  0.27710  Biso   1.000  H
  C341     1.0000 0.23400  0.11530  0.26600  Biso   1.000  C
  H341     1.0000 0.22330  0.10630  0.27670  Biso   1.000  H
  C342     1.0000 0.23400  0.14210  0.26600  Biso   1.000  C
  H342     1.0000 0.22330  0.15090  0.27670  Biso   1.000  H
  O147     1.0000 0.73540  0.69380  0.26460  Biso   1.000  O
  C343     1.0000 0.73365  0.51350  0.26635  Biso   1.000  C
  H343     1.0000 0.72290  0.52250  0.27710  Biso   1.000  H
  C344     1.0000 0.73400  0.61530  0.26600  Biso   1.000  C
  H344     1.0000 0.72330  0.60630  0.27670  Biso   1.000  H
  C345     1.0000 0.73400  0.64210  0.26600  Biso   1.000  C
  H345     1.0000 0.72330  0.65090  0.27670  Biso   1.000  H
  O148     1.0000 0.73540  0.19380  0.76460  Biso   1.000  O
  C346     1.0000 0.73365  0.01350  0.76635  Biso   1.000  C
  H346     1.0000 0.72290  0.02250  0.77710  Biso   1.000  H
  C347     1.0000 0.73400  0.11530  0.76600  Biso   1.000  C
  H347     1.0000 0.72330  0.10630  0.77670  Biso   1.000  H
  C348     1.0000 0.73400  0.14210  0.76600  Biso   1.000  C
  H348     1.0000 0.72330  0.15090  0.77670  Biso   1.000  H
  O149     1.0000 0.76460  0.30620  0.76460  Biso   1.000  O
  C349     1.0000 0.76635  0.48650  0.76635  Biso   1.000  C
  H349     1.0000 0.77710  0.47750  0.77710  Biso   1.000  H
  C350     1.0000 0.76600  0.38470  0.76600  Biso   1.000  C
  H350     1.0000 0.77670  0.39370  0.77670  Biso   1.000  H
  C351     1.0000 0.76600  0.35790  0.76600  Biso   1.000  C
  H351     1.0000 0.77670  0.34910  0.77670  Biso   1.000  H
  O150     1.0000 0.76460  0.80620  0.26460  Biso   1.000  O
  C352     1.0000 0.76635  0.98650  0.26635  Biso   1.000  C
  H352     1.0000 0.77710  0.97750  0.27710  Biso   1.000  H
  C353     1.0000 0.76600  0.88470  0.26600  Biso   1.000  C
  H353     1.0000 0.77670  0.89370  0.27670  Biso   1.000  H
  C354     1.0000 0.76600  0.85790  0.26600  Biso   1.000  C
  H354     1.0000 0.77670  0.84910  0.27670  Biso   1.000  H
  O151     1.0000 0.26460  0.30620  0.26460  Biso   1.000  O
  C355     1.0000 0.26635  0.48650  0.26635  Biso   1.000  C
  H355     1.0000 0.27710  0.47750  0.27710  Biso   1.000  H
  C356     1.0000 0.26600  0.38470  0.26600  Biso   1.000  C
  H356     1.0000 0.27670  0.39370  0.27670  Biso   1.000  H
  C357     1.0000 0.26600  0.35790  0.26600  Biso   1.000  C
  H357     1.0000 0.27670  0.34910  0.27670  Biso   1.000  H
  O152     1.0000 0.26460  0.80620  0.76460  Biso   1.000  O
  C358     1.0000 0.26635  0.98650  0.76635  Biso   1.000  C
  H358     1.0000 0.27710  0.97750  0.77710  Biso   1.000  H
  C359     1.0000 0.26600  0.88470  0.76600  Biso   1.000  C
  H359     1.0000 0.27670  0.89370  0.77670  Biso   1.000  H
  C360     1.0000 0.26600  0.85790  0.76600  Biso   1.000  C
  H360     1.0000 0.27670  0.84910  0.77670  Biso   1.000  H
  O153     1.0000 0.23540  0.30620  0.23540  Biso   1.000  O
  C361     1.0000 0.23365  0.48650  0.23365  Biso   1.000  C
  H361     1.0000 0.22290  0.47750  0.22290  Biso   1.000  H
  C362     1.0000 0.23400  0.38470  0.23400  Biso   1.000  C
  H362     1.0000 0.22330  0.39370  0.22330  Biso   1.000  H
  C363     1.0000 0.23400  0.35790  0.23400  Biso   1.000  C
  H363     1.0000 0.22330  0.34910  0.22330  Biso   1.000  H
  O154     1.0000 0.23540  0.80620  0.73540  Biso   1.000  O
  C364     1.0000 0.23365  0.98650  0.73365  Biso   1.000  C
  H364     1.0000 0.22290  0.97750  0.72290  Biso   1.000  H
  C365     1.0000 0.23400  0.88470  0.73400  Biso   1.000  C
  H365     1.0000 0.22330  0.89370  0.72330  Biso   1.000  H
  C366     1.0000 0.23400  0.85790  0.73400  Biso   1.000  C
  H366     1.0000 0.22330  0.84910  0.72330  Biso   1.000  H
  O155     1.0000 0.73540  0.30620  0.73540  Biso   1.000  O
  C367     1.0000 0.73365  0.48650  0.73365  Biso   1.000  C
  H367     1.0000 0.72290  0.47750  0.72290  Biso   1.000  H
  C368     1.0000 0.73400  0.38470  0.73400  Biso   1.000  C
  H368     1.0000 0.72330  0.39370  0.72330  Biso   1.000  H
  C369     1.0000 0.73400  0.35790  0.73400  Biso   1.000  C
  H369     1.0000 0.72330  0.34910  0.72330  Biso   1.000  H
  O156     1.0000 0.73540  0.80620  0.23540  Biso   1.000  O
  C370     1.0000 0.73365  0.98650  0.23365  Biso   1.000  C
  H370     1.0000 0.72290  0.97750  0.22290  Biso   1.000  H
  C371     1.0000 0.73400  0.88470  0.23400  Biso   1.000  C
  H371     1.0000 0.72330  0.89370  0.22330  Biso   1.000  H
  C372     1.0000 0.73400  0.85790  0.23400  Biso   1.000  C
  H372     1.0000 0.72330  0.84910  0.22330  Biso   1.000  H
  O157     1.0000 0.76460  0.69380  0.23540  Biso   1.000  O
  C373     1.0000 0.76635  0.51350  0.23365  Biso   1.000  C
  H373     1.0000 0.77710  0.52250  0.22290  Biso   1.000  H
  C374     1.0000 0.76600  0.61530  0.23400  Biso   1.000  C
  H374     1.0000 0.77670  0.60630  0.22330  Biso   1.000  H
  C375     1.0000 0.76600  0.64210  0.23400  Biso   1.000  C
  H375     1.0000 0.77670  0.65090  0.22330  Biso   1.000  H
  O158     1.0000 0.76460  0.19380  0.73540  Biso   1.000  O
  C376     1.0000 0.76635  0.01350  0.73365  Biso   1.000  C
  H376     1.0000 0.77710  0.02250  0.72290  Biso   1.000  H
  C377     1.0000 0.76600  0.11530  0.73400  Biso   1.000  C
  H377     1.0000 0.77670  0.10630  0.72330  Biso   1.000  H
  C378     1.0000 0.76600  0.14210  0.73400  Biso   1.000  C
  H378     1.0000 0.77670  0.15090  0.72330  Biso   1.000  H
  O159     1.0000 0.26460  0.69380  0.73540  Biso   1.000  O
  C379     1.0000 0.26635  0.51350  0.73365  Biso   1.000  C
  H379     1.0000 0.27710  0.52250  0.72290  Biso   1.000  H
  C380     1.0000 0.26600  0.61530  0.73400  Biso   1.000  C
  H380     1.0000 0.27670  0.60630  0.72330  Biso   1.000  H
  C381     1.0000 0.26600  0.64210  0.73400  Biso   1.000  C
  H381     1.0000 0.27670  0.65090  0.72330  Biso   1.000  H
  O160     1.0000 0.26460  0.19380  0.23540  Biso   1.000  O
  C382     1.0000 0.26635  0.01350  0.23365  Biso   1.000  C
  H382     1.0000 0.27710  0.02250  0.22290  Biso   1.000  H
  C383     1.0000 0.26600  0.11530  0.23400  Biso   1.000  C
  H383     1.0000 0.27670  0.10630  0.22330  Biso   1.000  H
  C384     1.0000 0.26600  0.14210  0.23400  Biso   1.000  C
  H384     1.0000 0.27670  0.15090  0.22330  Biso   1.000  H
  O161     1.0000 0.69380  0.23540  0.76460  Biso   1.000  O
  C385     1.0000 0.51350  0.23365  0.76635  Biso   1.000  C
  H385     1.0000 0.52250  0.22290  0.77710  Biso   1.000  H
  C386     1.0000 0.61530  0.23400  0.76600  Biso   1.000  C
  H386     1.0000 0.60630  0.22330  0.77670  Biso   1.000  H
  C387     1.0000 0.64210  0.23400  0.76600  Biso   1.000  C
  H387     1.0000 0.65090  0.22330  0.77670  Biso   1.000  H
  O162     1.0000 0.69380  0.73540  0.26460  Biso   1.000  O
  C388     1.0000 0.51350  0.73365  0.26635  Biso   1.000  C
  H388     1.0000 0.52250  0.72290  0.27710  Biso   1.000  H
  C389     1.0000 0.61530  0.73400  0.26600  Biso   1.000  C
  H389     1.0000 0.60630  0.72330  0.27670  Biso   1.000  H
  C390     1.0000 0.64210  0.73400  0.26600  Biso   1.000  C
  H390     1.0000 0.65090  0.72330  0.27670  Biso   1.000  H
  O163     1.0000 0.19380  0.23540  0.26460  Biso   1.000  O
  C391     1.0000 0.01350  0.23365  0.26635  Biso   1.000  C
  H391     1.0000 0.02250  0.22290  0.27710  Biso   1.000  H
  C392     1.0000 0.11530  0.23400  0.26600  Biso   1.000  C
  H392     1.0000 0.10630  0.22330  0.27670  Biso   1.000  H
  C393     1.0000 0.14210  0.23400  0.26600  Biso   1.000  C
  H393     1.0000 0.15090  0.22330  0.27670  Biso   1.000  H
  O164     1.0000 0.19380  0.73540  0.76460  Biso   1.000  O
  C394     1.0000 0.01350  0.73365  0.76635  Biso   1.000  C
  H394     1.0000 0.02250  0.72290  0.77710  Biso   1.000  H
  C395     1.0000 0.11530  0.73400  0.76600  Biso   1.000  C
  H395     1.0000 0.10630  0.72330  0.77670  Biso   1.000  H
  C396     1.0000 0.14210  0.73400  0.76600  Biso   1.000  C
  H396     1.0000 0.15090  0.72330  0.77670  Biso   1.000  H
  O165     1.0000 0.30620  0.23540  0.23540  Biso   1.000  O
  C397     1.0000 0.48650  0.23365  0.23365  Biso   1.000  C
  H397     1.0000 0.47750  0.22290  0.22290  Biso   1.000  H
  C398     1.0000 0.38470  0.23400  0.23400  Biso   1.000  C
  H398     1.0000 0.39370  0.22330  0.22330  Biso   1.000  H
  C399     1.0000 0.35790  0.23400  0.23400  Biso   1.000  C
  H399     1.0000 0.34910  0.22330  0.22330  Biso   1.000  H
  O166     1.0000 0.30620  0.73540  0.73540  Biso   1.000  O
  C400     1.0000 0.48650  0.73365  0.73365  Biso   1.000  C
  H400     1.0000 0.47750  0.72290  0.72290  Biso   1.000  H
  C401     1.0000 0.38470  0.73400  0.73400  Biso   1.000  C
  H401     1.0000 0.39370  0.72330  0.72330  Biso   1.000  H
  C402     1.0000 0.35790  0.73400  0.73400  Biso   1.000  C
  H402     1.0000 0.34910  0.72330  0.72330  Biso   1.000  H
  O167     1.0000 0.80620  0.23540  0.73540  Biso   1.000  O
  C403     1.0000 0.98650  0.23365  0.73365  Biso   1.000  C
  H403     1.0000 0.97750  0.22290  0.72290  Biso   1.000  H
  C404     1.0000 0.88470  0.23400  0.73400  Biso   1.000  C
  H404     1.0000 0.89370  0.22330  0.72330  Biso   1.000  H
  C405     1.0000 0.85790  0.23400  0.73400  Biso   1.000  C
  H405     1.0000 0.84910  0.22330  0.72330  Biso   1.000  H
  O168     1.0000 0.80620  0.73540  0.23540  Biso   1.000  O
  C406     1.0000 0.98650  0.73365  0.23365  Biso   1.000  C
  H406     1.0000 0.97750  0.72290  0.22290  Biso   1.000  H
  C407     1.0000 0.88470  0.73400  0.23400  Biso   1.000  C
  H407     1.0000 0.89370  0.72330  0.22330  Biso   1.000  H
  C408     1.0000 0.85790  0.73400  0.23400  Biso   1.000  C
  H408     1.0000 0.84910  0.72330  0.22330  Biso   1.000  H
  O169     1.0000 0.30620  0.76460  0.76460  Biso   1.000  O
  C409     1.0000 0.48650  0.76635  0.76635  Biso   1.000  C
  H409     1.0000 0.47750  0.77710  0.77710  Biso   1.000  H
  C410     1.0000 0.38470  0.76600  0.76600  Biso   1.000  C
  H410     1.0000 0.39370  0.77670  0.77670  Biso   1.000  H
  C411     1.0000 0.35790  0.76600  0.76600  Biso   1.000  C
  H411     1.0000 0.34910  0.77670  0.77670  Biso   1.000  H
  O170     1.0000 0.30620  0.26460  0.26460  Biso   1.000  O
  C412     1.0000 0.48650  0.26635  0.26635  Biso   1.000  C
  H412     1.0000 0.47750  0.27710  0.27710  Biso   1.000  H
  C413     1.0000 0.38470  0.26600  0.26600  Biso   1.000  C
  H413     1.0000 0.39370  0.27670  0.27670  Biso   1.000  H
  C414     1.0000 0.35790  0.26600  0.26600  Biso   1.000  C
  H414     1.0000 0.34910  0.27670  0.27670  Biso   1.000  H
  O171     1.0000 0.80620  0.76460  0.26460  Biso   1.000  O
  C415     1.0000 0.98650  0.76635  0.26635  Biso   1.000  C
  H415     1.0000 0.97750  0.77710  0.27710  Biso   1.000  H
  C416     1.0000 0.88470  0.76600  0.26600  Biso   1.000  C
  H416     1.0000 0.89370  0.77670  0.27670  Biso   1.000  H
  C417     1.0000 0.85790  0.76600  0.26600  Biso   1.000  C
  H417     1.0000 0.84910  0.77670  0.27670  Biso   1.000  H
  O172     1.0000 0.80620  0.26460  0.76460  Biso   1.000  O
  C418     1.0000 0.98650  0.26635  0.76635  Biso   1.000  C
  H418     1.0000 0.97750  0.27710  0.77710  Biso   1.000  H
  C419     1.0000 0.88470  0.26600  0.76600  Biso   1.000  C
  H419     1.0000 0.89370  0.27670  0.77670  Biso   1.000  H
  C420     1.0000 0.85790  0.26600  0.76600  Biso   1.000  C
  H420     1.0000 0.84910  0.27670  0.77670  Biso   1.000  H
  O173     1.0000 0.69380  0.76460  0.23540  Biso   1.000  O
  C421     1.0000 0.51350  0.76635  0.23365  Biso   1.000  C
  H421     1.0000 0.52250  0.77710  0.22290  Biso   1.000  H
  C422     1.0000 0.61530  0.76600  0.23400  Biso   1.000  C
  H422     1.0000 0.60630  0.77670  0.22330  Biso   1.000  H
  C423     1.0000 0.64210  0.76600  0.23400  Biso   1.000  C
  H423     1.0000 0.65090  0.77670  0.22330  Biso   1.000  H
  O174     1.0000 0.69380  0.26460  0.73540  Biso   1.000  O
  C424     1.0000 0.51350  0.26635  0.73365  Biso   1.000  C
  H424     1.0000 0.52250  0.27710  0.72290  Biso   1.000  H
  C425     1.0000 0.61530  0.26600  0.73400  Biso   1.000  C
  H425     1.0000 0.60630  0.27670  0.72330  Biso   1.000  H
  C426     1.0000 0.64210  0.26600  0.73400  Biso   1.000  C
  H426     1.0000 0.65090  0.27670  0.72330  Biso   1.000  H
  O175     1.0000 0.19380  0.76460  0.73540  Biso   1.000  O
  C427     1.0000 0.01350  0.76635  0.73365  Biso   1.000  C
  H427     1.0000 0.02250  0.77710  0.72290  Biso   1.000  H
  C428     1.0000 0.11530  0.76600  0.73400  Biso   1.000  C
  H428     1.0000 0.10630  0.77670  0.72330  Biso   1.000  H
  C429     1.0000 0.14210  0.76600  0.73400  Biso   1.000  C
  H429     1.0000 0.15090  0.77670  0.72330  Biso   1.000  H
  O176     1.0000 0.19380  0.26460  0.23540  Biso   1.000  O
  C430     1.0000 0.01350  0.26635  0.23365  Biso   1.000  C
  H430     1.0000 0.02250  0.27710  0.22290  Biso   1.000  H
  C431     1.0000 0.11530  0.26600  0.23400  Biso   1.000  C
  H431     1.0000 0.10630  0.27670  0.22330  Biso   1.000  H
  C432     1.0000 0.14210  0.26600  0.23400  Biso   1.000  C
  H432     1.0000 0.15090  0.27670  0.22330  Biso   1.000  H
  O177     1.0000 0.23540  0.23540  0.30620  Biso   1.000  O
  C433     1.0000 0.23365  0.23365  0.48650  Biso   1.000  C
  H433     1.0000 0.22290  0.22290  0.47750  Biso   1.000  H
  C434     1.0000 0.23400  0.23400  0.38470  Biso   1.000  C
  H434     1.0000 0.22330  0.22330  0.39370  Biso   1.000  H
  C435     1.0000 0.23400  0.23400  0.35790  Biso   1.000  C
  H435     1.0000 0.22330  0.22330  0.34910  Biso   1.000  H
  O178     1.0000 0.23540  0.73540  0.80620  Biso   1.000  O
  C436     1.0000 0.23365  0.73365  0.98650  Biso   1.000  C
  H436     1.0000 0.22290  0.72290  0.97750  Biso   1.000  H
  C437     1.0000 0.23400  0.73400  0.88470  Biso   1.000  C
  H437     1.0000 0.22330  0.72330  0.89370  Biso   1.000  H
  C438     1.0000 0.23400  0.73400  0.85790  Biso   1.000  C
  H438     1.0000 0.22330  0.72330  0.84910  Biso   1.000  H
  O179     1.0000 0.73540  0.23540  0.80620  Biso   1.000  O
  C439     1.0000 0.73365  0.23365  0.98650  Biso   1.000  C
  H439     1.0000 0.72290  0.22290  0.97750  Biso   1.000  H
  C440     1.0000 0.73400  0.23400  0.88470  Biso   1.000  C
  H440     1.0000 0.72330  0.22330  0.89370  Biso   1.000  H
  C441     1.0000 0.73400  0.23400  0.85790  Biso   1.000  C
  H441     1.0000 0.72330  0.22330  0.84910  Biso   1.000  H
  O180     1.0000 0.73540  0.73540  0.30620  Biso   1.000  O
  C442     1.0000 0.73365  0.73365  0.48650  Biso   1.000  C
  H442     1.0000 0.72290  0.72290  0.47750  Biso   1.000  H
  C443     1.0000 0.73400  0.73400  0.38470  Biso   1.000  C
  H443     1.0000 0.72330  0.72330  0.39370  Biso   1.000  H
  C444     1.0000 0.73400  0.73400  0.35790  Biso   1.000  C
  H444     1.0000 0.72330  0.72330  0.34910  Biso   1.000  H
  O181     1.0000 0.23540  0.76460  0.69380  Biso   1.000  O
  C445     1.0000 0.23365  0.76635  0.51350  Biso   1.000  C
  H445     1.0000 0.22290  0.77710  0.52250  Biso   1.000  H
  C446     1.0000 0.23400  0.76600  0.61530  Biso   1.000  C
  H446     1.0000 0.22330  0.77670  0.60630  Biso   1.000  H
  C447     1.0000 0.23400  0.76600  0.64210  Biso   1.000  C
  H447     1.0000 0.22330  0.77670  0.65090  Biso   1.000  H
  O182     1.0000 0.23540  0.26460  0.19380  Biso   1.000  O
  C448     1.0000 0.23365  0.26635  0.01350  Biso   1.000  C
  H448     1.0000 0.22290  0.27710  0.02250  Biso   1.000  H
  C449     1.0000 0.23400  0.26600  0.11530  Biso   1.000  C
  H449     1.0000 0.22330  0.27670  0.10630  Biso   1.000  H
  C450     1.0000 0.23400  0.26600  0.14210  Biso   1.000  C
  H450     1.0000 0.22330  0.27670  0.15090  Biso   1.000  H
  O183     1.0000 0.73540  0.76460  0.19380  Biso   1.000  O
  C451     1.0000 0.73365  0.76635  0.01350  Biso   1.000  C
  H451     1.0000 0.72290  0.77710  0.02250  Biso   1.000  H
  C452     1.0000 0.73400  0.76600  0.11530  Biso   1.000  C
  H452     1.0000 0.72330  0.77670  0.10630  Biso   1.000  H
  C453     1.0000 0.73400  0.76600  0.14210  Biso   1.000  C
  H453     1.0000 0.72330  0.77670  0.15090  Biso   1.000  H
  O184     1.0000 0.73540  0.26460  0.69380  Biso   1.000  O
  C454     1.0000 0.73365  0.26635  0.51350  Biso   1.000  C
  H454     1.0000 0.72290  0.27710  0.52250  Biso   1.000  H
  C455     1.0000 0.73400  0.26600  0.61530  Biso   1.000  C
  H455     1.0000 0.72330  0.27670  0.60630  Biso   1.000  H
  C456     1.0000 0.73400  0.26600  0.64210  Biso   1.000  C
  H456     1.0000 0.72330  0.27670  0.65090  Biso   1.000  H
  O185     1.0000 0.76460  0.23540  0.69380  Biso   1.000  O
  C457     1.0000 0.76635  0.23365  0.51350  Biso   1.000  C
  H457     1.0000 0.77710  0.22290  0.52250  Biso   1.000  H
  C458     1.0000 0.76600  0.23400  0.61530  Biso   1.000  C
  H458     1.0000 0.77670  0.22330  0.60630  Biso   1.000  H
  C459     1.0000 0.76600  0.23400  0.64210  Biso   1.000  C
  H459     1.0000 0.77670  0.22330  0.65090  Biso   1.000  H
  O186     1.0000 0.76460  0.73540  0.19380  Biso   1.000  O
  C460     1.0000 0.76635  0.73365  0.01350  Biso   1.000  C
  H460     1.0000 0.77710  0.72290  0.02250  Biso   1.000  H
  C461     1.0000 0.76600  0.73400  0.11530  Biso   1.000  C
  H461     1.0000 0.77670  0.72330  0.10630  Biso   1.000  H
  C462     1.0000 0.76600  0.73400  0.14210  Biso   1.000  C
  H462     1.0000 0.77670  0.72330  0.15090  Biso   1.000  H
  O187     1.0000 0.26460  0.23540  0.19380  Biso   1.000  O
  C463     1.0000 0.26635  0.23365  0.01350  Biso   1.000  C
  H463     1.0000 0.27710  0.22290  0.02250  Biso   1.000  H
  C464     1.0000 0.26600  0.23400  0.11530  Biso   1.000  C
  H464     1.0000 0.27670  0.22330  0.10630  Biso   1.000  H
  C465     1.0000 0.26600  0.23400  0.14210  Biso   1.000  C
  H465     1.0000 0.27670  0.22330  0.15090  Biso   1.000  H
  O188     1.0000 0.26460  0.73540  0.69380  Biso   1.000  O
  C466     1.0000 0.26635  0.73365  0.51350  Biso   1.000  C
  H466     1.0000 0.27710  0.72290  0.52250  Biso   1.000  H
  C467     1.0000 0.26600  0.73400  0.61530  Biso   1.000  C
  H467     1.0000 0.27670  0.72330  0.60630  Biso   1.000  H
  C468     1.0000 0.26600  0.73400  0.64210  Biso   1.000  C
  H468     1.0000 0.27670  0.72330  0.65090  Biso   1.000  H
  O189     1.0000 0.76460  0.76460  0.30620  Biso   1.000  O
  C469     1.0000 0.76635  0.76635  0.48650  Biso   1.000  C
  H469     1.0000 0.77710  0.77710  0.47750  Biso   1.000  H
  C470     1.0000 0.76600  0.76600  0.38470  Biso   1.000  C
  H470     1.0000 0.77670  0.77670  0.39370  Biso   1.000  H
  C471     1.0000 0.76600  0.76600  0.35790  Biso   1.000  C
  H471     1.0000 0.77670  0.77670  0.34910  Biso   1.000  H
  O190     1.0000 0.76460  0.26460  0.80620  Biso   1.000  O
  C472     1.0000 0.76635  0.26635  0.98650  Biso   1.000  C
  H472     1.0000 0.77710  0.27710  0.97750  Biso   1.000  H
  C473     1.0000 0.76600  0.26600  0.88470  Biso   1.000  C
  H473     1.0000 0.77670  0.27670  0.89370  Biso   1.000  H
  C474     1.0000 0.76600  0.26600  0.85790  Biso   1.000  C
  H474     1.0000 0.77670  0.27670  0.84910  Biso   1.000  H
  O191     1.0000 0.26460  0.76460  0.80620  Biso   1.000  O
  C475     1.0000 0.26635  0.76635  0.98650  Biso   1.000  C
  H475     1.0000 0.27710  0.77710  0.97750  Biso   1.000  H
  C476     1.0000 0.26600  0.76600  0.88470  Biso   1.000  C
  H476     1.0000 0.27670  0.77670  0.89370  Biso   1.000  H
  C477     1.0000 0.26600  0.76600  0.85790  Biso   1.000  C
  H477     1.0000 0.27670  0.77670  0.84910  Biso   1.000  H
  O192     1.0000 0.26460  0.26460  0.30620  Biso   1.000  O
  C478     1.0000 0.26635  0.26635  0.48650  Biso   1.000  C
  H478     1.0000 0.27710  0.27710  0.47750  Biso   1.000  H
  C479     1.0000 0.26600  0.26600  0.38470  Biso   1.000  C
  H479     1.0000 0.27670  0.27670  0.39370  Biso   1.000  H
  C480     1.0000 0.26600  0.26600  0.35790  Biso   1.000  C
  H480     1.0000 0.27670  0.27670  0.34910  Biso   1.000  H
  O193     1.0000 0.75000  0.25000  0.25000  Biso   1.000  O
  O194     1.0000 0.25000  0.75000  0.25000  Biso   1.000  O
  O195     1.0000 0.25000  0.25000  0.75000  Biso   1.000  O
  O196     1.0000 0.75000  0.75000  0.75000  Biso   1.000  O
  O197     1.0000 0.25000  0.75000  0.75000  Biso   1.000  O
  O198     1.0000 0.75000  0.25000  0.75000  Biso   1.000  O
  O199     1.0000 0.25000  0.25000  0.25000  Biso   1.000  O
  O200     1.0000 0.75000  0.75000  0.25000  Biso   1.000  O
  C481     1.0000 0.68380  0.25000  0.25000  Biso   1.000  C
  C482     1.0000 0.65510  0.25000  0.25000  Biso   1.000  C
  C483     1.0000 0.60280  0.25000  0.25000  Biso   1.000  C
  C484     1.0000 0.57570  0.25000  0.25000  Biso   1.000  C
  C485     1.0000 0.55440  0.25000  0.25000  Biso   1.000  C
  C486     1.0000 0.52630  0.25000  0.25000  Biso   1.000  C
  C487     1.0000 0.18380  0.25000  0.75000  Biso   1.000  C
  C488     1.0000 0.15510  0.25000  0.75000  Biso   1.000  C
  C489     1.0000 0.10280  0.25000  0.75000  Biso   1.000  C
  C490     1.0000 0.07570  0.25000  0.75000  Biso   1.000  C
  C491     1.0000 0.05440  0.25000  0.75000  Biso   1.000  C
  C492     1.0000 0.02630  0.25000  0.75000  Biso   1.000  C
  C493     1.0000 0.31620  0.75000  0.25000  Biso   1.000  C
  C494     1.0000 0.34490  0.75000  0.25000  Biso   1.000  C
  C495     1.0000 0.39720  0.75000  0.25000  Biso   1.000  C
  C496     1.0000 0.42430  0.75000  0.25000  Biso   1.000  C
  C497     1.0000 0.44560  0.75000  0.25000  Biso   1.000  C
  C498     1.0000 0.47370  0.75000  0.25000  Biso   1.000  C
  C499     1.0000 0.81620  0.75000  0.75000  Biso   1.000  C
  C500     1.0000 0.84490  0.75000  0.75000  Biso   1.000  C
  C501     1.0000 0.89720  0.75000  0.75000  Biso   1.000  C
  C502     1.0000 0.92430  0.75000  0.75000  Biso   1.000  C
  C503     1.0000 0.94560  0.75000  0.75000  Biso   1.000  C
  C504     1.0000 0.97370  0.75000  0.75000  Biso   1.000  C
  C505     1.0000 0.81620  0.25000  0.25000  Biso   1.000  C
  C506     1.0000 0.84490  0.25000  0.25000  Biso   1.000  C
  C507     1.0000 0.89720  0.25000  0.25000  Biso   1.000  C
  C508     1.0000 0.92430  0.25000  0.25000  Biso   1.000  C
  C509     1.0000 0.94560  0.25000  0.25000  Biso   1.000  C
  C510     1.0000 0.97370  0.25000  0.25000  Biso   1.000  C
  C511     1.0000 0.31620  0.25000  0.75000  Biso   1.000  C
  C512     1.0000 0.34490  0.25000  0.75000  Biso   1.000  C
  C513     1.0000 0.39720  0.25000  0.75000  Biso   1.000  C
  C514     1.0000 0.42430  0.25000  0.75000  Biso   1.000  C
  C515     1.0000 0.44560  0.25000  0.75000  Biso   1.000  C
  C516     1.0000 0.47370  0.25000  0.75000  Biso   1.000  C
  C517     1.0000 0.68380  0.75000  0.75000  Biso   1.000  C
  C518     1.0000 0.65510  0.75000  0.75000  Biso   1.000  C
  C519     1.0000 0.60280  0.75000  0.75000  Biso   1.000  C
  C520     1.0000 0.57570  0.75000  0.75000  Biso   1.000  C
  C521     1.0000 0.55440  0.75000  0.75000  Biso   1.000  C
  C522     1.0000 0.52630  0.75000  0.75000  Biso   1.000  C
  C523     1.0000 0.18380  0.75000  0.25000  Biso   1.000  C
  C524     1.0000 0.15510  0.75000  0.25000  Biso   1.000  C
  C525     1.0000 0.10280  0.75000  0.25000  Biso   1.000  C
  C526     1.0000 0.07570  0.75000  0.25000  Biso   1.000  C
  C527     1.0000 0.05440  0.75000  0.25000  Biso   1.000  C
  C528     1.0000 0.02630  0.75000  0.25000  Biso   1.000  C
  C529     1.0000 0.25000  0.68380  0.25000  Biso   1.000  C
  C530     1.0000 0.25000  0.65510  0.25000  Biso   1.000  C
  C531     1.0000 0.25000  0.60280  0.25000  Biso   1.000  C
  C532     1.0000 0.25000  0.57570  0.25000  Biso   1.000  C
  C533     1.0000 0.25000  0.55440  0.25000  Biso   1.000  C
  C534     1.0000 0.25000  0.52630  0.25000  Biso   1.000  C
  C535     1.0000 0.25000  0.18380  0.75000  Biso   1.000  C
  C536     1.0000 0.25000  0.15510  0.75000  Biso   1.000  C
  C537     1.0000 0.25000  0.10280  0.75000  Biso   1.000  C
  C538     1.0000 0.25000  0.07570  0.75000  Biso   1.000  C
  C539     1.0000 0.25000  0.05440  0.75000  Biso   1.000  C
  C540     1.0000 0.25000  0.02630  0.75000  Biso   1.000  C
  C541     1.0000 0.25000  0.31620  0.75000  Biso   1.000  C
  C542     1.0000 0.25000  0.34490  0.75000  Biso   1.000  C
  C543     1.0000 0.25000  0.39720  0.75000  Biso   1.000  C
  C544     1.0000 0.25000  0.42430  0.75000  Biso   1.000  C
  C545     1.0000 0.25000  0.44560  0.75000  Biso   1.000  C
  C546     1.0000 0.25000  0.47370  0.75000  Biso   1.000  C
  C547     1.0000 0.25000  0.81620  0.25000  Biso   1.000  C
  C548     1.0000 0.25000  0.84490  0.25000  Biso   1.000  C
  C549     1.0000 0.25000  0.89720  0.25000  Biso   1.000  C
  C550     1.0000 0.25000  0.92430  0.25000  Biso   1.000  C
  C551     1.0000 0.25000  0.94560  0.25000  Biso   1.000  C
  C552     1.0000 0.25000  0.97370  0.25000  Biso   1.000  C
  C553     1.0000 0.75000  0.31620  0.25000  Biso   1.000  C
  C554     1.0000 0.75000  0.34490  0.25000  Biso   1.000  C
  C555     1.0000 0.75000  0.39720  0.25000  Biso   1.000  C
  C556     1.0000 0.75000  0.42430  0.25000  Biso   1.000  C
  C557     1.0000 0.75000  0.44560  0.25000  Biso   1.000  C
  C558     1.0000 0.75000  0.47370  0.25000  Biso   1.000  C
  C559     1.0000 0.75000  0.81620  0.75000  Biso   1.000  C
  C560     1.0000 0.75000  0.84490  0.75000  Biso   1.000  C
  C561     1.0000 0.75000  0.89720  0.75000  Biso   1.000  C
  C562     1.0000 0.75000  0.92430  0.75000  Biso   1.000  C
  C563     1.0000 0.75000  0.94560  0.75000  Biso   1.000  C
  C564     1.0000 0.75000  0.97370  0.75000  Biso   1.000  C
  C565     1.0000 0.75000  0.68380  0.75000  Biso   1.000  C
  C566     1.0000 0.75000  0.65510  0.75000  Biso   1.000  C
  C567     1.0000 0.75000  0.60280  0.75000  Biso   1.000  C
  C568     1.0000 0.75000  0.57570  0.75000  Biso   1.000  C
  C569     1.0000 0.75000  0.55440  0.75000  Biso   1.000  C
  C570     1.0000 0.75000  0.52630  0.75000  Biso   1.000  C
  C571     1.0000 0.75000  0.18380  0.25000  Biso   1.000  C
  C572     1.0000 0.75000  0.15510  0.25000  Biso   1.000  C
  C573     1.0000 0.75000  0.10280  0.25000  Biso   1.000  C
  C574     1.0000 0.75000  0.07570  0.25000  Biso   1.000  C
  C575     1.0000 0.75000  0.05440  0.25000  Biso   1.000  C
  C576     1.0000 0.75000  0.02630  0.25000  Biso   1.000  C
  C577     1.0000 0.25000  0.25000  0.68380  Biso   1.000  C
  C578     1.0000 0.25000  0.25000  0.65510  Biso   1.000  C
  C579     1.0000 0.25000  0.25000  0.60280  Biso   1.000  C
  C580     1.0000 0.25000  0.25000  0.57570  Biso   1.000  C
  C581     1.0000 0.25000  0.25000  0.55440  Biso   1.000  C
  C582     1.0000 0.25000  0.25000  0.52630  Biso   1.000  C
  C583     1.0000 0.25000  0.75000  0.18380  Biso   1.000  C
  C584     1.0000 0.25000  0.75000  0.15510  Biso   1.000  C
  C585     1.0000 0.25000  0.75000  0.10280  Biso   1.000  C
  C586     1.0000 0.25000  0.75000  0.07570  Biso   1.000  C
  C587     1.0000 0.25000  0.75000  0.05440  Biso   1.000  C
  C588     1.0000 0.25000  0.75000  0.02630  Biso   1.000  C
  C589     1.0000 0.75000  0.25000  0.31620  Biso   1.000  C
  C590     1.0000 0.75000  0.25000  0.34490  Biso   1.000  C
  C591     1.0000 0.75000  0.25000  0.39720  Biso   1.000  C
  C592     1.0000 0.75000  0.25000  0.42430  Biso   1.000  C
  C593     1.0000 0.75000  0.25000  0.44560  Biso   1.000  C
  C594     1.0000 0.75000  0.25000  0.47370  Biso   1.000  C
  C595     1.0000 0.75000  0.75000  0.81620  Biso   1.000  C
  C596     1.0000 0.75000  0.75000  0.84490  Biso   1.000  C
  C597     1.0000 0.75000  0.75000  0.89720  Biso   1.000  C
  C598     1.0000 0.75000  0.75000  0.92430  Biso   1.000  C
  C599     1.0000 0.75000  0.75000  0.94560  Biso   1.000  C
  C600     1.0000 0.75000  0.75000  0.97370  Biso   1.000  C
  C601     1.0000 0.25000  0.25000  0.81620  Biso   1.000  C
  C602     1.0000 0.25000  0.25000  0.84490  Biso   1.000  C
  C603     1.0000 0.25000  0.25000  0.89720  Biso   1.000  C
  C604     1.0000 0.25000  0.25000  0.92430  Biso   1.000  C
  C605     1.0000 0.25000  0.25000  0.94560  Biso   1.000  C
  C606     1.0000 0.25000  0.25000  0.97370  Biso   1.000  C
  C607     1.0000 0.25000  0.75000  0.31620  Biso   1.000  C
  C608     1.0000 0.25000  0.75000  0.34490  Biso   1.000  C
  C609     1.0000 0.25000  0.75000  0.39720  Biso   1.000  C
  C610     1.0000 0.25000  0.75000  0.42430  Biso   1.000  C
  C611     1.0000 0.25000  0.75000  0.44560  Biso   1.000  C
  C612     1.0000 0.25000  0.75000  0.47370  Biso   1.000  C
  C613     1.0000 0.75000  0.75000  0.68380  Biso   1.000  C
  C614     1.0000 0.75000  0.75000  0.65510  Biso   1.000  C
  C615     1.0000 0.75000  0.75000  0.60280  Biso   1.000  C
  C616     1.0000 0.75000  0.75000  0.57570  Biso   1.000  C
  C617     1.0000 0.75000  0.75000  0.55440  Biso   1.000  C
  C618     1.0000 0.75000  0.75000  0.52630  Biso   1.000  C
  C619     1.0000 0.75000  0.25000  0.18380  Biso   1.000  C
  C620     1.0000 0.75000  0.25000  0.15510  Biso   1.000  C
  C621     1.0000 0.75000  0.25000  0.10280  Biso   1.000  C
  C622     1.0000 0.75000  0.25000  0.07570  Biso   1.000  C
  C623     1.0000 0.75000  0.25000  0.05440  Biso   1.000  C
  C624     1.0000 0.75000  0.25000  0.02630  Biso   1.000  C
  C625     1.0000 0.25000  0.68380  0.75000  Biso   1.000  C
  C626     1.0000 0.25000  0.65510  0.75000  Biso   1.000  C
  C627     1.0000 0.25000  0.60280  0.75000  Biso   1.000  C
  C628     1.0000 0.25000  0.57570  0.75000  Biso   1.000  C
  C629     1.0000 0.25000  0.55440  0.75000  Biso   1.000  C
  C630     1.0000 0.25000  0.52630  0.75000  Biso   1.000  C
  C631     1.0000 0.25000  0.18380  0.25000  Biso   1.000  C
  C632     1.0000 0.25000  0.15510  0.25000  Biso   1.000  C
  C633     1.0000 0.25000  0.10280  0.25000  Biso   1.000  C
  C634     1.0000 0.25000  0.07570  0.25000  Biso   1.000  C
  C635     1.0000 0.25000  0.05440  0.25000  Biso   1.000  C
  C636     1.0000 0.25000  0.02630  0.25000  Biso   1.000  C
  C637     1.0000 0.75000  0.31620  0.75000  Biso   1.000  C
  C638     1.0000 0.75000  0.34490  0.75000  Biso   1.000  C
  C639     1.0000 0.75000  0.39720  0.75000  Biso   1.000  C
  C640     1.0000 0.75000  0.42430  0.75000  Biso   1.000  C
  C641     1.0000 0.75000  0.44560  0.75000  Biso   1.000  C
  C642     1.0000 0.75000  0.47370  0.75000  Biso   1.000  C
  C643     1.0000 0.75000  0.81620  0.25000  Biso   1.000  C
  C644     1.0000 0.75000  0.84490  0.25000  Biso   1.000  C
  C645     1.0000 0.75000  0.89720  0.25000  Biso   1.000  C
  C646     1.0000 0.75000  0.92430  0.25000  Biso   1.000  C
  C647     1.0000 0.75000  0.94560  0.25000  Biso   1.000  C
  C648     1.0000 0.75000  0.97370  0.25000  Biso   1.000  C
  C649     1.0000 0.25000  0.31620  0.25000  Biso   1.000  C
  C650     1.0000 0.25000  0.34490  0.25000  Biso   1.000  C
  C651     1.0000 0.25000  0.39720  0.25000  Biso   1.000  C
  C652     1.0000 0.25000  0.42430  0.25000  Biso   1.000  C
  C653     1.0000 0.25000  0.44560  0.25000  Biso   1.000  C
  C654     1.0000 0.25000  0.47370  0.25000  Biso   1.000  C
  C655     1.0000 0.25000  0.81620  0.75000  Biso   1.000  C
  C656     1.0000 0.25000  0.84490  0.75000  Biso   1.000  C
  C657     1.0000 0.25000  0.89720  0.75000  Biso   1.000  C
  C658     1.0000 0.25000  0.92430  0.75000  Biso   1.000  C
  C659     1.0000 0.25000  0.94560  0.75000  Biso   1.000  C
  C660     1.0000 0.25000  0.97370  0.75000  Biso   1.000  C
  C661     1.0000 0.75000  0.68380  0.25000  Biso   1.000  C
  C662     1.0000 0.75000  0.65510  0.25000  Biso   1.000  C
  C663     1.0000 0.75000  0.60280  0.25000  Biso   1.000  C
  C664     1.0000 0.75000  0.57570  0.25000  Biso   1.000  C
  C665     1.0000 0.75000  0.55440  0.25000  Biso   1.000  C
  C666     1.0000 0.75000  0.52630  0.25000  Biso   1.000  C
  C667     1.0000 0.75000  0.18380  0.75000  Biso   1.000  C
  C668     1.0000 0.75000  0.15510  0.75000  Biso   1.000  C
  C669     1.0000 0.75000  0.10280  0.75000  Biso   1.000  C
  C670     1.0000 0.75000  0.07570  0.75000  Biso   1.000  C
  C671     1.0000 0.75000  0.05440  0.75000  Biso   1.000  C
  C672     1.0000 0.75000  0.02630  0.75000  Biso   1.000  C
  C673     1.0000 0.68380  0.25000  0.75000  Biso   1.000  C
  C674     1.0000 0.65510  0.25000  0.75000  Biso   1.000  C
  C675     1.0000 0.60280  0.25000  0.75000  Biso   1.000  C
  C676     1.0000 0.57570  0.25000  0.75000  Biso   1.000  C
  C677     1.0000 0.55440  0.25000  0.75000  Biso   1.000  C
  C678     1.0000 0.52630  0.25000  0.75000  Biso   1.000  C
  C679     1.0000 0.18380  0.25000  0.25000  Biso   1.000  C
  C680     1.0000 0.15510  0.25000  0.25000  Biso   1.000  C
  C681     1.0000 0.10280  0.25000  0.25000  Biso   1.000  C
  C682     1.0000 0.07570  0.25000  0.25000  Biso   1.000  C
  C683     1.0000 0.05440  0.25000  0.25000  Biso   1.000  C
  C684     1.0000 0.02630  0.25000  0.25000  Biso   1.000  C
  C685     1.0000 0.31620  0.25000  0.25000  Biso   1.000  C
  C686     1.0000 0.34490  0.25000  0.25000  Biso   1.000  C
  C687     1.0000 0.39720  0.25000  0.25000  Biso   1.000  C
  C688     1.0000 0.42430  0.25000  0.25000  Biso   1.000  C
  C689     1.0000 0.44560  0.25000  0.25000  Biso   1.000  C
  C690     1.0000 0.47370  0.25000  0.25000  Biso   1.000  C
  C691     1.0000 0.81620  0.25000  0.75000  Biso   1.000  C
  C692     1.0000 0.84490  0.25000  0.75000  Biso   1.000  C
  C693     1.0000 0.89720  0.25000  0.75000  Biso   1.000  C
  C694     1.0000 0.92430  0.25000  0.75000  Biso   1.000  C
  C695     1.0000 0.94560  0.25000  0.75000  Biso   1.000  C
  C696     1.0000 0.97370  0.25000  0.75000  Biso   1.000  C
  C697     1.0000 0.31620  0.75000  0.75000  Biso   1.000  C
  C698     1.0000 0.34490  0.75000  0.75000  Biso   1.000  C
  C699     1.0000 0.39720  0.75000  0.75000  Biso   1.000  C
  C700     1.0000 0.42430  0.75000  0.75000  Biso   1.000  C
  C701     1.0000 0.44560  0.75000  0.75000  Biso   1.000  C
  C702     1.0000 0.47370  0.75000  0.75000  Biso   1.000  C
  C703     1.0000 0.81620  0.75000  0.25000  Biso   1.000  C
  C704     1.0000 0.84490  0.75000  0.25000  Biso   1.000  C
  C705     1.0000 0.89720  0.75000  0.25000  Biso   1.000  C
  C706     1.0000 0.92430  0.75000  0.25000  Biso   1.000  C
  C707     1.0000 0.94560  0.75000  0.25000  Biso   1.000  C
  C708     1.0000 0.97370  0.75000  0.25000  Biso   1.000  C
  C709     1.0000 0.68380  0.75000  0.25000  Biso   1.000  C
  C710     1.0000 0.65510  0.75000  0.25000  Biso   1.000  C
  C711     1.0000 0.60280  0.75000  0.25000  Biso   1.000  C
  C712     1.0000 0.57570  0.75000  0.25000  Biso   1.000  C
  C713     1.0000 0.55440  0.75000  0.25000  Biso   1.000  C
  C714     1.0000 0.52630  0.75000  0.25000  Biso   1.000  C
  C715     1.0000 0.18380  0.75000  0.75000  Biso   1.000  C
  C716     1.0000 0.15510  0.75000  0.75000  Biso   1.000  C
  C717     1.0000 0.10280  0.75000  0.75000  Biso   1.000  C
  C718     1.0000 0.07570  0.75000  0.75000  Biso   1.000  C
  C719     1.0000 0.05440  0.75000  0.75000  Biso   1.000  C
  C720     1.0000 0.02630  0.75000  0.75000  Biso   1.000  C
  C721     1.0000 0.25000  0.25000  0.31620  Biso   1.000  C
  C722     1.0000 0.25000  0.25000  0.34490  Biso   1.000  C
  C723     1.0000 0.25000  0.25000  0.39720  Biso   1.000  C
  C724     1.0000 0.25000  0.25000  0.42430  Biso   1.000  C
  C725     1.0000 0.25000  0.25000  0.44560  Biso   1.000  C
  C726     1.0000 0.25000  0.25000  0.47370  Biso   1.000  C
  C727     1.0000 0.25000  0.75000  0.81620  Biso   1.000  C
  C728     1.0000 0.25000  0.75000  0.84490  Biso   1.000  C
  C729     1.0000 0.25000  0.75000  0.89720  Biso   1.000  C
  C730     1.0000 0.25000  0.75000  0.92430  Biso   1.000  C
  C731     1.0000 0.25000  0.75000  0.94560  Biso   1.000  C
  C732     1.0000 0.25000  0.75000  0.97370  Biso   1.000  C
  C733     1.0000 0.25000  0.75000  0.68380  Biso   1.000  C
  C734     1.0000 0.25000  0.75000  0.65510  Biso   1.000  C
  C735     1.0000 0.25000  0.75000  0.60280  Biso   1.000  C
  C736     1.0000 0.25000  0.75000  0.57570  Biso   1.000  C
  C737     1.0000 0.25000  0.75000  0.55440  Biso   1.000  C
  C738     1.0000 0.25000  0.75000  0.52630  Biso   1.000  C
  C739     1.0000 0.25000  0.25000  0.18380  Biso   1.000  C
  C740     1.0000 0.25000  0.25000  0.15510  Biso   1.000  C
  C741     1.0000 0.25000  0.25000  0.10280  Biso   1.000  C
  C742     1.0000 0.25000  0.25000  0.07570  Biso   1.000  C
  C743     1.0000 0.25000  0.25000  0.05440  Biso   1.000  C
  C744     1.0000 0.25000  0.25000  0.02630  Biso   1.000  C
  C745     1.0000 0.75000  0.25000  0.68380  Biso   1.000  C
  C746     1.0000 0.75000  0.25000  0.65510  Biso   1.000  C
  C747     1.0000 0.75000  0.25000  0.60280  Biso   1.000  C
  C748     1.0000 0.75000  0.25000  0.57570  Biso   1.000  C
  C749     1.0000 0.75000  0.25000  0.55440  Biso   1.000  C
  C750     1.0000 0.75000  0.25000  0.52630  Biso   1.000  C
  C751     1.0000 0.75000  0.75000  0.18380  Biso   1.000  C
  C752     1.0000 0.75000  0.75000  0.15510  Biso   1.000  C
  C753     1.0000 0.75000  0.75000  0.10280  Biso   1.000  C
  C754     1.0000 0.75000  0.75000  0.07570  Biso   1.000  C
  C755     1.0000 0.75000  0.75000  0.05440  Biso   1.000  C
  C756     1.0000 0.75000  0.75000  0.02630  Biso   1.000  C
  C757     1.0000 0.75000  0.75000  0.31620  Biso   1.000  C
  C758     1.0000 0.75000  0.75000  0.34490  Biso   1.000  C
  C759     1.0000 0.75000  0.75000  0.39720  Biso   1.000  C
  C760     1.0000 0.75000  0.75000  0.42430  Biso   1.000  C
  C761     1.0000 0.75000  0.75000  0.44560  Biso   1.000  C
  C762     1.0000 0.75000  0.75000  0.47370  Biso   1.000  C
  C763     1.0000 0.75000  0.25000  0.81620  Biso   1.000  C
  C764     1.0000 0.75000  0.25000  0.84490  Biso   1.000  C
  C765     1.0000 0.75000  0.25000  0.89720  Biso   1.000  C
  C766     1.0000 0.75000  0.25000  0.92430  Biso   1.000  C
  C767     1.0000 0.75000  0.25000  0.94560  Biso   1.000  C
  C768     1.0000 0.75000  0.25000  0.97370  Biso   1.000  C
