data_image0
_cell_length_a       47.233
_cell_length_b       11.4571
_cell_length_c       25.455
_cell_angle_alpha    90
_cell_angle_beta     119.856
_cell_angle_gamma    90

_symmetry_space_group_name_H-M    "P 1"
_symmetry_int_tables_number       1

loop_
  _symmetry_equiv_pos_as_xyz
  'x, y, z'

loop_
  _atom_site_label
  _atom_site_occupancy
  _atom_site_fract_x
  _atom_site_fract_y
  _atom_site_fract_z
  _atom_site_thermal_displace_type
  _atom_site_B_iso_or_equiv
  _atom_site_type_symbol
  Zn1      1.0000 0.23134  0.04570  0.24984  Biso   1.000  Zn
  S1       1.0000 0.05801  0.41890  0.01218  Biso   1.000  S
  S2       1.0000 0.18607  0.67850  0.49064  Biso   1.000  S
  O1       1.0000 0.01357  0.64530  0.20310  Biso   1.000  O
  O2       1.0000 0.03780  0.80020  0.19020  Biso   1.000  O
  O3       1.0000 0.06640  0.50050  0.97940  Biso   1.000  O
  O4       1.0000 0.03230  0.33390  0.98040  Biso   1.000  O
  O5       1.0000 0.17427  0.03590  0.18150  Biso   1.000  O
  O6       1.0000 0.20490  0.19380  0.20590  Biso   1.000  O
  O7       1.0000 0.20970  0.05910  0.31720  Biso   1.000  O
  O8       1.0000 0.22822  0.90160  0.29420  Biso   1.000  O
  O9       1.0000 0.21150  0.59290  0.52230  Biso   1.000  O
  O10      1.0000 0.17810  0.76060  0.52380  Biso   1.000  O
  O11      1.0000 0.03859  0.46310  0.29910  Biso   1.000  O
  O12      1.0000 0.06850  0.30430  0.30880  Biso   1.000  O
  N1       1.0000 0.22410  0.39360  0.68520  Biso   1.000  N
  N2       1.0000 0.14480  0.21260  0.54950  Biso   1.000  N
  N3       1.0000 0.10030  0.06260  0.45510  Biso   1.000  N
  N4       1.0000 0.03330  0.84180  0.31700  Biso   1.000  N
  N5       1.0000 0.24070  0.98530  0.18440  Biso   1.000  N
  N6       1.0000 0.24920  0.81430  0.04690  Biso   1.000  N
  N7       1.0000 0.99550  0.05530  0.04550  Biso   1.000  N
  N8       1.0000 0.99830  0.26110  0.18310  Biso   1.000  N
  C1       1.0000 0.21110  0.29960  0.69660  Biso   1.000  C
  H1       1.0000 0.22100  0.27290  0.73730  Biso   1.000  H
  C2       1.0000 0.18440  0.23890  0.65360  Biso   1.000  C
  H2       1.0000 0.17610  0.17380  0.66480  Biso   1.000  H
  C3       1.0000 0.16980  0.27450  0.59370  Biso   1.000  C
  C4       1.0000 0.18250  0.37540  0.58160  Biso   1.000  C
  H3       1.0000 0.17230  0.40720  0.54190  Biso   1.000  H
  C5       1.0000 0.20940  0.42730  0.62700  Biso   1.000  C
  H4       1.0000 0.21850  0.49170  0.61690  Biso   1.000  H
  C6       1.0000 0.12610  0.25560  0.48660  Biso   1.000  C
  H5       1.0000 0.13940  0.31300  0.47920  Biso   1.000  H
  H6       1.0000 0.10610  0.29540  0.48050  Biso   1.000  H
  C7       1.0000 0.12790  0.11970  0.56130  Biso   1.000  C
  H7       1.0000 0.10820  0.15250  0.56040  Biso   1.000  H
  H8       1.0000 0.14230  0.08860  0.60250  Biso   1.000  H
  C8       1.0000 0.11790  0.02370  0.51780  Biso   1.000  C
  H9       1.0000 0.13760  0.98030  0.52470  Biso   1.000  H
  H10      1.0000 0.10400  0.96930  0.52500  Biso   1.000  H
  C9       1.0000 0.11690  0.15760  0.44250  Biso   1.000  C
  H11      1.0000 0.10240  0.18750  0.40110  Biso   1.000  H
  H12      1.0000 0.13690  0.12640  0.44410  Biso   1.000  H
  C10      1.0000 0.07950  0.99100  0.41020  Biso   1.000  C
  C11      1.0000 0.06500  0.89270  0.42170  Biso   1.000  C
  H13      1.0000 0.07130  0.87360  0.46230  Biso   1.000  H
  C12      1.0000 0.04220  0.82420  0.37540  Biso   1.000  C
  H14      1.0000 0.03240  0.76180  0.38530  Biso   1.000  H
  C13      1.0000 0.04740  0.93420  0.30580  Biso   1.000  C
  H15      1.0000 0.04160  0.94920  0.26490  Biso   1.000  H
  C14      1.0000 0.06940  0.00730  0.34940  Biso   1.000  C
  H16      1.0000 0.07790  0.07090  0.33780  Biso   1.000  H
  C15      1.0000 0.02990  0.69780  0.18320  Biso   1.000  C
  C16      1.0000 0.03730  0.62540  0.14100  Biso   1.000  C
  C17      1.0000 0.02420  0.51490  0.12210  Biso   1.000  C
  H17      1.0000 0.01110  0.48230  0.13710  Biso   1.000  H
  C18      1.0000 0.02970  0.45050  0.08160  Biso   1.000  C
  H18      1.0000 0.02000  0.37600  0.06760  Biso   1.000  H
  C19      1.0000 0.04970  0.49920  0.06270  Biso   1.000  C
  C20      1.0000 0.06380  0.60780  0.08120  Biso   1.000  C
  H19      1.0000 0.07780  0.63790  0.06770  Biso   1.000  H
  C21      1.0000 0.05700  0.67350  0.12050  Biso   1.000  C
  H20      1.0000 0.06570  0.74980  0.13270  Biso   1.000  H
  C22      1.0000 0.09350  0.34030  0.06100  Biso   1.000  C
  C23      1.0000 0.09020  0.23490  0.08430  Biso   1.000  C
  H21      1.0000 0.06920  0.20710  0.07440  Biso   1.000  H
  C24      1.0000 0.11780  0.17060  0.12200  Biso   1.000  C
  H22      1.0000 0.11590  0.09650  0.13670  Biso   1.000  H
  C25      1.0000 0.14810  0.21550  0.13780  Biso   1.000  C
  C26      1.0000 0.15100  0.32200  0.11590  Biso   1.000  C
  H23      1.0000 0.17210  0.35220  0.12780  Biso   1.000  H
  C27      1.0000 0.12320  0.38640  0.07640  Biso   1.000  C
  H24      1.0000 0.12510  0.45960  0.06080  Biso   1.000  H
  C28      1.0000 0.17770  0.14420  0.17790  Biso   1.000  C
  C29      1.0000 0.25920  0.89090  0.19540  Biso   1.000  C
  H25      1.0000 0.27120  0.86350  0.23600  Biso   1.000  H
  C30      1.0000 0.26190  0.83120  0.15190  Biso   1.000  C
  H26      1.0000 0.27500  0.76270  0.16260  Biso   1.000  H
  C31      1.0000 0.24590  0.86870  0.09190  Biso   1.000  C
  C32      1.0000 0.22780  0.97360  0.08100  Biso   1.000  C
  H27      1.0000 0.21730  0.00770  0.04180  Biso   1.000  H
  C33      1.0000 0.22540  0.02510  0.12680  Biso   1.000  C
  H28      1.0000 0.21230  0.09320  0.11770  Biso   1.000  H
  C34      1.0000 0.23010  0.85060  0.98480  Biso   1.000  C
  H29      1.0000 0.22910  0.93690  0.98320  Biso   1.000  H
  H30      1.0000 0.20760  0.82070  0.96800  Biso   1.000  H
  C35      1.0000 0.25670  0.69020  0.05200  Biso   1.000  C
  H31      1.0000 0.27250  0.67230  0.09490  Biso   1.000  H
  H32      1.0000 0.23640  0.64610  0.04090  Biso   1.000  H
  C36      1.0000 0.21550  0.95350  0.32160  Biso   1.000  C
  C37      1.0000 0.20760  0.88030  0.36230  Biso   1.000  C
  C38      1.0000 0.18670  0.92770  0.38020  Biso   1.000  C
  H33      1.0000 0.17700  0.00210  0.36580  Biso   1.000  H
  C39      1.0000 0.18020  0.86460  0.41970  Biso   1.000  C
  H34      1.0000 0.16570  0.89490  0.43210  Biso   1.000  H
  C40      1.0000 0.19510  0.75610  0.44120  Biso   1.000  C
  C41      1.0000 0.21560  0.71080  0.42340  Biso   1.000  C
  H35      1.0000 0.22580  0.63760  0.43880  Biso   1.000  H
  C42      1.0000 0.22170  0.77180  0.38250  Biso   1.000  C
  H36      1.0000 0.23530  0.73900  0.36880  Biso   1.000  H
  C43      1.0000 0.15030  0.59970  0.44130  Biso   1.000  C
  C44      1.0000 0.12050  0.64450  0.42560  Biso   1.000  C
  H37      1.0000 0.11870  0.71690  0.44190  Biso   1.000  H
  C45      1.0000 0.09280  0.58370  0.38560  Biso   1.000  C
  H38      1.0000 0.07190  0.61490  0.37440  Biso   1.000  H
  C46      1.0000 0.09510  0.47870  0.36190  Biso   1.000  C
  C47      1.0000 0.12620  0.43470  0.37880  Biso   1.000  C
  H39      1.0000 0.12800  0.36220  0.36260  Biso   1.000  H
  C48      1.0000 0.15360  0.49300  0.41760  Biso   1.000  C
  H40      1.0000 0.17460  0.46270  0.42860  Biso   1.000  H
  C49      1.0000 0.06560  0.40800  0.32020  Biso   1.000  C
  C50      1.0000 0.01740  0.16920  0.19530  Biso   1.000  C
  H41      1.0000 0.03260  0.15250  0.23650  Biso   1.000  H
  C51      1.0000 0.01670  0.09620  0.15170  Biso   1.000  C
  H42      1.0000 0.03060  0.03010  0.16390  Biso   1.000  H
  C52      1.0000 0.99580  0.11690  0.09010  Biso   1.000  C
  C53      1.0000 0.97540  0.21520  0.07820  Biso   1.000  C
  H43      1.0000 0.96000  0.23480  0.03750  Biso   1.000  H
  C54      1.0000 0.97740  0.28350  0.12500  Biso   1.000  C
  H44      1.0000 0.96330  0.34880  0.11510  Biso   1.000  H
  C55      1.0000 0.01150  0.93830  0.05670  Biso   1.000  C
  H45      1.0000 0.02840  0.93110  0.09990  Biso   1.000  H
  H46      1.0000 0.99510  0.87620  0.04710  Biso   1.000  H
  C56      1.0000 0.97330  0.07580  0.98140  Biso   1.000  C
  H47      1.0000 0.96450  0.15600  0.97620  Biso   1.000  H
  H48      1.0000 0.95470  0.02100  0.96720  Biso   1.000  H
  Zn2      1.0000 0.73134  0.54570  0.24984  Biso   1.000  Zn
  S3       1.0000 0.55801  0.91890  0.01218  Biso   1.000  S
  S4       1.0000 0.68607  0.17850  0.49064  Biso   1.000  S
  O13      1.0000 0.51357  0.14530  0.20310  Biso   1.000  O
  O14      1.0000 0.53780  0.30020  0.19020  Biso   1.000  O
  O15      1.0000 0.56640  0.00050  0.97940  Biso   1.000  O
  O16      1.0000 0.53230  0.83390  0.98040  Biso   1.000  O
  O17      1.0000 0.67427  0.53590  0.18150  Biso   1.000  O
  O18      1.0000 0.70490  0.69380  0.20590  Biso   1.000  O
  O19      1.0000 0.70970  0.55910  0.31720  Biso   1.000  O
  O20      1.0000 0.72822  0.40160  0.29420  Biso   1.000  O
  O21      1.0000 0.71150  0.09290  0.52230  Biso   1.000  O
  O22      1.0000 0.67810  0.26060  0.52380  Biso   1.000  O
  O23      1.0000 0.53859  0.96310  0.29910  Biso   1.000  O
  O24      1.0000 0.56850  0.80430  0.30880  Biso   1.000  O
  N9       1.0000 0.72410  0.89360  0.68520  Biso   1.000  N
  N10      1.0000 0.64480  0.71260  0.54950  Biso   1.000  N
  N11      1.0000 0.60030  0.56260  0.45510  Biso   1.000  N
  N12      1.0000 0.53330  0.34180  0.31700  Biso   1.000  N
  N13      1.0000 0.74070  0.48530  0.18440  Biso   1.000  N
  N14      1.0000 0.74920  0.31430  0.04690  Biso   1.000  N
  N15      1.0000 0.49550  0.55530  0.04550  Biso   1.000  N
  N16      1.0000 0.49830  0.76110  0.18310  Biso   1.000  N
  C57      1.0000 0.71110  0.79960  0.69660  Biso   1.000  C
  H49      1.0000 0.72100  0.77290  0.73730  Biso   1.000  H
  C58      1.0000 0.68440  0.73890  0.65360  Biso   1.000  C
  H50      1.0000 0.67610  0.67380  0.66480  Biso   1.000  H
  C59      1.0000 0.66980  0.77450  0.59370  Biso   1.000  C
  C60      1.0000 0.68250  0.87540  0.58160  Biso   1.000  C
  H51      1.0000 0.67230  0.90720  0.54190  Biso   1.000  H
  C61      1.0000 0.70940  0.92730  0.62700  Biso   1.000  C
  H52      1.0000 0.71850  0.99170  0.61690  Biso   1.000  H
  C62      1.0000 0.62610  0.75560  0.48660  Biso   1.000  C
  H53      1.0000 0.63940  0.81300  0.47920  Biso   1.000  H
  H54      1.0000 0.60610  0.79540  0.48050  Biso   1.000  H
  C63      1.0000 0.62790  0.61970  0.56130  Biso   1.000  C
  H55      1.0000 0.60820  0.65250  0.56040  Biso   1.000  H
  H56      1.0000 0.64230  0.58860  0.60250  Biso   1.000  H
  C64      1.0000 0.61790  0.52370  0.51780  Biso   1.000  C
  H57      1.0000 0.63760  0.48030  0.52470  Biso   1.000  H
  H58      1.0000 0.60400  0.46930  0.52500  Biso   1.000  H
  C65      1.0000 0.61690  0.65760  0.44250  Biso   1.000  C
  H59      1.0000 0.60240  0.68750  0.40110  Biso   1.000  H
  H60      1.0000 0.63690  0.62640  0.44410  Biso   1.000  H
  C66      1.0000 0.57950  0.49100  0.41020  Biso   1.000  C
  C67      1.0000 0.56500  0.39270  0.42170  Biso   1.000  C
  H61      1.0000 0.57130  0.37360  0.46230  Biso   1.000  H
  C68      1.0000 0.54220  0.32420  0.37540  Biso   1.000  C
  H62      1.0000 0.53240  0.26180  0.38530  Biso   1.000  H
  C69      1.0000 0.54740  0.43420  0.30580  Biso   1.000  C
  H63      1.0000 0.54160  0.44920  0.26490  Biso   1.000  H
  C70      1.0000 0.56940  0.50730  0.34940  Biso   1.000  C
  H64      1.0000 0.57790  0.57090  0.33780  Biso   1.000  H
  C71      1.0000 0.52990  0.19780  0.18320  Biso   1.000  C
  C72      1.0000 0.53730  0.12540  0.14100  Biso   1.000  C
  C73      1.0000 0.52420  0.01490  0.12210  Biso   1.000  C
  H65      1.0000 0.51110  0.98230  0.13710  Biso   1.000  H
  C74      1.0000 0.52970  0.95050  0.08160  Biso   1.000  C
  H66      1.0000 0.52000  0.87600  0.06760  Biso   1.000  H
  C75      1.0000 0.54970  0.99920  0.06270  Biso   1.000  C
  C76      1.0000 0.56380  0.10780  0.08120  Biso   1.000  C
  H67      1.0000 0.57780  0.13790  0.06770  Biso   1.000  H
  C77      1.0000 0.55700  0.17350  0.12050  Biso   1.000  C
  H68      1.0000 0.56570  0.24980  0.13270  Biso   1.000  H
  C78      1.0000 0.59350  0.84030  0.06100  Biso   1.000  C
  C79      1.0000 0.59020  0.73490  0.08430  Biso   1.000  C
  H69      1.0000 0.56920  0.70710  0.07440  Biso   1.000  H
  C80      1.0000 0.61780  0.67060  0.12200  Biso   1.000  C
  H70      1.0000 0.61590  0.59650  0.13670  Biso   1.000  H
  C81      1.0000 0.64810  0.71550  0.13780  Biso   1.000  C
  C82      1.0000 0.65100  0.82200  0.11590  Biso   1.000  C
  H71      1.0000 0.67210  0.85220  0.12780  Biso   1.000  H
  C83      1.0000 0.62320  0.88640  0.07640  Biso   1.000  C
  H72      1.0000 0.62510  0.95960  0.06080  Biso   1.000  H
  C84      1.0000 0.67770  0.64420  0.17790  Biso   1.000  C
  C85      1.0000 0.75920  0.39090  0.19540  Biso   1.000  C
  H73      1.0000 0.77120  0.36350  0.23600  Biso   1.000  H
  C86      1.0000 0.76190  0.33120  0.15190  Biso   1.000  C
  H74      1.0000 0.77500  0.26270  0.16260  Biso   1.000  H
  C87      1.0000 0.74590  0.36870  0.09190  Biso   1.000  C
  C88      1.0000 0.72780  0.47360  0.08100  Biso   1.000  C
  H75      1.0000 0.71730  0.50770  0.04180  Biso   1.000  H
  C89      1.0000 0.72540  0.52510  0.12680  Biso   1.000  C
  H76      1.0000 0.71230  0.59320  0.11770  Biso   1.000  H
  C90      1.0000 0.73010  0.35060  0.98480  Biso   1.000  C
  H77      1.0000 0.72910  0.43690  0.98320  Biso   1.000  H
  H78      1.0000 0.70760  0.32070  0.96800  Biso   1.000  H
  C91      1.0000 0.75670  0.19020  0.05200  Biso   1.000  C
  H79      1.0000 0.77250  0.17230  0.09490  Biso   1.000  H
  H80      1.0000 0.73640  0.14610  0.04090  Biso   1.000  H
  C92      1.0000 0.71550  0.45350  0.32160  Biso   1.000  C
  C93      1.0000 0.70760  0.38030  0.36230  Biso   1.000  C
  C94      1.0000 0.68670  0.42770  0.38020  Biso   1.000  C
  H81      1.0000 0.67700  0.50210  0.36580  Biso   1.000  H
  C95      1.0000 0.68020  0.36460  0.41970  Biso   1.000  C
  H82      1.0000 0.66570  0.39490  0.43210  Biso   1.000  H
  C96      1.0000 0.69510  0.25610  0.44120  Biso   1.000  C
  C97      1.0000 0.71560  0.21080  0.42340  Biso   1.000  C
  H83      1.0000 0.72580  0.13760  0.43880  Biso   1.000  H
  C98      1.0000 0.72170  0.27180  0.38250  Biso   1.000  C
  H84      1.0000 0.73530  0.23900  0.36880  Biso   1.000  H
  C99      1.0000 0.65030  0.09970  0.44130  Biso   1.000  C
  C100     1.0000 0.62050  0.14450  0.42560  Biso   1.000  C
  H85      1.0000 0.61870  0.21690  0.44190  Biso   1.000  H
  C101     1.0000 0.59280  0.08370  0.38560  Biso   1.000  C
  H86      1.0000 0.57190  0.11490  0.37440  Biso   1.000  H
  C102     1.0000 0.59510  0.97870  0.36190  Biso   1.000  C
  C103     1.0000 0.62620  0.93470  0.37880  Biso   1.000  C
  H87      1.0000 0.62800  0.86220  0.36260  Biso   1.000  H
  C104     1.0000 0.65360  0.99300  0.41760  Biso   1.000  C
  H88      1.0000 0.67460  0.96270  0.42860  Biso   1.000  H
  C105     1.0000 0.56560  0.90800  0.32020  Biso   1.000  C
  C106     1.0000 0.51740  0.66920  0.19530  Biso   1.000  C
  H89      1.0000 0.53260  0.65250  0.23650  Biso   1.000  H
  C107     1.0000 0.51670  0.59620  0.15170  Biso   1.000  C
  H90      1.0000 0.53060  0.53010  0.16390  Biso   1.000  H
  C108     1.0000 0.49580  0.61690  0.09010  Biso   1.000  C
  C109     1.0000 0.47540  0.71520  0.07820  Biso   1.000  C
  H91      1.0000 0.46000  0.73480  0.03750  Biso   1.000  H
  C110     1.0000 0.47740  0.78350  0.12500  Biso   1.000  C
  H92      1.0000 0.46330  0.84880  0.11510  Biso   1.000  H
  C111     1.0000 0.51150  0.43830  0.05670  Biso   1.000  C
  H93      1.0000 0.52840  0.43110  0.09990  Biso   1.000  H
  H94      1.0000 0.49510  0.37620  0.04710  Biso   1.000  H
  C112     1.0000 0.47330  0.57580  0.98140  Biso   1.000  C
  H95      1.0000 0.46450  0.65600  0.97620  Biso   1.000  H
  H96      1.0000 0.45470  0.52100  0.96720  Biso   1.000  H
  Zn3      1.0000 0.76866  0.04570  0.25016  Biso   1.000  Zn
  S5       1.0000 0.94199  0.41890  0.48782  Biso   1.000  S
  S6       1.0000 0.81393  0.67850  0.00936  Biso   1.000  S
  O25      1.0000 0.98643  0.64530  0.29690  Biso   1.000  O
  O26      1.0000 0.96220  0.80020  0.30980  Biso   1.000  O
  O27      1.0000 0.93360  0.50050  0.52060  Biso   1.000  O
  O28      1.0000 0.96770  0.33390  0.51960  Biso   1.000  O
  O29      1.0000 0.82573  0.03590  0.31850  Biso   1.000  O
  O30      1.0000 0.79510  0.19380  0.29410  Biso   1.000  O
  O31      1.0000 0.79030  0.05910  0.18280  Biso   1.000  O
  O32      1.0000 0.77178  0.90160  0.20580  Biso   1.000  O
  O33      1.0000 0.78850  0.59290  0.97770  Biso   1.000  O
  O34      1.0000 0.82190  0.76060  0.97620  Biso   1.000  O
  O35      1.0000 0.96141  0.46310  0.20090  Biso   1.000  O
  O36      1.0000 0.93150  0.30430  0.19120  Biso   1.000  O
  N17      1.0000 0.77590  0.39360  0.81480  Biso   1.000  N
  N18      1.0000 0.85520  0.21260  0.95050  Biso   1.000  N
  N19      1.0000 0.89970  0.06260  0.04490  Biso   1.000  N
  N20      1.0000 0.96670  0.84180  0.18300  Biso   1.000  N
  N21      1.0000 0.75930  0.98530  0.31560  Biso   1.000  N
  N22      1.0000 0.75080  0.81430  0.45310  Biso   1.000  N
  N23      1.0000 0.00450  0.05530  0.45450  Biso   1.000  N
  N24      1.0000 0.00170  0.26110  0.31690  Biso   1.000  N
  C113     1.0000 0.78890  0.29960  0.80340  Biso   1.000  C
  H97      1.0000 0.77900  0.27290  0.76270  Biso   1.000  H
  C114     1.0000 0.81560  0.23890  0.84640  Biso   1.000  C
  H98      1.0000 0.82390  0.17380  0.83520  Biso   1.000  H
  C115     1.0000 0.83020  0.27450  0.90630  Biso   1.000  C
  C116     1.0000 0.81750  0.37540  0.91840  Biso   1.000  C
  H99      1.0000 0.82770  0.40720  0.95810  Biso   1.000  H
  C117     1.0000 0.79060  0.42730  0.87300  Biso   1.000  C
  H100     1.0000 0.78150  0.49170  0.88310  Biso   1.000  H
  C118     1.0000 0.87390  0.25560  0.01340  Biso   1.000  C
  H101     1.0000 0.86060  0.31300  0.02080  Biso   1.000  H
  H102     1.0000 0.89390  0.29540  0.01950  Biso   1.000  H
  C119     1.0000 0.87210  0.11970  0.93870  Biso   1.000  C
  H103     1.0000 0.89180  0.15250  0.93960  Biso   1.000  H
  H104     1.0000 0.85770  0.08860  0.89750  Biso   1.000  H
  C120     1.0000 0.88210  0.02370  0.98220  Biso   1.000  C
  H105     1.0000 0.86240  0.98030  0.97530  Biso   1.000  H
  H106     1.0000 0.89600  0.96930  0.97500  Biso   1.000  H
  C121     1.0000 0.88310  0.15760  0.05750  Biso   1.000  C
  H107     1.0000 0.89760  0.18750  0.09890  Biso   1.000  H
  H108     1.0000 0.86310  0.12640  0.05590  Biso   1.000  H
  C122     1.0000 0.92050  0.99100  0.08980  Biso   1.000  C
  C123     1.0000 0.93500  0.89270  0.07830  Biso   1.000  C
  H109     1.0000 0.92870  0.87360  0.03770  Biso   1.000  H
  C124     1.0000 0.95780  0.82420  0.12460  Biso   1.000  C
  H110     1.0000 0.96760  0.76180  0.11470  Biso   1.000  H
  C125     1.0000 0.95260  0.93420  0.19420  Biso   1.000  C
  H111     1.0000 0.95840  0.94920  0.23510  Biso   1.000  H
  C126     1.0000 0.93060  0.00730  0.15060  Biso   1.000  C
  H112     1.0000 0.92210  0.07090  0.16220  Biso   1.000  H
  C127     1.0000 0.97010  0.69780  0.31680  Biso   1.000  C
  C128     1.0000 0.96270  0.62540  0.35900  Biso   1.000  C
  C129     1.0000 0.97580  0.51490  0.37790  Biso   1.000  C
  H113     1.0000 0.98890  0.48230  0.36290  Biso   1.000  H
  C130     1.0000 0.97030  0.45050  0.41840  Biso   1.000  C
  H114     1.0000 0.98000  0.37600  0.43240  Biso   1.000  H
  C131     1.0000 0.95030  0.49920  0.43730  Biso   1.000  C
  C132     1.0000 0.93620  0.60780  0.41880  Biso   1.000  C
  H115     1.0000 0.92220  0.63790  0.43230  Biso   1.000  H
  C133     1.0000 0.94300  0.67350  0.37950  Biso   1.000  C
  H116     1.0000 0.93430  0.74980  0.36730  Biso   1.000  H
  C134     1.0000 0.90650  0.34030  0.43900  Biso   1.000  C
  C135     1.0000 0.90980  0.23490  0.41570  Biso   1.000  C
  H117     1.0000 0.93080  0.20710  0.42560  Biso   1.000  H
  C136     1.0000 0.88220  0.17060  0.37800  Biso   1.000  C
  H118     1.0000 0.88410  0.09650  0.36330  Biso   1.000  H
  C137     1.0000 0.85190  0.21550  0.36220  Biso   1.000  C
  C138     1.0000 0.84900  0.32200  0.38410  Biso   1.000  C
  H119     1.0000 0.82790  0.35220  0.37220  Biso   1.000  H
  C139     1.0000 0.87680  0.38640  0.42360  Biso   1.000  C
  H120     1.0000 0.87490  0.45960  0.43920  Biso   1.000  H
  C140     1.0000 0.82230  0.14420  0.32210  Biso   1.000  C
  C141     1.0000 0.74080  0.89090  0.30460  Biso   1.000  C
  H121     1.0000 0.72880  0.86350  0.26400  Biso   1.000  H
  C142     1.0000 0.73810  0.83120  0.34810  Biso   1.000  C
  H122     1.0000 0.72500  0.76270  0.33740  Biso   1.000  H
  C143     1.0000 0.75410  0.86870  0.40810  Biso   1.000  C
  C144     1.0000 0.77220  0.97360  0.41900  Biso   1.000  C
  H123     1.0000 0.78270  0.00770  0.45820  Biso   1.000  H
  C145     1.0000 0.77460  0.02510  0.37320  Biso   1.000  C
  H124     1.0000 0.78770  0.09320  0.38230  Biso   1.000  H
  C146     1.0000 0.76990  0.85060  0.51520  Biso   1.000  C
  H125     1.0000 0.77090  0.93690  0.51680  Biso   1.000  H
  H126     1.0000 0.79240  0.82070  0.53200  Biso   1.000  H
  C147     1.0000 0.74330  0.69020  0.44800  Biso   1.000  C
  H127     1.0000 0.72750  0.67230  0.40510  Biso   1.000  H
  H128     1.0000 0.76360  0.64610  0.45910  Biso   1.000  H
  C148     1.0000 0.78450  0.95350  0.17840  Biso   1.000  C
  C149     1.0000 0.79240  0.88030  0.13770  Biso   1.000  C
  C150     1.0000 0.81330  0.92770  0.11980  Biso   1.000  C
  H129     1.0000 0.82300  0.00210  0.13420  Biso   1.000  H
  C151     1.0000 0.81980  0.86460  0.08030  Biso   1.000  C
  H130     1.0000 0.83430  0.89490  0.06790  Biso   1.000  H
  C152     1.0000 0.80490  0.75610  0.05880  Biso   1.000  C
  C153     1.0000 0.78440  0.71080  0.07660  Biso   1.000  C
  H131     1.0000 0.77420  0.63760  0.06120  Biso   1.000  H
  C154     1.0000 0.77830  0.77180  0.11750  Biso   1.000  C
  H132     1.0000 0.76470  0.73900  0.13120  Biso   1.000  H
  C155     1.0000 0.84970  0.59970  0.05870  Biso   1.000  C
  C156     1.0000 0.87950  0.64450  0.07440  Biso   1.000  C
  H133     1.0000 0.88130  0.71690  0.05810  Biso   1.000  H
  C157     1.0000 0.90720  0.58370  0.11440  Biso   1.000  C
  H134     1.0000 0.92810  0.61490  0.12560  Biso   1.000  H
  C158     1.0000 0.90490  0.47870  0.13810  Biso   1.000  C
  C159     1.0000 0.87380  0.43470  0.12120  Biso   1.000  C
  H135     1.0000 0.87200  0.36220  0.13740  Biso   1.000  H
  C160     1.0000 0.84640  0.49300  0.08240  Biso   1.000  C
  H136     1.0000 0.82540  0.46270  0.07140  Biso   1.000  H
  C161     1.0000 0.93440  0.40800  0.17980  Biso   1.000  C
  C162     1.0000 0.98260  0.16920  0.30470  Biso   1.000  C
  H137     1.0000 0.96740  0.15250  0.26350  Biso   1.000  H
  C163     1.0000 0.98330  0.09620  0.34830  Biso   1.000  C
  H138     1.0000 0.96940  0.03010  0.33610  Biso   1.000  H
  C164     1.0000 0.00420  0.11690  0.40990  Biso   1.000  C
  C165     1.0000 0.02460  0.21520  0.42180  Biso   1.000  C
  H139     1.0000 0.04000  0.23480  0.46250  Biso   1.000  H
  C166     1.0000 0.02260  0.28350  0.37500  Biso   1.000  C
  H140     1.0000 0.03670  0.34880  0.38490  Biso   1.000  H
  C167     1.0000 0.98850  0.93830  0.44330  Biso   1.000  C
  H141     1.0000 0.97160  0.93110  0.40010  Biso   1.000  H
  H142     1.0000 0.00490  0.87620  0.45290  Biso   1.000  H
  C168     1.0000 0.02670  0.07580  0.51860  Biso   1.000  C
  H143     1.0000 0.03550  0.15600  0.52380  Biso   1.000  H
  H144     1.0000 0.04530  0.02100  0.53280  Biso   1.000  H
  Zn4      1.0000 0.26866  0.54570  0.25016  Biso   1.000  Zn
  S7       1.0000 0.44199  0.91890  0.48782  Biso   1.000  S
  S8       1.0000 0.31393  0.17850  0.00936  Biso   1.000  S
  O37      1.0000 0.48643  0.14530  0.29690  Biso   1.000  O
  O38      1.0000 0.46220  0.30020  0.30980  Biso   1.000  O
  O39      1.0000 0.43360  0.00050  0.52060  Biso   1.000  O
  O40      1.0000 0.46770  0.83390  0.51960  Biso   1.000  O
  O41      1.0000 0.32573  0.53590  0.31850  Biso   1.000  O
  O42      1.0000 0.29510  0.69380  0.29410  Biso   1.000  O
  O43      1.0000 0.29030  0.55910  0.18280  Biso   1.000  O
  O44      1.0000 0.27178  0.40160  0.20580  Biso   1.000  O
  O45      1.0000 0.28850  0.09290  0.97770  Biso   1.000  O
  O46      1.0000 0.32190  0.26060  0.97620  Biso   1.000  O
  O47      1.0000 0.46141  0.96310  0.20090  Biso   1.000  O
  O48      1.0000 0.43150  0.80430  0.19120  Biso   1.000  O
  N25      1.0000 0.27590  0.89360  0.81480  Biso   1.000  N
  N26      1.0000 0.35520  0.71260  0.95050  Biso   1.000  N
  N27      1.0000 0.39970  0.56260  0.04490  Biso   1.000  N
  N28      1.0000 0.46670  0.34180  0.18300  Biso   1.000  N
  N29      1.0000 0.25930  0.48530  0.31560  Biso   1.000  N
  N30      1.0000 0.25080  0.31430  0.45310  Biso   1.000  N
  N31      1.0000 0.50450  0.55530  0.45450  Biso   1.000  N
  N32      1.0000 0.50170  0.76110  0.31690  Biso   1.000  N
  C169     1.0000 0.28890  0.79960  0.80340  Biso   1.000  C
  H145     1.0000 0.27900  0.77290  0.76270  Biso   1.000  H
  C170     1.0000 0.31560  0.73890  0.84640  Biso   1.000  C
  H146     1.0000 0.32390  0.67380  0.83520  Biso   1.000  H
  C171     1.0000 0.33020  0.77450  0.90630  Biso   1.000  C
  C172     1.0000 0.31750  0.87540  0.91840  Biso   1.000  C
  H147     1.0000 0.32770  0.90720  0.95810  Biso   1.000  H
  C173     1.0000 0.29060  0.92730  0.87300  Biso   1.000  C
  H148     1.0000 0.28150  0.99170  0.88310  Biso   1.000  H
  C174     1.0000 0.37390  0.75560  0.01340  Biso   1.000  C
  H149     1.0000 0.36060  0.81300  0.02080  Biso   1.000  H
  H150     1.0000 0.39390  0.79540  0.01950  Biso   1.000  H
  C175     1.0000 0.37210  0.61970  0.93870  Biso   1.000  C
  H151     1.0000 0.39180  0.65250  0.93960  Biso   1.000  H
  H152     1.0000 0.35770  0.58860  0.89750  Biso   1.000  H
  C176     1.0000 0.38210  0.52370  0.98220  Biso   1.000  C
  H153     1.0000 0.36240  0.48030  0.97530  Biso   1.000  H
  H154     1.0000 0.39600  0.46930  0.97500  Biso   1.000  H
  C177     1.0000 0.38310  0.65760  0.05750  Biso   1.000  C
  H155     1.0000 0.39760  0.68750  0.09890  Biso   1.000  H
  H156     1.0000 0.36310  0.62640  0.05590  Biso   1.000  H
  C178     1.0000 0.42050  0.49100  0.08980  Biso   1.000  C
  C179     1.0000 0.43500  0.39270  0.07830  Biso   1.000  C
  H157     1.0000 0.42870  0.37360  0.03770  Biso   1.000  H
  C180     1.0000 0.45780  0.32420  0.12460  Biso   1.000  C
  H158     1.0000 0.46760  0.26180  0.11470  Biso   1.000  H
  C181     1.0000 0.45260  0.43420  0.19420  Biso   1.000  C
  H159     1.0000 0.45840  0.44920  0.23510  Biso   1.000  H
  C182     1.0000 0.43060  0.50730  0.15060  Biso   1.000  C
  H160     1.0000 0.42210  0.57090  0.16220  Biso   1.000  H
  C183     1.0000 0.47010  0.19780  0.31680  Biso   1.000  C
  C184     1.0000 0.46270  0.12540  0.35900  Biso   1.000  C
  C185     1.0000 0.47580  0.01490  0.37790  Biso   1.000  C
  H161     1.0000 0.48890  0.98230  0.36290  Biso   1.000  H
  C186     1.0000 0.47030  0.95050  0.41840  Biso   1.000  C
  H162     1.0000 0.48000  0.87600  0.43240  Biso   1.000  H
  C187     1.0000 0.45030  0.99920  0.43730  Biso   1.000  C
  C188     1.0000 0.43620  0.10780  0.41880  Biso   1.000  C
  H163     1.0000 0.42220  0.13790  0.43230  Biso   1.000  H
  C189     1.0000 0.44300  0.17350  0.37950  Biso   1.000  C
  H164     1.0000 0.43430  0.24980  0.36730  Biso   1.000  H
  C190     1.0000 0.40650  0.84030  0.43900  Biso   1.000  C
  C191     1.0000 0.40980  0.73490  0.41570  Biso   1.000  C
  H165     1.0000 0.43080  0.70710  0.42560  Biso   1.000  H
  C192     1.0000 0.38220  0.67060  0.37800  Biso   1.000  C
  H166     1.0000 0.38410  0.59650  0.36330  Biso   1.000  H
  C193     1.0000 0.35190  0.71550  0.36220  Biso   1.000  C
  C194     1.0000 0.34900  0.82200  0.38410  Biso   1.000  C
  H167     1.0000 0.32790  0.85220  0.37220  Biso   1.000  H
  C195     1.0000 0.37680  0.88640  0.42360  Biso   1.000  C
  H168     1.0000 0.37490  0.95960  0.43920  Biso   1.000  H
  C196     1.0000 0.32230  0.64420  0.32210  Biso   1.000  C
  C197     1.0000 0.24080  0.39090  0.30460  Biso   1.000  C
  H169     1.0000 0.22880  0.36350  0.26400  Biso   1.000  H
  C198     1.0000 0.23810  0.33120  0.34810  Biso   1.000  C
  H170     1.0000 0.22500  0.26270  0.33740  Biso   1.000  H
  C199     1.0000 0.25410  0.36870  0.40810  Biso   1.000  C
  C200     1.0000 0.27220  0.47360  0.41900  Biso   1.000  C
  H171     1.0000 0.28270  0.50770  0.45820  Biso   1.000  H
  C201     1.0000 0.27460  0.52510  0.37320  Biso   1.000  C
  H172     1.0000 0.28770  0.59320  0.38230  Biso   1.000  H
  C202     1.0000 0.26990  0.35060  0.51520  Biso   1.000  C
  H173     1.0000 0.27090  0.43690  0.51680  Biso   1.000  H
  H174     1.0000 0.29240  0.32070  0.53200  Biso   1.000  H
  C203     1.0000 0.24330  0.19020  0.44800  Biso   1.000  C
  H175     1.0000 0.22750  0.17230  0.40510  Biso   1.000  H
  H176     1.0000 0.26360  0.14610  0.45910  Biso   1.000  H
  C204     1.0000 0.28450  0.45350  0.17840  Biso   1.000  C
  C205     1.0000 0.29240  0.38030  0.13770  Biso   1.000  C
  C206     1.0000 0.31330  0.42770  0.11980  Biso   1.000  C
  H177     1.0000 0.32300  0.50210  0.13420  Biso   1.000  H
  C207     1.0000 0.31980  0.36460  0.08030  Biso   1.000  C
  H178     1.0000 0.33430  0.39490  0.06790  Biso   1.000  H
  C208     1.0000 0.30490  0.25610  0.05880  Biso   1.000  C
  C209     1.0000 0.28440  0.21080  0.07660  Biso   1.000  C
  H179     1.0000 0.27420  0.13760  0.06120  Biso   1.000  H
  C210     1.0000 0.27830  0.27180  0.11750  Biso   1.000  C
  H180     1.0000 0.26470  0.23900  0.13120  Biso   1.000  H
  C211     1.0000 0.34970  0.09970  0.05870  Biso   1.000  C
  C212     1.0000 0.37950  0.14450  0.07440  Biso   1.000  C
  H181     1.0000 0.38130  0.21690  0.05810  Biso   1.000  H
  C213     1.0000 0.40720  0.08370  0.11440  Biso   1.000  C
  H182     1.0000 0.42810  0.11490  0.12560  Biso   1.000  H
  C214     1.0000 0.40490  0.97870  0.13810  Biso   1.000  C
  C215     1.0000 0.37380  0.93470  0.12120  Biso   1.000  C
  H183     1.0000 0.37200  0.86220  0.13740  Biso   1.000  H
  C216     1.0000 0.34640  0.99300  0.08240  Biso   1.000  C
  H184     1.0000 0.32540  0.96270  0.07140  Biso   1.000  H
  C217     1.0000 0.43440  0.90800  0.17980  Biso   1.000  C
  C218     1.0000 0.48260  0.66920  0.30470  Biso   1.000  C
  H185     1.0000 0.46740  0.65250  0.26350  Biso   1.000  H
  C219     1.0000 0.48330  0.59620  0.34830  Biso   1.000  C
  H186     1.0000 0.46940  0.53010  0.33610  Biso   1.000  H
  C220     1.0000 0.50420  0.61690  0.40990  Biso   1.000  C
  C221     1.0000 0.52460  0.71520  0.42180  Biso   1.000  C
  H187     1.0000 0.54000  0.73480  0.46250  Biso   1.000  H
  C222     1.0000 0.52260  0.78350  0.37500  Biso   1.000  C
  H188     1.0000 0.53670  0.84880  0.38490  Biso   1.000  H
  C223     1.0000 0.48850  0.43830  0.44330  Biso   1.000  C
  H189     1.0000 0.47160  0.43110  0.40010  Biso   1.000  H
  H190     1.0000 0.50490  0.37620  0.45290  Biso   1.000  H
  C224     1.0000 0.52670  0.57580  0.51860  Biso   1.000  C
  H191     1.0000 0.53550  0.65600  0.52380  Biso   1.000  H
  H192     1.0000 0.54530  0.52100  0.53280  Biso   1.000  H
  Zn5      1.0000 0.76866  0.95430  0.75016  Biso   1.000  Zn
  S9       1.0000 0.94199  0.58110  0.98782  Biso   1.000  S
  S10      1.0000 0.81393  0.32150  0.50936  Biso   1.000  S
  O49      1.0000 0.98643  0.35470  0.79690  Biso   1.000  O
  O50      1.0000 0.96220  0.19980  0.80980  Biso   1.000  O
  O51      1.0000 0.93360  0.49950  0.02060  Biso   1.000  O
  O52      1.0000 0.96770  0.66610  0.01960  Biso   1.000  O
  O53      1.0000 0.82573  0.96410  0.81850  Biso   1.000  O
  O54      1.0000 0.79510  0.80620  0.79410  Biso   1.000  O
  O55      1.0000 0.79030  0.94090  0.68280  Biso   1.000  O
  O56      1.0000 0.77178  0.09840  0.70580  Biso   1.000  O
  O57      1.0000 0.78850  0.40710  0.47770  Biso   1.000  O
  O58      1.0000 0.82190  0.23940  0.47620  Biso   1.000  O
  O59      1.0000 0.96141  0.53690  0.70090  Biso   1.000  O
  O60      1.0000 0.93150  0.69570  0.69120  Biso   1.000  O
  N33      1.0000 0.77590  0.60640  0.31480  Biso   1.000  N
  N34      1.0000 0.85520  0.78740  0.45050  Biso   1.000  N
  N35      1.0000 0.89970  0.93740  0.54490  Biso   1.000  N
  N36      1.0000 0.96670  0.15820  0.68300  Biso   1.000  N
  N37      1.0000 0.75930  0.01470  0.81560  Biso   1.000  N
  N38      1.0000 0.75080  0.18570  0.95310  Biso   1.000  N
  N39      1.0000 0.00450  0.94470  0.95450  Biso   1.000  N
  N40      1.0000 0.00170  0.73890  0.81690  Biso   1.000  N
  C225     1.0000 0.78890  0.70040  0.30340  Biso   1.000  C
  H193     1.0000 0.77900  0.72710  0.26270  Biso   1.000  H
  C226     1.0000 0.81560  0.76110  0.34640  Biso   1.000  C
  H194     1.0000 0.82390  0.82620  0.33520  Biso   1.000  H
  C227     1.0000 0.83020  0.72550  0.40630  Biso   1.000  C
  C228     1.0000 0.81750  0.62460  0.41840  Biso   1.000  C
  H195     1.0000 0.82770  0.59280  0.45810  Biso   1.000  H
  C229     1.0000 0.79060  0.57270  0.37300  Biso   1.000  C
  H196     1.0000 0.78150  0.50830  0.38310  Biso   1.000  H
  C230     1.0000 0.87390  0.74440  0.51340  Biso   1.000  C
  H197     1.0000 0.86060  0.68700  0.52080  Biso   1.000  H
  H198     1.0000 0.89390  0.70460  0.51950  Biso   1.000  H
  C231     1.0000 0.87210  0.88030  0.43870  Biso   1.000  C
  H199     1.0000 0.89180  0.84750  0.43960  Biso   1.000  H
  H200     1.0000 0.85770  0.91140  0.39750  Biso   1.000  H
  C232     1.0000 0.88210  0.97630  0.48220  Biso   1.000  C
  H201     1.0000 0.86240  0.01970  0.47530  Biso   1.000  H
  H202     1.0000 0.89600  0.03070  0.47500  Biso   1.000  H
  C233     1.0000 0.88310  0.84240  0.55750  Biso   1.000  C
  H203     1.0000 0.89760  0.81250  0.59890  Biso   1.000  H
  H204     1.0000 0.86310  0.87360  0.55590  Biso   1.000  H
  C234     1.0000 0.92050  0.00900  0.58980  Biso   1.000  C
  C235     1.0000 0.93500  0.10730  0.57830  Biso   1.000  C
  H205     1.0000 0.92870  0.12640  0.53770  Biso   1.000  H
  C236     1.0000 0.95780  0.17580  0.62460  Biso   1.000  C
  H206     1.0000 0.96760  0.23820  0.61470  Biso   1.000  H
  C237     1.0000 0.95260  0.06580  0.69420  Biso   1.000  C
  H207     1.0000 0.95840  0.05080  0.73510  Biso   1.000  H
  C238     1.0000 0.93060  0.99270  0.65060  Biso   1.000  C
  H208     1.0000 0.92210  0.92910  0.66220  Biso   1.000  H
  C239     1.0000 0.97010  0.30220  0.81680  Biso   1.000  C
  C240     1.0000 0.96270  0.37460  0.85900  Biso   1.000  C
  C241     1.0000 0.97580  0.48510  0.87790  Biso   1.000  C
  H209     1.0000 0.98890  0.51770  0.86290  Biso   1.000  H
  C242     1.0000 0.97030  0.54950  0.91840  Biso   1.000  C
  H210     1.0000 0.98000  0.62400  0.93240  Biso   1.000  H
  C243     1.0000 0.95030  0.50080  0.93730  Biso   1.000  C
  C244     1.0000 0.93620  0.39220  0.91880  Biso   1.000  C
  H211     1.0000 0.92220  0.36210  0.93230  Biso   1.000  H
  C245     1.0000 0.94300  0.32650  0.87950  Biso   1.000  C
  H212     1.0000 0.93430  0.25020  0.86730  Biso   1.000  H
  C246     1.0000 0.90650  0.65970  0.93900  Biso   1.000  C
  C247     1.0000 0.90980  0.76510  0.91570  Biso   1.000  C
  H213     1.0000 0.93080  0.79290  0.92560  Biso   1.000  H
  C248     1.0000 0.88220  0.82940  0.87800  Biso   1.000  C
  H214     1.0000 0.88410  0.90350  0.86330  Biso   1.000  H
  C249     1.0000 0.85190  0.78450  0.86220  Biso   1.000  C
  C250     1.0000 0.84900  0.67800  0.88410  Biso   1.000  C
  H215     1.0000 0.82790  0.64780  0.87220  Biso   1.000  H
  C251     1.0000 0.87680  0.61360  0.92360  Biso   1.000  C
  H216     1.0000 0.87490  0.54040  0.93920  Biso   1.000  H
  C252     1.0000 0.82230  0.85580  0.82210  Biso   1.000  C
  C253     1.0000 0.74080  0.10910  0.80460  Biso   1.000  C
  H217     1.0000 0.72880  0.13650  0.76400  Biso   1.000  H
  C254     1.0000 0.73810  0.16880  0.84810  Biso   1.000  C
  H218     1.0000 0.72500  0.23730  0.83740  Biso   1.000  H
  C255     1.0000 0.75410  0.13130  0.90810  Biso   1.000  C
  C256     1.0000 0.77220  0.02640  0.91900  Biso   1.000  C
  H219     1.0000 0.78270  0.99230  0.95820  Biso   1.000  H
  C257     1.0000 0.77460  0.97490  0.87320  Biso   1.000  C
  H220     1.0000 0.78770  0.90680  0.88230  Biso   1.000  H
  C258     1.0000 0.76990  0.14940  0.01520  Biso   1.000  C
  H221     1.0000 0.77090  0.06310  0.01680  Biso   1.000  H
  H222     1.0000 0.79240  0.17930  0.03200  Biso   1.000  H
  C259     1.0000 0.74330  0.30980  0.94800  Biso   1.000  C
  H223     1.0000 0.72750  0.32770  0.90510  Biso   1.000  H
  H224     1.0000 0.76360  0.35390  0.95910  Biso   1.000  H
  C260     1.0000 0.78450  0.04650  0.67840  Biso   1.000  C
  C261     1.0000 0.79240  0.11970  0.63770  Biso   1.000  C
  C262     1.0000 0.81330  0.07230  0.61980  Biso   1.000  C
  H225     1.0000 0.82300  0.99790  0.63420  Biso   1.000  H
  C263     1.0000 0.81980  0.13540  0.58030  Biso   1.000  C
  H226     1.0000 0.83430  0.10510  0.56790  Biso   1.000  H
  C264     1.0000 0.80490  0.24390  0.55880  Biso   1.000  C
  C265     1.0000 0.78440  0.28920  0.57660  Biso   1.000  C
  H227     1.0000 0.77420  0.36240  0.56120  Biso   1.000  H
  C266     1.0000 0.77830  0.22820  0.61750  Biso   1.000  C
  H228     1.0000 0.76470  0.26100  0.63120  Biso   1.000  H
  C267     1.0000 0.84970  0.40030  0.55870  Biso   1.000  C
  C268     1.0000 0.87950  0.35550  0.57440  Biso   1.000  C
  H229     1.0000 0.88130  0.28310  0.55810  Biso   1.000  H
  C269     1.0000 0.90720  0.41630  0.61440  Biso   1.000  C
  H230     1.0000 0.92810  0.38510  0.62560  Biso   1.000  H
  C270     1.0000 0.90490  0.52130  0.63810  Biso   1.000  C
  C271     1.0000 0.87380  0.56530  0.62120  Biso   1.000  C
  H231     1.0000 0.87200  0.63780  0.63740  Biso   1.000  H
  C272     1.0000 0.84640  0.50700  0.58240  Biso   1.000  C
  H232     1.0000 0.82540  0.53730  0.57140  Biso   1.000  H
  C273     1.0000 0.93440  0.59200  0.67980  Biso   1.000  C
  C274     1.0000 0.98260  0.83080  0.80470  Biso   1.000  C
  H233     1.0000 0.96740  0.84750  0.76350  Biso   1.000  H
  C275     1.0000 0.98330  0.90380  0.84830  Biso   1.000  C
  H234     1.0000 0.96940  0.96990  0.83610  Biso   1.000  H
  C276     1.0000 0.00420  0.88310  0.90990  Biso   1.000  C
  C277     1.0000 0.02460  0.78480  0.92180  Biso   1.000  C
  H235     1.0000 0.04000  0.76520  0.96250  Biso   1.000  H
  C278     1.0000 0.02260  0.71650  0.87500  Biso   1.000  C
  H236     1.0000 0.03670  0.65120  0.88490  Biso   1.000  H
  C279     1.0000 0.98850  0.06170  0.94330  Biso   1.000  C
  H237     1.0000 0.97160  0.06890  0.90010  Biso   1.000  H
  H238     1.0000 0.00490  0.12380  0.95290  Biso   1.000  H
  C280     1.0000 0.02670  0.92420  0.01860  Biso   1.000  C
  H239     1.0000 0.03550  0.84400  0.02380  Biso   1.000  H
  H240     1.0000 0.04530  0.97900  0.03280  Biso   1.000  H
  Zn6      1.0000 0.26866  0.45430  0.75016  Biso   1.000  Zn
  S11      1.0000 0.44199  0.08110  0.98782  Biso   1.000  S
  S12      1.0000 0.31393  0.82150  0.50936  Biso   1.000  S
  O61      1.0000 0.48643  0.85470  0.79690  Biso   1.000  O
  O62      1.0000 0.46220  0.69980  0.80980  Biso   1.000  O
  O63      1.0000 0.43360  0.99950  0.02060  Biso   1.000  O
  O64      1.0000 0.46770  0.16610  0.01960  Biso   1.000  O
  O65      1.0000 0.32573  0.46410  0.81850  Biso   1.000  O
  O66      1.0000 0.29510  0.30620  0.79410  Biso   1.000  O
  O67      1.0000 0.29030  0.44090  0.68280  Biso   1.000  O
  O68      1.0000 0.27178  0.59840  0.70580  Biso   1.000  O
  O69      1.0000 0.28850  0.90710  0.47770  Biso   1.000  O
  O70      1.0000 0.32190  0.73940  0.47620  Biso   1.000  O
  O71      1.0000 0.46141  0.03690  0.70090  Biso   1.000  O
  O72      1.0000 0.43150  0.19570  0.69120  Biso   1.000  O
  N41      1.0000 0.27590  0.10640  0.31480  Biso   1.000  N
  N42      1.0000 0.35520  0.28740  0.45050  Biso   1.000  N
  N43      1.0000 0.39970  0.43740  0.54490  Biso   1.000  N
  N44      1.0000 0.46670  0.65820  0.68300  Biso   1.000  N
  N45      1.0000 0.25930  0.51470  0.81560  Biso   1.000  N
  N46      1.0000 0.25080  0.68570  0.95310  Biso   1.000  N
  N47      1.0000 0.50450  0.44470  0.95450  Biso   1.000  N
  N48      1.0000 0.50170  0.23890  0.81690  Biso   1.000  N
  C281     1.0000 0.28890  0.20040  0.30340  Biso   1.000  C
  H241     1.0000 0.27900  0.22710  0.26270  Biso   1.000  H
  C282     1.0000 0.31560  0.26110  0.34640  Biso   1.000  C
  H242     1.0000 0.32390  0.32620  0.33520  Biso   1.000  H
  C283     1.0000 0.33020  0.22550  0.40630  Biso   1.000  C
  C284     1.0000 0.31750  0.12460  0.41840  Biso   1.000  C
  H243     1.0000 0.32770  0.09280  0.45810  Biso   1.000  H
  C285     1.0000 0.29060  0.07270  0.37300  Biso   1.000  C
  H244     1.0000 0.28150  0.00830  0.38310  Biso   1.000  H
  C286     1.0000 0.37390  0.24440  0.51340  Biso   1.000  C
  H245     1.0000 0.36060  0.18700  0.52080  Biso   1.000  H
  H246     1.0000 0.39390  0.20460  0.51950  Biso   1.000  H
  C287     1.0000 0.37210  0.38030  0.43870  Biso   1.000  C
  H247     1.0000 0.39180  0.34750  0.43960  Biso   1.000  H
  H248     1.0000 0.35770  0.41140  0.39750  Biso   1.000  H
  C288     1.0000 0.38210  0.47630  0.48220  Biso   1.000  C
  H249     1.0000 0.36240  0.51970  0.47530  Biso   1.000  H
  H250     1.0000 0.39600  0.53070  0.47500  Biso   1.000  H
  C289     1.0000 0.38310  0.34240  0.55750  Biso   1.000  C
  H251     1.0000 0.39760  0.31250  0.59890  Biso   1.000  H
  H252     1.0000 0.36310  0.37360  0.55590  Biso   1.000  H
  C290     1.0000 0.42050  0.50900  0.58980  Biso   1.000  C
  C291     1.0000 0.43500  0.60730  0.57830  Biso   1.000  C
  H253     1.0000 0.42870  0.62640  0.53770  Biso   1.000  H
  C292     1.0000 0.45780  0.67580  0.62460  Biso   1.000  C
  H254     1.0000 0.46760  0.73820  0.61470  Biso   1.000  H
  C293     1.0000 0.45260  0.56580  0.69420  Biso   1.000  C
  H255     1.0000 0.45840  0.55080  0.73510  Biso   1.000  H
  C294     1.0000 0.43060  0.49270  0.65060  Biso   1.000  C
  H256     1.0000 0.42210  0.42910  0.66220  Biso   1.000  H
  C295     1.0000 0.47010  0.80220  0.81680  Biso   1.000  C
  C296     1.0000 0.46270  0.87460  0.85900  Biso   1.000  C
  C297     1.0000 0.47580  0.98510  0.87790  Biso   1.000  C
  H257     1.0000 0.48890  0.01770  0.86290  Biso   1.000  H
  C298     1.0000 0.47030  0.04950  0.91840  Biso   1.000  C
  H258     1.0000 0.48000  0.12400  0.93240  Biso   1.000  H
  C299     1.0000 0.45030  0.00080  0.93730  Biso   1.000  C
  C300     1.0000 0.43620  0.89220  0.91880  Biso   1.000  C
  H259     1.0000 0.42220  0.86210  0.93230  Biso   1.000  H
  C301     1.0000 0.44300  0.82650  0.87950  Biso   1.000  C
  H260     1.0000 0.43430  0.75020  0.86730  Biso   1.000  H
  C302     1.0000 0.40650  0.15970  0.93900  Biso   1.000  C
  C303     1.0000 0.40980  0.26510  0.91570  Biso   1.000  C
  H261     1.0000 0.43080  0.29290  0.92560  Biso   1.000  H
  C304     1.0000 0.38220  0.32940  0.87800  Biso   1.000  C
  H262     1.0000 0.38410  0.40350  0.86330  Biso   1.000  H
  C305     1.0000 0.35190  0.28450  0.86220  Biso   1.000  C
  C306     1.0000 0.34900  0.17800  0.88410  Biso   1.000  C
  H263     1.0000 0.32790  0.14780  0.87220  Biso   1.000  H
  C307     1.0000 0.37680  0.11360  0.92360  Biso   1.000  C
  H264     1.0000 0.37490  0.04040  0.93920  Biso   1.000  H
  C308     1.0000 0.32230  0.35580  0.82210  Biso   1.000  C
  C309     1.0000 0.24080  0.60910  0.80460  Biso   1.000  C
  H265     1.0000 0.22880  0.63650  0.76400  Biso   1.000  H
  C310     1.0000 0.23810  0.66880  0.84810  Biso   1.000  C
  H266     1.0000 0.22500  0.73730  0.83740  Biso   1.000  H
  C311     1.0000 0.25410  0.63130  0.90810  Biso   1.000  C
  C312     1.0000 0.27220  0.52640  0.91900  Biso   1.000  C
  H267     1.0000 0.28270  0.49230  0.95820  Biso   1.000  H
  C313     1.0000 0.27460  0.47490  0.87320  Biso   1.000  C
  H268     1.0000 0.28770  0.40680  0.88230  Biso   1.000  H
  C314     1.0000 0.26990  0.64940  0.01520  Biso   1.000  C
  H269     1.0000 0.27090  0.56310  0.01680  Biso   1.000  H
  H270     1.0000 0.29240  0.67930  0.03200  Biso   1.000  H
  C315     1.0000 0.24330  0.80980  0.94800  Biso   1.000  C
  H271     1.0000 0.22750  0.82770  0.90510  Biso   1.000  H
  H272     1.0000 0.26360  0.85390  0.95910  Biso   1.000  H
  C316     1.0000 0.28450  0.54650  0.67840  Biso   1.000  C
  C317     1.0000 0.29240  0.61970  0.63770  Biso   1.000  C
  C318     1.0000 0.31330  0.57230  0.61980  Biso   1.000  C
  H273     1.0000 0.32300  0.49790  0.63420  Biso   1.000  H
  C319     1.0000 0.31980  0.63540  0.58030  Biso   1.000  C
  H274     1.0000 0.33430  0.60510  0.56790  Biso   1.000  H
  C320     1.0000 0.30490  0.74390  0.55880  Biso   1.000  C
  C321     1.0000 0.28440  0.78920  0.57660  Biso   1.000  C
  H275     1.0000 0.27420  0.86240  0.56120  Biso   1.000  H
  C322     1.0000 0.27830  0.72820  0.61750  Biso   1.000  C
  H276     1.0000 0.26470  0.76100  0.63120  Biso   1.000  H
  C323     1.0000 0.34970  0.90030  0.55870  Biso   1.000  C
  C324     1.0000 0.37950  0.85550  0.57440  Biso   1.000  C
  H277     1.0000 0.38130  0.78310  0.55810  Biso   1.000  H
  C325     1.0000 0.40720  0.91630  0.61440  Biso   1.000  C
  H278     1.0000 0.42810  0.88510  0.62560  Biso   1.000  H
  C326     1.0000 0.40490  0.02130  0.63810  Biso   1.000  C
  C327     1.0000 0.37380  0.06530  0.62120  Biso   1.000  C
  H279     1.0000 0.37200  0.13780  0.63740  Biso   1.000  H
  C328     1.0000 0.34640  0.00700  0.58240  Biso   1.000  C
  H280     1.0000 0.32540  0.03730  0.57140  Biso   1.000  H
  C329     1.0000 0.43440  0.09200  0.67980  Biso   1.000  C
  C330     1.0000 0.48260  0.33080  0.80470  Biso   1.000  C
  H281     1.0000 0.46740  0.34750  0.76350  Biso   1.000  H
  C331     1.0000 0.48330  0.40380  0.84830  Biso   1.000  C
  H282     1.0000 0.46940  0.46990  0.83610  Biso   1.000  H
  C332     1.0000 0.50420  0.38310  0.90990  Biso   1.000  C
  C333     1.0000 0.52460  0.28480  0.92180  Biso   1.000  C
  H283     1.0000 0.54000  0.26520  0.96250  Biso   1.000  H
  C334     1.0000 0.52260  0.21650  0.87500  Biso   1.000  C
  H284     1.0000 0.53670  0.15120  0.88490  Biso   1.000  H
  C335     1.0000 0.48850  0.56170  0.94330  Biso   1.000  C
  H285     1.0000 0.47160  0.56890  0.90010  Biso   1.000  H
  H286     1.0000 0.50490  0.62380  0.95290  Biso   1.000  H
  C336     1.0000 0.52670  0.42420  0.01860  Biso   1.000  C
  H287     1.0000 0.53550  0.34400  0.02380  Biso   1.000  H
  H288     1.0000 0.54530  0.47900  0.03280  Biso   1.000  H
  Zn7      1.0000 0.23134  0.95430  0.74984  Biso   1.000  Zn
  S13      1.0000 0.05801  0.58110  0.51218  Biso   1.000  S
  S14      1.0000 0.18607  0.32150  0.99064  Biso   1.000  S
  O73      1.0000 0.01357  0.35470  0.70310  Biso   1.000  O
  O74      1.0000 0.03780  0.19980  0.69020  Biso   1.000  O
  O75      1.0000 0.06640  0.49950  0.47940  Biso   1.000  O
  O76      1.0000 0.03230  0.66610  0.48040  Biso   1.000  O
  O77      1.0000 0.17427  0.96410  0.68150  Biso   1.000  O
  O78      1.0000 0.20490  0.80620  0.70590  Biso   1.000  O
  O79      1.0000 0.20970  0.94090  0.81720  Biso   1.000  O
  O80      1.0000 0.22822  0.09840  0.79420  Biso   1.000  O
  O81      1.0000 0.21150  0.40710  0.02230  Biso   1.000  O
  O82      1.0000 0.17810  0.23940  0.02380  Biso   1.000  O
  O83      1.0000 0.03859  0.53690  0.79910  Biso   1.000  O
  O84      1.0000 0.06850  0.69570  0.80880  Biso   1.000  O
  N49      1.0000 0.22410  0.60640  0.18520  Biso   1.000  N
  N50      1.0000 0.14480  0.78740  0.04950  Biso   1.000  N
  N51      1.0000 0.10030  0.93740  0.95510  Biso   1.000  N
  N52      1.0000 0.03330  0.15820  0.81700  Biso   1.000  N
  N53      1.0000 0.24070  0.01470  0.68440  Biso   1.000  N
  N54      1.0000 0.24920  0.18570  0.54690  Biso   1.000  N
  N55      1.0000 0.99550  0.94470  0.54550  Biso   1.000  N
  N56      1.0000 0.99830  0.73890  0.68310  Biso   1.000  N
  C337     1.0000 0.21110  0.70040  0.19660  Biso   1.000  C
  H289     1.0000 0.22100  0.72710  0.23730  Biso   1.000  H
  C338     1.0000 0.18440  0.76110  0.15360  Biso   1.000  C
  H290     1.0000 0.17610  0.82620  0.16480  Biso   1.000  H
  C339     1.0000 0.16980  0.72550  0.09370  Biso   1.000  C
  C340     1.0000 0.18250  0.62460  0.08160  Biso   1.000  C
  H291     1.0000 0.17230  0.59280  0.04190  Biso   1.000  H
  C341     1.0000 0.20940  0.57270  0.12700  Biso   1.000  C
  H292     1.0000 0.21850  0.50830  0.11690  Biso   1.000  H
  C342     1.0000 0.12610  0.74440  0.98660  Biso   1.000  C
  H293     1.0000 0.13940  0.68700  0.97920  Biso   1.000  H
  H294     1.0000 0.10610  0.70460  0.98050  Biso   1.000  H
  C343     1.0000 0.12790  0.88030  0.06130  Biso   1.000  C
  H295     1.0000 0.10820  0.84750  0.06040  Biso   1.000  H
  H296     1.0000 0.14230  0.91140  0.10250  Biso   1.000  H
  C344     1.0000 0.11790  0.97630  0.01780  Biso   1.000  C
  H297     1.0000 0.13760  0.01970  0.02470  Biso   1.000  H
  H298     1.0000 0.10400  0.03070  0.02500  Biso   1.000  H
  C345     1.0000 0.11690  0.84240  0.94250  Biso   1.000  C
  H299     1.0000 0.10240  0.81250  0.90110  Biso   1.000  H
  H300     1.0000 0.13690  0.87360  0.94410  Biso   1.000  H
  C346     1.0000 0.07950  0.00900  0.91020  Biso   1.000  C
  C347     1.0000 0.06500  0.10730  0.92170  Biso   1.000  C
  H301     1.0000 0.07130  0.12640  0.96230  Biso   1.000  H
  C348     1.0000 0.04220  0.17580  0.87540  Biso   1.000  C
  H302     1.0000 0.03240  0.23820  0.88530  Biso   1.000  H
  C349     1.0000 0.04740  0.06580  0.80580  Biso   1.000  C
  H303     1.0000 0.04160  0.05080  0.76490  Biso   1.000  H
  C350     1.0000 0.06940  0.99270  0.84940  Biso   1.000  C
  H304     1.0000 0.07790  0.92910  0.83780  Biso   1.000  H
  C351     1.0000 0.02990  0.30220  0.68320  Biso   1.000  C
  C352     1.0000 0.03730  0.37460  0.64100  Biso   1.000  C
  C353     1.0000 0.02420  0.48510  0.62210  Biso   1.000  C
  H305     1.0000 0.01110  0.51770  0.63710  Biso   1.000  H
  C354     1.0000 0.02970  0.54950  0.58160  Biso   1.000  C
  H306     1.0000 0.02000  0.62400  0.56760  Biso   1.000  H
  C355     1.0000 0.04970  0.50080  0.56270  Biso   1.000  C
  C356     1.0000 0.06380  0.39220  0.58120  Biso   1.000  C
  H307     1.0000 0.07780  0.36210  0.56770  Biso   1.000  H
  C357     1.0000 0.05700  0.32650  0.62050  Biso   1.000  C
  H308     1.0000 0.06570  0.25020  0.63270  Biso   1.000  H
  C358     1.0000 0.09350  0.65970  0.56100  Biso   1.000  C
  C359     1.0000 0.09020  0.76510  0.58430  Biso   1.000  C
  H309     1.0000 0.06920  0.79290  0.57440  Biso   1.000  H
  C360     1.0000 0.11780  0.82940  0.62200  Biso   1.000  C
  H310     1.0000 0.11590  0.90350  0.63670  Biso   1.000  H
  C361     1.0000 0.14810  0.78450  0.63780  Biso   1.000  C
  C362     1.0000 0.15100  0.67800  0.61590  Biso   1.000  C
  H311     1.0000 0.17210  0.64780  0.62780  Biso   1.000  H
  C363     1.0000 0.12320  0.61360  0.57640  Biso   1.000  C
  H312     1.0000 0.12510  0.54040  0.56080  Biso   1.000  H
  C364     1.0000 0.17770  0.85580  0.67790  Biso   1.000  C
  C365     1.0000 0.25920  0.10910  0.69540  Biso   1.000  C
  H313     1.0000 0.27120  0.13650  0.73600  Biso   1.000  H
  C366     1.0000 0.26190  0.16880  0.65190  Biso   1.000  C
  H314     1.0000 0.27500  0.23730  0.66260  Biso   1.000  H
  C367     1.0000 0.24590  0.13130  0.59190  Biso   1.000  C
  C368     1.0000 0.22780  0.02640  0.58100  Biso   1.000  C
  H315     1.0000 0.21730  0.99230  0.54180  Biso   1.000  H
  C369     1.0000 0.22540  0.97490  0.62680  Biso   1.000  C
  H316     1.0000 0.21230  0.90680  0.61770  Biso   1.000  H
  C370     1.0000 0.23010  0.14940  0.48480  Biso   1.000  C
  H317     1.0000 0.22910  0.06310  0.48320  Biso   1.000  H
  H318     1.0000 0.20760  0.17930  0.46800  Biso   1.000  H
  C371     1.0000 0.25670  0.30980  0.55200  Biso   1.000  C
  H319     1.0000 0.27250  0.32770  0.59490  Biso   1.000  H
  H320     1.0000 0.23640  0.35390  0.54090  Biso   1.000  H
  C372     1.0000 0.21550  0.04650  0.82160  Biso   1.000  C
  C373     1.0000 0.20760  0.11970  0.86230  Biso   1.000  C
  C374     1.0000 0.18670  0.07230  0.88020  Biso   1.000  C
  H321     1.0000 0.17700  0.99790  0.86580  Biso   1.000  H
  C375     1.0000 0.18020  0.13540  0.91970  Biso   1.000  C
  H322     1.0000 0.16570  0.10510  0.93210  Biso   1.000  H
  C376     1.0000 0.19510  0.24390  0.94120  Biso   1.000  C
  C377     1.0000 0.21560  0.28920  0.92340  Biso   1.000  C
  H323     1.0000 0.22580  0.36240  0.93880  Biso   1.000  H
  C378     1.0000 0.22170  0.22820  0.88250  Biso   1.000  C
  H324     1.0000 0.23530  0.26100  0.86880  Biso   1.000  H
  C379     1.0000 0.15030  0.40030  0.94130  Biso   1.000  C
  C380     1.0000 0.12050  0.35550  0.92560  Biso   1.000  C
  H325     1.0000 0.11870  0.28310  0.94190  Biso   1.000  H
  C381     1.0000 0.09280  0.41630  0.88560  Biso   1.000  C
  H326     1.0000 0.07190  0.38510  0.87440  Biso   1.000  H
  C382     1.0000 0.09510  0.52130  0.86190  Biso   1.000  C
  C383     1.0000 0.12620  0.56530  0.87880  Biso   1.000  C
  H327     1.0000 0.12800  0.63780  0.86260  Biso   1.000  H
  C384     1.0000 0.15360  0.50700  0.91760  Biso   1.000  C
  H328     1.0000 0.17460  0.53730  0.92860  Biso   1.000  H
  C385     1.0000 0.06560  0.59200  0.82020  Biso   1.000  C
  C386     1.0000 0.01740  0.83080  0.69530  Biso   1.000  C
  H329     1.0000 0.03260  0.84750  0.73650  Biso   1.000  H
  C387     1.0000 0.01670  0.90380  0.65170  Biso   1.000  C
  H330     1.0000 0.03060  0.96990  0.66390  Biso   1.000  H
  C388     1.0000 0.99580  0.88310  0.59010  Biso   1.000  C
  C389     1.0000 0.97540  0.78480  0.57820  Biso   1.000  C
  H331     1.0000 0.96000  0.76520  0.53750  Biso   1.000  H
  C390     1.0000 0.97740  0.71650  0.62500  Biso   1.000  C
  H332     1.0000 0.96330  0.65120  0.61510  Biso   1.000  H
  C391     1.0000 0.01150  0.06170  0.55670  Biso   1.000  C
  H333     1.0000 0.02840  0.06890  0.59990  Biso   1.000  H
  H334     1.0000 0.99510  0.12380  0.54710  Biso   1.000  H
  C392     1.0000 0.97330  0.92420  0.48140  Biso   1.000  C
  H335     1.0000 0.96450  0.84400  0.47620  Biso   1.000  H
  H336     1.0000 0.95470  0.97900  0.46720  Biso   1.000  H
  Zn8      1.0000 0.73134  0.45430  0.74984  Biso   1.000  Zn
  S15      1.0000 0.55801  0.08110  0.51218  Biso   1.000  S
  S16      1.0000 0.68607  0.82150  0.99064  Biso   1.000  S
  O85      1.0000 0.51357  0.85470  0.70310  Biso   1.000  O
  O86      1.0000 0.53780  0.69980  0.69020  Biso   1.000  O
  O87      1.0000 0.56640  0.99950  0.47940  Biso   1.000  O
  O88      1.0000 0.53230  0.16610  0.48040  Biso   1.000  O
  O89      1.0000 0.67427  0.46410  0.68150  Biso   1.000  O
  O90      1.0000 0.70490  0.30620  0.70590  Biso   1.000  O
  O91      1.0000 0.70970  0.44090  0.81720  Biso   1.000  O
  O92      1.0000 0.72822  0.59840  0.79420  Biso   1.000  O
  O93      1.0000 0.71150  0.90710  0.02230  Biso   1.000  O
  O94      1.0000 0.67810  0.73940  0.02380  Biso   1.000  O
  O95      1.0000 0.53859  0.03690  0.79910  Biso   1.000  O
  O96      1.0000 0.56850  0.19570  0.80880  Biso   1.000  O
  N57      1.0000 0.72410  0.10640  0.18520  Biso   1.000  N
  N58      1.0000 0.64480  0.28740  0.04950  Biso   1.000  N
  N59      1.0000 0.60030  0.43740  0.95510  Biso   1.000  N
  N60      1.0000 0.53330  0.65820  0.81700  Biso   1.000  N
  N61      1.0000 0.74070  0.51470  0.68440  Biso   1.000  N
  N62      1.0000 0.74920  0.68570  0.54690  Biso   1.000  N
  N63      1.0000 0.49550  0.44470  0.54550  Biso   1.000  N
  N64      1.0000 0.49830  0.23890  0.68310  Biso   1.000  N
  C393     1.0000 0.71110  0.20040  0.19660  Biso   1.000  C
  H337     1.0000 0.72100  0.22710  0.23730  Biso   1.000  H
  C394     1.0000 0.68440  0.26110  0.15360  Biso   1.000  C
  H338     1.0000 0.67610  0.32620  0.16480  Biso   1.000  H
  C395     1.0000 0.66980  0.22550  0.09370  Biso   1.000  C
  C396     1.0000 0.68250  0.12460  0.08160  Biso   1.000  C
  H339     1.0000 0.67230  0.09280  0.04190  Biso   1.000  H
  C397     1.0000 0.70940  0.07270  0.12700  Biso   1.000  C
  H340     1.0000 0.71850  0.00830  0.11690  Biso   1.000  H
  C398     1.0000 0.62610  0.24440  0.98660  Biso   1.000  C
  H341     1.0000 0.63940  0.18700  0.97920  Biso   1.000  H
  H342     1.0000 0.60610  0.20460  0.98050  Biso   1.000  H
  C399     1.0000 0.62790  0.38030  0.06130  Biso   1.000  C
  H343     1.0000 0.60820  0.34750  0.06040  Biso   1.000  H
  H344     1.0000 0.64230  0.41140  0.10250  Biso   1.000  H
  C400     1.0000 0.61790  0.47630  0.01780  Biso   1.000  C
  H345     1.0000 0.63760  0.51970  0.02470  Biso   1.000  H
  H346     1.0000 0.60400  0.53070  0.02500  Biso   1.000  H
  C401     1.0000 0.61690  0.34240  0.94250  Biso   1.000  C
  H347     1.0000 0.60240  0.31250  0.90110  Biso   1.000  H
  H348     1.0000 0.63690  0.37360  0.94410  Biso   1.000  H
  C402     1.0000 0.57950  0.50900  0.91020  Biso   1.000  C
  C403     1.0000 0.56500  0.60730  0.92170  Biso   1.000  C
  H349     1.0000 0.57130  0.62640  0.96230  Biso   1.000  H
  C404     1.0000 0.54220  0.67580  0.87540  Biso   1.000  C
  H350     1.0000 0.53240  0.73820  0.88530  Biso   1.000  H
  C405     1.0000 0.54740  0.56580  0.80580  Biso   1.000  C
  H351     1.0000 0.54160  0.55080  0.76490  Biso   1.000  H
  C406     1.0000 0.56940  0.49270  0.84940  Biso   1.000  C
  H352     1.0000 0.57790  0.42910  0.83780  Biso   1.000  H
  C407     1.0000 0.52990  0.80220  0.68320  Biso   1.000  C
  C408     1.0000 0.53730  0.87460  0.64100  Biso   1.000  C
  C409     1.0000 0.52420  0.98510  0.62210  Biso   1.000  C
  H353     1.0000 0.51110  0.01770  0.63710  Biso   1.000  H
  C410     1.0000 0.52970  0.04950  0.58160  Biso   1.000  C
  H354     1.0000 0.52000  0.12400  0.56760  Biso   1.000  H
  C411     1.0000 0.54970  0.00080  0.56270  Biso   1.000  C
  C412     1.0000 0.56380  0.89220  0.58120  Biso   1.000  C
  H355     1.0000 0.57780  0.86210  0.56770  Biso   1.000  H
  C413     1.0000 0.55700  0.82650  0.62050  Biso   1.000  C
  H356     1.0000 0.56570  0.75020  0.63270  Biso   1.000  H
  C414     1.0000 0.59350  0.15970  0.56100  Biso   1.000  C
  C415     1.0000 0.59020  0.26510  0.58430  Biso   1.000  C
  H357     1.0000 0.56920  0.29290  0.57440  Biso   1.000  H
  C416     1.0000 0.61780  0.32940  0.62200  Biso   1.000  C
  H358     1.0000 0.61590  0.40350  0.63670  Biso   1.000  H
  C417     1.0000 0.64810  0.28450  0.63780  Biso   1.000  C
  C418     1.0000 0.65100  0.17800  0.61590  Biso   1.000  C
  H359     1.0000 0.67210  0.14780  0.62780  Biso   1.000  H
  C419     1.0000 0.62320  0.11360  0.57640  Biso   1.000  C
  H360     1.0000 0.62510  0.04040  0.56080  Biso   1.000  H
  C420     1.0000 0.67770  0.35580  0.67790  Biso   1.000  C
  C421     1.0000 0.75920  0.60910  0.69540  Biso   1.000  C
  H361     1.0000 0.77120  0.63650  0.73600  Biso   1.000  H
  C422     1.0000 0.76190  0.66880  0.65190  Biso   1.000  C
  H362     1.0000 0.77500  0.73730  0.66260  Biso   1.000  H
  C423     1.0000 0.74590  0.63130  0.59190  Biso   1.000  C
  C424     1.0000 0.72780  0.52640  0.58100  Biso   1.000  C
  H363     1.0000 0.71730  0.49230  0.54180  Biso   1.000  H
  C425     1.0000 0.72540  0.47490  0.62680  Biso   1.000  C
  H364     1.0000 0.71230  0.40680  0.61770  Biso   1.000  H
  C426     1.0000 0.73010  0.64940  0.48480  Biso   1.000  C
  H365     1.0000 0.72910  0.56310  0.48320  Biso   1.000  H
  H366     1.0000 0.70760  0.67930  0.46800  Biso   1.000  H
  C427     1.0000 0.75670  0.80980  0.55200  Biso   1.000  C
  H367     1.0000 0.77250  0.82770  0.59490  Biso   1.000  H
  H368     1.0000 0.73640  0.85390  0.54090  Biso   1.000  H
  C428     1.0000 0.71550  0.54650  0.82160  Biso   1.000  C
  C429     1.0000 0.70760  0.61970  0.86230  Biso   1.000  C
  C430     1.0000 0.68670  0.57230  0.88020  Biso   1.000  C
  H369     1.0000 0.67700  0.49790  0.86580  Biso   1.000  H
  C431     1.0000 0.68020  0.63540  0.91970  Biso   1.000  C
  H370     1.0000 0.66570  0.60510  0.93210  Biso   1.000  H
  C432     1.0000 0.69510  0.74390  0.94120  Biso   1.000  C
  C433     1.0000 0.71560  0.78920  0.92340  Biso   1.000  C
  H371     1.0000 0.72580  0.86240  0.93880  Biso   1.000  H
  C434     1.0000 0.72170  0.72820  0.88250  Biso   1.000  C
  H372     1.0000 0.73530  0.76100  0.86880  Biso   1.000  H
  C435     1.0000 0.65030  0.90030  0.94130  Biso   1.000  C
  C436     1.0000 0.62050  0.85550  0.92560  Biso   1.000  C
  H373     1.0000 0.61870  0.78310  0.94190  Biso   1.000  H
  C437     1.0000 0.59280  0.91630  0.88560  Biso   1.000  C
  H374     1.0000 0.57190  0.88510  0.87440  Biso   1.000  H
  C438     1.0000 0.59510  0.02130  0.86190  Biso   1.000  C
  C439     1.0000 0.62620  0.06530  0.87880  Biso   1.000  C
  H375     1.0000 0.62800  0.13780  0.86260  Biso   1.000  H
  C440     1.0000 0.65360  0.00700  0.91760  Biso   1.000  C
  H376     1.0000 0.67460  0.03730  0.92860  Biso   1.000  H
  C441     1.0000 0.56560  0.09200  0.82020  Biso   1.000  C
  C442     1.0000 0.51740  0.33080  0.69530  Biso   1.000  C
  H377     1.0000 0.53260  0.34750  0.73650  Biso   1.000  H
  C443     1.0000 0.51670  0.40380  0.65170  Biso   1.000  C
  H378     1.0000 0.53060  0.46990  0.66390  Biso   1.000  H
  C444     1.0000 0.49580  0.38310  0.59010  Biso   1.000  C
  C445     1.0000 0.47540  0.28480  0.57820  Biso   1.000  C
  H379     1.0000 0.46000  0.26520  0.53750  Biso   1.000  H
  C446     1.0000 0.47740  0.21650  0.62500  Biso   1.000  C
  H380     1.0000 0.46330  0.15120  0.61510  Biso   1.000  H
  C447     1.0000 0.51150  0.56170  0.55670  Biso   1.000  C
  H381     1.0000 0.52840  0.56890  0.59990  Biso   1.000  H
  H382     1.0000 0.49510  0.62380  0.54710  Biso   1.000  H
  C448     1.0000 0.47330  0.42420  0.48140  Biso   1.000  C
  H383     1.0000 0.46450  0.34400  0.47620  Biso   1.000  H
  H384     1.0000 0.45470  0.47900  0.46720  Biso   1.000  H
  Zn9      1.0000 0.00000  0.73920  0.25000  Biso   1.000  Zn
  Zn10     1.0000 0.00000  0.36504  0.25000  Biso   1.000  Zn
  Zn11     1.0000 0.50000  0.23920  0.25000  Biso   1.000  Zn
  Zn12     1.0000 0.50000  0.86504  0.25000  Biso   1.000  Zn
  Zn13     1.0000 0.00000  0.26080  0.75000  Biso   1.000  Zn
  Zn14     1.0000 0.00000  0.63496  0.75000  Biso   1.000  Zn
  Zn15     1.0000 0.50000  0.76080  0.75000  Biso   1.000  Zn
  Zn16     1.0000 0.50000  0.13496  0.75000  Biso   1.000  Zn
