data_image0
_cell_length_a       33.5375
_cell_length_b       33.5375
_cell_length_c       33.5375
_cell_angle_alpha    90
_cell_angle_beta     90
_cell_angle_gamma    90

_symmetry_space_group_name_H-M    "P 1"
_symmetry_int_tables_number       1

loop_
  _symmetry_equiv_pos_as_xyz
  'x, y, z'

loop_
  _atom_site_label
  _atom_site_occupancy
  _atom_site_fract_x
  _atom_site_fract_y
  _atom_site_fract_z
  _atom_site_thermal_displace_type
  _atom_site_B_iso_or_equiv
  _atom_site_type_symbol
  Cu1      1.0000 0.06370  0.15852  0.85684  Biso   1.000  Cu
  O1       1.0000 0.06434  0.10049  0.85236  Biso   1.000  O
  C1       1.0000 0.02989  0.08232  0.86182  Biso   1.000  C
  C2       1.0000 0.01104  0.05689  0.83514  Biso   1.000  C
  H1       1.0000 0.02250  0.05190  0.81010  Biso   1.000  H
  C3       1.0000 0.97565  0.03911  0.84547  Biso   1.000  C
  H2       1.0000 0.96290  0.02190  0.82740  Biso   1.000  H
  C4       1.0000 0.95866  0.04638  0.88236  Biso   1.000  C
  H3       1.0000 0.93440  0.03410  0.88940  Biso   1.000  H
  C5       1.0000 0.97751  0.07180  0.90892  Biso   1.000  C
  H4       1.0000 0.96590  0.07670  0.93390  Biso   1.000  H
  C6       1.0000 0.01300  0.09001  0.89926  Biso   1.000  C
  C7       1.0000 0.03471  0.11660  0.92819  Biso   1.000  C
  H5       1.0000 0.01940  0.11850  0.95300  Biso   1.000  H
  H6       1.0000 0.06070  0.10480  0.93460  Biso   1.000  H
  N1       1.0000 0.04076  0.15728  0.91146  Biso   1.000  N
  H7       1.0000 0.01910  0.16750  0.90860  Biso   1.000  H
  C8       1.0000 0.06506  0.18610  0.93495  Biso   1.000  C
  C9       1.0000 0.04628  0.19768  0.97508  Biso   1.000  C
  H8       1.0000 0.03280  0.22350  0.97300  Biso   1.000  H
  H9       1.0000 0.02670  0.17760  0.98340  Biso   1.000  H
  C10      1.0000 0.07980  0.19990  0.00460  Biso   1.000  C
  H10      1.0000 0.07030  0.19600  0.03200  Biso   1.000  H
  H11      1.0000 0.09400  0.22540  0.00280  Biso   1.000  H
  C11      1.0000 0.10660  0.16460  0.99060  Biso   1.000  C
  H12      1.0000 0.13350  0.16680  0.00170  Biso   1.000  H
  H13      1.0000 0.09510  0.13900  0.99860  Biso   1.000  H
  C12      1.0000 0.10703  0.16893  0.94571  Biso   1.000  C
  H14      1.0000 0.11120  0.14300  0.93280  Biso   1.000  H
  H15      1.0000 0.12820  0.18720  0.93730  Biso   1.000  H
  C13      1.0000 0.07233  0.22193  0.90760  Biso   1.000  C
  O2       1.0000 0.07344  0.21442  0.87002  Biso   1.000  O
  O3       1.0000 0.07794  0.25497  0.92260  Biso   1.000  O
  C14      1.0000 0.11970  0.19390  0.98220  Biso   1.000  C
  Cu2      1.0000 0.56370  0.65852  0.35684  Biso   1.000  Cu
  O4       1.0000 0.56434  0.60049  0.35236  Biso   1.000  O
  C15      1.0000 0.52989  0.58232  0.36182  Biso   1.000  C
  C16      1.0000 0.51104  0.55689  0.33514  Biso   1.000  C
  H16      1.0000 0.52250  0.55190  0.31010  Biso   1.000  H
  C17      1.0000 0.47565  0.53911  0.34547  Biso   1.000  C
  H17      1.0000 0.46290  0.52190  0.32740  Biso   1.000  H
  C18      1.0000 0.45866  0.54638  0.38236  Biso   1.000  C
  H18      1.0000 0.43440  0.53410  0.38940  Biso   1.000  H
  C19      1.0000 0.47751  0.57180  0.40892  Biso   1.000  C
  H19      1.0000 0.46590  0.57670  0.43390  Biso   1.000  H
  C20      1.0000 0.51300  0.59001  0.39926  Biso   1.000  C
  C21      1.0000 0.53471  0.61660  0.42819  Biso   1.000  C
  H20      1.0000 0.51940  0.61850  0.45300  Biso   1.000  H
  H21      1.0000 0.56070  0.60480  0.43460  Biso   1.000  H
  N2       1.0000 0.54076  0.65728  0.41146  Biso   1.000  N
  H22      1.0000 0.51910  0.66750  0.40860  Biso   1.000  H
  C22      1.0000 0.56506  0.68610  0.43495  Biso   1.000  C
  C23      1.0000 0.54628  0.69768  0.47508  Biso   1.000  C
  H23      1.0000 0.53280  0.72350  0.47300  Biso   1.000  H
  H24      1.0000 0.52670  0.67760  0.48340  Biso   1.000  H
  C24      1.0000 0.57980  0.69990  0.50460  Biso   1.000  C
  H25      1.0000 0.57030  0.69600  0.53200  Biso   1.000  H
  H26      1.0000 0.59400  0.72540  0.50280  Biso   1.000  H
  C25      1.0000 0.60660  0.66460  0.49060  Biso   1.000  C
  H27      1.0000 0.63350  0.66680  0.50170  Biso   1.000  H
  H28      1.0000 0.59510  0.63900  0.49860  Biso   1.000  H
  C26      1.0000 0.60703  0.66893  0.44571  Biso   1.000  C
  H29      1.0000 0.61120  0.64300  0.43280  Biso   1.000  H
  H30      1.0000 0.62820  0.68720  0.43730  Biso   1.000  H
  C27      1.0000 0.57233  0.72193  0.40760  Biso   1.000  C
  O5       1.0000 0.57344  0.71442  0.37002  Biso   1.000  O
  O6       1.0000 0.57794  0.75497  0.42260  Biso   1.000  O
  C28      1.0000 0.61970  0.69390  0.48220  Biso   1.000  C
  Cu3      1.0000 0.43630  0.84148  0.35684  Biso   1.000  Cu
  O7       1.0000 0.43566  0.89951  0.35236  Biso   1.000  O
  C29      1.0000 0.47011  0.91768  0.36182  Biso   1.000  C
  C30      1.0000 0.48896  0.94311  0.33514  Biso   1.000  C
  H31      1.0000 0.47750  0.94810  0.31010  Biso   1.000  H
  C31      1.0000 0.52435  0.96089  0.34547  Biso   1.000  C
  H32      1.0000 0.53710  0.97810  0.32740  Biso   1.000  H
  C32      1.0000 0.54134  0.95362  0.38236  Biso   1.000  C
  H33      1.0000 0.56560  0.96590  0.38940  Biso   1.000  H
  C33      1.0000 0.52249  0.92820  0.40892  Biso   1.000  C
  H34      1.0000 0.53410  0.92330  0.43390  Biso   1.000  H
  C34      1.0000 0.48700  0.90999  0.39926  Biso   1.000  C
  C35      1.0000 0.46529  0.88340  0.42819  Biso   1.000  C
  H35      1.0000 0.48060  0.88150  0.45300  Biso   1.000  H
  H36      1.0000 0.43930  0.89520  0.43460  Biso   1.000  H
  N3       1.0000 0.45924  0.84272  0.41146  Biso   1.000  N
  H37      1.0000 0.48090  0.83250  0.40860  Biso   1.000  H
  C36      1.0000 0.43494  0.81390  0.43495  Biso   1.000  C
  C37      1.0000 0.45372  0.80232  0.47508  Biso   1.000  C
  H38      1.0000 0.46720  0.77650  0.47300  Biso   1.000  H
  H39      1.0000 0.47330  0.82240  0.48340  Biso   1.000  H
  C38      1.0000 0.42020  0.80010  0.50460  Biso   1.000  C
  H40      1.0000 0.42970  0.80400  0.53200  Biso   1.000  H
  H41      1.0000 0.40600  0.77460  0.50280  Biso   1.000  H
  C39      1.0000 0.39340  0.83540  0.49060  Biso   1.000  C
  H42      1.0000 0.36650  0.83320  0.50170  Biso   1.000  H
  H43      1.0000 0.40490  0.86100  0.49860  Biso   1.000  H
  C40      1.0000 0.39297  0.83107  0.44571  Biso   1.000  C
  H44      1.0000 0.38880  0.85700  0.43280  Biso   1.000  H
  H45      1.0000 0.37180  0.81280  0.43730  Biso   1.000  H
  C41      1.0000 0.42767  0.77807  0.40760  Biso   1.000  C
  O8       1.0000 0.42656  0.78558  0.37002  Biso   1.000  O
  O9       1.0000 0.42206  0.74503  0.42260  Biso   1.000  O
  C42      1.0000 0.38030  0.80610  0.48220  Biso   1.000  C
  Cu4      1.0000 0.93630  0.34148  0.85684  Biso   1.000  Cu
  O10      1.0000 0.93566  0.39951  0.85236  Biso   1.000  O
  C43      1.0000 0.97011  0.41768  0.86182  Biso   1.000  C
  C44      1.0000 0.98896  0.44311  0.83514  Biso   1.000  C
  H46      1.0000 0.97750  0.44810  0.81010  Biso   1.000  H
  C45      1.0000 0.02435  0.46089  0.84547  Biso   1.000  C
  H47      1.0000 0.03710  0.47810  0.82740  Biso   1.000  H
  C46      1.0000 0.04134  0.45362  0.88236  Biso   1.000  C
  H48      1.0000 0.06560  0.46590  0.88940  Biso   1.000  H
  C47      1.0000 0.02249  0.42820  0.90892  Biso   1.000  C
  H49      1.0000 0.03410  0.42330  0.93390  Biso   1.000  H
  C48      1.0000 0.98700  0.40999  0.89926  Biso   1.000  C
  C49      1.0000 0.96529  0.38340  0.92819  Biso   1.000  C
  H50      1.0000 0.98060  0.38150  0.95300  Biso   1.000  H
  H51      1.0000 0.93930  0.39520  0.93460  Biso   1.000  H
  N4       1.0000 0.95924  0.34272  0.91146  Biso   1.000  N
  H52      1.0000 0.98090  0.33250  0.90860  Biso   1.000  H
  C50      1.0000 0.93494  0.31390  0.93495  Biso   1.000  C
  C51      1.0000 0.95372  0.30232  0.97508  Biso   1.000  C
  H53      1.0000 0.96720  0.27650  0.97300  Biso   1.000  H
  H54      1.0000 0.97330  0.32240  0.98340  Biso   1.000  H
  C52      1.0000 0.92020  0.30010  0.00460  Biso   1.000  C
  H55      1.0000 0.92970  0.30400  0.03200  Biso   1.000  H
  H56      1.0000 0.90600  0.27460  0.00280  Biso   1.000  H
  C53      1.0000 0.89340  0.33540  0.99060  Biso   1.000  C
  H57      1.0000 0.86650  0.33320  0.00170  Biso   1.000  H
  H58      1.0000 0.90490  0.36100  0.99860  Biso   1.000  H
  C54      1.0000 0.89297  0.33107  0.94571  Biso   1.000  C
  H59      1.0000 0.88880  0.35700  0.93280  Biso   1.000  H
  H60      1.0000 0.87180  0.31280  0.93730  Biso   1.000  H
  C55      1.0000 0.92767  0.27807  0.90760  Biso   1.000  C
  O11      1.0000 0.92656  0.28558  0.87002  Biso   1.000  O
  O12      1.0000 0.92206  0.24503  0.92260  Biso   1.000  O
  C56      1.0000 0.88030  0.30610  0.98220  Biso   1.000  C
  Cu5      1.0000 0.93630  0.65852  0.64316  Biso   1.000  Cu
  O13      1.0000 0.93566  0.60049  0.64764  Biso   1.000  O
  C57      1.0000 0.97011  0.58232  0.63818  Biso   1.000  C
  C58      1.0000 0.98896  0.55689  0.66486  Biso   1.000  C
  H61      1.0000 0.97750  0.55190  0.68990  Biso   1.000  H
  C59      1.0000 0.02435  0.53911  0.65453  Biso   1.000  C
  H62      1.0000 0.03710  0.52190  0.67260  Biso   1.000  H
  C60      1.0000 0.04134  0.54638  0.61764  Biso   1.000  C
  H63      1.0000 0.06560  0.53410  0.61060  Biso   1.000  H
  C61      1.0000 0.02249  0.57180  0.59108  Biso   1.000  C
  H64      1.0000 0.03410  0.57670  0.56610  Biso   1.000  H
  C62      1.0000 0.98700  0.59001  0.60074  Biso   1.000  C
  C63      1.0000 0.96529  0.61660  0.57181  Biso   1.000  C
  H65      1.0000 0.98060  0.61850  0.54700  Biso   1.000  H
  H66      1.0000 0.93930  0.60480  0.56540  Biso   1.000  H
  N5       1.0000 0.95924  0.65728  0.58854  Biso   1.000  N
  H67      1.0000 0.98090  0.66750  0.59140  Biso   1.000  H
  C64      1.0000 0.93494  0.68610  0.56505  Biso   1.000  C
  C65      1.0000 0.95372  0.69768  0.52492  Biso   1.000  C
  H68      1.0000 0.96720  0.72350  0.52700  Biso   1.000  H
  H69      1.0000 0.97330  0.67760  0.51660  Biso   1.000  H
  C66      1.0000 0.92020  0.69990  0.49540  Biso   1.000  C
  H70      1.0000 0.92970  0.69600  0.46800  Biso   1.000  H
  H71      1.0000 0.90600  0.72540  0.49720  Biso   1.000  H
  C67      1.0000 0.89340  0.66460  0.50940  Biso   1.000  C
  H72      1.0000 0.86650  0.66680  0.49830  Biso   1.000  H
  H73      1.0000 0.90490  0.63900  0.50140  Biso   1.000  H
  C68      1.0000 0.89297  0.66893  0.55429  Biso   1.000  C
  H74      1.0000 0.88880  0.64300  0.56720  Biso   1.000  H
  H75      1.0000 0.87180  0.68720  0.56270  Biso   1.000  H
  C69      1.0000 0.92767  0.72193  0.59240  Biso   1.000  C
  O14      1.0000 0.92656  0.71442  0.62998  Biso   1.000  O
  O15      1.0000 0.92206  0.75497  0.57740  Biso   1.000  O
  C70      1.0000 0.88030  0.69390  0.51780  Biso   1.000  C
  Cu6      1.0000 0.43630  0.15852  0.14316  Biso   1.000  Cu
  O16      1.0000 0.43566  0.10049  0.14764  Biso   1.000  O
  C71      1.0000 0.47011  0.08232  0.13818  Biso   1.000  C
  C72      1.0000 0.48896  0.05689  0.16486  Biso   1.000  C
  H76      1.0000 0.47750  0.05190  0.18990  Biso   1.000  H
  C73      1.0000 0.52435  0.03911  0.15453  Biso   1.000  C
  H77      1.0000 0.53710  0.02190  0.17260  Biso   1.000  H
  C74      1.0000 0.54134  0.04638  0.11764  Biso   1.000  C
  H78      1.0000 0.56560  0.03410  0.11060  Biso   1.000  H
  C75      1.0000 0.52249  0.07180  0.09108  Biso   1.000  C
  H79      1.0000 0.53410  0.07670  0.06610  Biso   1.000  H
  C76      1.0000 0.48700  0.09001  0.10074  Biso   1.000  C
  C77      1.0000 0.46529  0.11660  0.07181  Biso   1.000  C
  H80      1.0000 0.48060  0.11850  0.04700  Biso   1.000  H
  H81      1.0000 0.43930  0.10480  0.06540  Biso   1.000  H
  N6       1.0000 0.45924  0.15728  0.08854  Biso   1.000  N
  H82      1.0000 0.48090  0.16750  0.09140  Biso   1.000  H
  C78      1.0000 0.43494  0.18610  0.06505  Biso   1.000  C
  C79      1.0000 0.45372  0.19768  0.02492  Biso   1.000  C
  H83      1.0000 0.46720  0.22350  0.02700  Biso   1.000  H
  H84      1.0000 0.47330  0.17760  0.01660  Biso   1.000  H
  C80      1.0000 0.42020  0.19990  0.99540  Biso   1.000  C
  H85      1.0000 0.42970  0.19600  0.96800  Biso   1.000  H
  H86      1.0000 0.40600  0.22540  0.99720  Biso   1.000  H
  C81      1.0000 0.39340  0.16460  0.00940  Biso   1.000  C
  H87      1.0000 0.36650  0.16680  0.99830  Biso   1.000  H
  H88      1.0000 0.40490  0.13900  0.00140  Biso   1.000  H
  C82      1.0000 0.39297  0.16893  0.05429  Biso   1.000  C
  H89      1.0000 0.38880  0.14300  0.06720  Biso   1.000  H
  H90      1.0000 0.37180  0.18720  0.06270  Biso   1.000  H
  C83      1.0000 0.42767  0.22193  0.09240  Biso   1.000  C
  O17      1.0000 0.42656  0.21442  0.12998  Biso   1.000  O
  O18      1.0000 0.42206  0.25497  0.07740  Biso   1.000  O
  C84      1.0000 0.38030  0.19390  0.01780  Biso   1.000  C
  Cu7      1.0000 0.56370  0.34148  0.14316  Biso   1.000  Cu
  O19      1.0000 0.56434  0.39951  0.14764  Biso   1.000  O
  C85      1.0000 0.52989  0.41768  0.13818  Biso   1.000  C
  C86      1.0000 0.51104  0.44311  0.16486  Biso   1.000  C
  H91      1.0000 0.52250  0.44810  0.18990  Biso   1.000  H
  C87      1.0000 0.47565  0.46089  0.15453  Biso   1.000  C
  H92      1.0000 0.46290  0.47810  0.17260  Biso   1.000  H
  C88      1.0000 0.45866  0.45362  0.11764  Biso   1.000  C
  H93      1.0000 0.43440  0.46590  0.11060  Biso   1.000  H
  C89      1.0000 0.47751  0.42820  0.09108  Biso   1.000  C
  H94      1.0000 0.46590  0.42330  0.06610  Biso   1.000  H
  C90      1.0000 0.51300  0.40999  0.10074  Biso   1.000  C
  C91      1.0000 0.53471  0.38340  0.07181  Biso   1.000  C
  H95      1.0000 0.51940  0.38150  0.04700  Biso   1.000  H
  H96      1.0000 0.56070  0.39520  0.06540  Biso   1.000  H
  N7       1.0000 0.54076  0.34272  0.08854  Biso   1.000  N
  H97      1.0000 0.51910  0.33250  0.09140  Biso   1.000  H
  C92      1.0000 0.56506  0.31390  0.06505  Biso   1.000  C
  C93      1.0000 0.54628  0.30232  0.02492  Biso   1.000  C
  H98      1.0000 0.53280  0.27650  0.02700  Biso   1.000  H
  H99      1.0000 0.52670  0.32240  0.01660  Biso   1.000  H
  C94      1.0000 0.57980  0.30010  0.99540  Biso   1.000  C
  H100     1.0000 0.57030  0.30400  0.96800  Biso   1.000  H
  H101     1.0000 0.59400  0.27460  0.99720  Biso   1.000  H
  C95      1.0000 0.60660  0.33540  0.00940  Biso   1.000  C
  H102     1.0000 0.63350  0.33320  0.99830  Biso   1.000  H
  H103     1.0000 0.59510  0.36100  0.00140  Biso   1.000  H
  C96      1.0000 0.60703  0.33107  0.05429  Biso   1.000  C
  H104     1.0000 0.61120  0.35700  0.06720  Biso   1.000  H
  H105     1.0000 0.62820  0.31280  0.06270  Biso   1.000  H
  C97      1.0000 0.57233  0.27807  0.09240  Biso   1.000  C
  O20      1.0000 0.57344  0.28558  0.12998  Biso   1.000  O
  O21      1.0000 0.57794  0.24503  0.07740  Biso   1.000  O
  C98      1.0000 0.61970  0.30610  0.01780  Biso   1.000  C
  Cu8      1.0000 0.06370  0.84148  0.64316  Biso   1.000  Cu
  O22      1.0000 0.06434  0.89951  0.64764  Biso   1.000  O
  C99      1.0000 0.02989  0.91768  0.63818  Biso   1.000  C
  C100     1.0000 0.01104  0.94311  0.66486  Biso   1.000  C
  H106     1.0000 0.02250  0.94810  0.68990  Biso   1.000  H
  C101     1.0000 0.97565  0.96089  0.65453  Biso   1.000  C
  H107     1.0000 0.96290  0.97810  0.67260  Biso   1.000  H
  C102     1.0000 0.95866  0.95362  0.61764  Biso   1.000  C
  H108     1.0000 0.93440  0.96590  0.61060  Biso   1.000  H
  C103     1.0000 0.97751  0.92820  0.59108  Biso   1.000  C
  H109     1.0000 0.96590  0.92330  0.56610  Biso   1.000  H
  C104     1.0000 0.01300  0.90999  0.60074  Biso   1.000  C
  C105     1.0000 0.03471  0.88340  0.57181  Biso   1.000  C
  H110     1.0000 0.01940  0.88150  0.54700  Biso   1.000  H
  H111     1.0000 0.06070  0.89520  0.56540  Biso   1.000  H
  N8       1.0000 0.04076  0.84272  0.58854  Biso   1.000  N
  H112     1.0000 0.01910  0.83250  0.59140  Biso   1.000  H
  C106     1.0000 0.06506  0.81390  0.56505  Biso   1.000  C
  C107     1.0000 0.04628  0.80232  0.52492  Biso   1.000  C
  H113     1.0000 0.03280  0.77650  0.52700  Biso   1.000  H
  H114     1.0000 0.02670  0.82240  0.51660  Biso   1.000  H
  C108     1.0000 0.07980  0.80010  0.49540  Biso   1.000  C
  H115     1.0000 0.07030  0.80400  0.46800  Biso   1.000  H
  H116     1.0000 0.09400  0.77460  0.49720  Biso   1.000  H
  C109     1.0000 0.10660  0.83540  0.50940  Biso   1.000  C
  H117     1.0000 0.13350  0.83320  0.49830  Biso   1.000  H
  H118     1.0000 0.09510  0.86100  0.50140  Biso   1.000  H
  C110     1.0000 0.10703  0.83107  0.55429  Biso   1.000  C
  H119     1.0000 0.11120  0.85700  0.56720  Biso   1.000  H
  H120     1.0000 0.12820  0.81280  0.56270  Biso   1.000  H
  C111     1.0000 0.07233  0.77807  0.59240  Biso   1.000  C
  O23      1.0000 0.07344  0.78558  0.62998  Biso   1.000  O
  O24      1.0000 0.07794  0.74503  0.57740  Biso   1.000  O
  C112     1.0000 0.11970  0.80610  0.51780  Biso   1.000  C
  Cu9      1.0000 0.85684  0.06370  0.15852  Biso   1.000  Cu
  O25      1.0000 0.85236  0.06434  0.10049  Biso   1.000  O
  C113     1.0000 0.86182  0.02989  0.08232  Biso   1.000  C
  C114     1.0000 0.83514  0.01104  0.05689  Biso   1.000  C
  H121     1.0000 0.81010  0.02250  0.05190  Biso   1.000  H
  C115     1.0000 0.84547  0.97565  0.03911  Biso   1.000  C
  H122     1.0000 0.82740  0.96290  0.02190  Biso   1.000  H
  C116     1.0000 0.88236  0.95866  0.04638  Biso   1.000  C
  H123     1.0000 0.88940  0.93440  0.03410  Biso   1.000  H
  C117     1.0000 0.90892  0.97751  0.07180  Biso   1.000  C
  H124     1.0000 0.93390  0.96590  0.07670  Biso   1.000  H
  C118     1.0000 0.89926  0.01300  0.09001  Biso   1.000  C
  C119     1.0000 0.92819  0.03471  0.11660  Biso   1.000  C
  H125     1.0000 0.95300  0.01940  0.11850  Biso   1.000  H
  H126     1.0000 0.93460  0.06070  0.10480  Biso   1.000  H
  N9       1.0000 0.91146  0.04076  0.15728  Biso   1.000  N
  H127     1.0000 0.90860  0.01910  0.16750  Biso   1.000  H
  C120     1.0000 0.93495  0.06506  0.18610  Biso   1.000  C
  C121     1.0000 0.97508  0.04628  0.19768  Biso   1.000  C
  H128     1.0000 0.97300  0.03280  0.22350  Biso   1.000  H
  H129     1.0000 0.98340  0.02670  0.17760  Biso   1.000  H
  C122     1.0000 0.00460  0.07980  0.19990  Biso   1.000  C
  H130     1.0000 0.03200  0.07030  0.19600  Biso   1.000  H
  H131     1.0000 0.00280  0.09400  0.22540  Biso   1.000  H
  C123     1.0000 0.99060  0.10660  0.16460  Biso   1.000  C
  H132     1.0000 0.00170  0.13350  0.16680  Biso   1.000  H
  H133     1.0000 0.99860  0.09510  0.13900  Biso   1.000  H
  C124     1.0000 0.94571  0.10703  0.16893  Biso   1.000  C
  H134     1.0000 0.93280  0.11120  0.14300  Biso   1.000  H
  H135     1.0000 0.93730  0.12820  0.18720  Biso   1.000  H
  C125     1.0000 0.90760  0.07233  0.22193  Biso   1.000  C
  O26      1.0000 0.87002  0.07344  0.21442  Biso   1.000  O
  O27      1.0000 0.92260  0.07794  0.25497  Biso   1.000  O
  C126     1.0000 0.98220  0.11970  0.19390  Biso   1.000  C
  Cu10     1.0000 0.35684  0.56370  0.65852  Biso   1.000  Cu
  O28      1.0000 0.35236  0.56434  0.60049  Biso   1.000  O
  C127     1.0000 0.36182  0.52989  0.58232  Biso   1.000  C
  C128     1.0000 0.33514  0.51104  0.55689  Biso   1.000  C
  H136     1.0000 0.31010  0.52250  0.55190  Biso   1.000  H
  C129     1.0000 0.34547  0.47565  0.53911  Biso   1.000  C
  H137     1.0000 0.32740  0.46290  0.52190  Biso   1.000  H
  C130     1.0000 0.38236  0.45866  0.54638  Biso   1.000  C
  H138     1.0000 0.38940  0.43440  0.53410  Biso   1.000  H
  C131     1.0000 0.40892  0.47751  0.57180  Biso   1.000  C
  H139     1.0000 0.43390  0.46590  0.57670  Biso   1.000  H
  C132     1.0000 0.39926  0.51300  0.59001  Biso   1.000  C
  C133     1.0000 0.42819  0.53471  0.61660  Biso   1.000  C
  H140     1.0000 0.45300  0.51940  0.61850  Biso   1.000  H
  H141     1.0000 0.43460  0.56070  0.60480  Biso   1.000  H
  N10      1.0000 0.41146  0.54076  0.65728  Biso   1.000  N
  H142     1.0000 0.40860  0.51910  0.66750  Biso   1.000  H
  C134     1.0000 0.43495  0.56506  0.68610  Biso   1.000  C
  C135     1.0000 0.47508  0.54628  0.69768  Biso   1.000  C
  H143     1.0000 0.47300  0.53280  0.72350  Biso   1.000  H
  H144     1.0000 0.48340  0.52670  0.67760  Biso   1.000  H
  C136     1.0000 0.50460  0.57980  0.69990  Biso   1.000  C
  H145     1.0000 0.53200  0.57030  0.69600  Biso   1.000  H
  H146     1.0000 0.50280  0.59400  0.72540  Biso   1.000  H
  C137     1.0000 0.49060  0.60660  0.66460  Biso   1.000  C
  H147     1.0000 0.50170  0.63350  0.66680  Biso   1.000  H
  H148     1.0000 0.49860  0.59510  0.63900  Biso   1.000  H
  C138     1.0000 0.44571  0.60703  0.66893  Biso   1.000  C
  H149     1.0000 0.43280  0.61120  0.64300  Biso   1.000  H
  H150     1.0000 0.43730  0.62820  0.68720  Biso   1.000  H
  C139     1.0000 0.40760  0.57233  0.72193  Biso   1.000  C
  O29      1.0000 0.37002  0.57344  0.71442  Biso   1.000  O
  O30      1.0000 0.42260  0.57794  0.75497  Biso   1.000  O
  C140     1.0000 0.48220  0.61970  0.69390  Biso   1.000  C
  Cu11     1.0000 0.35684  0.43630  0.84148  Biso   1.000  Cu
  O31      1.0000 0.35236  0.43566  0.89951  Biso   1.000  O
  C141     1.0000 0.36182  0.47011  0.91768  Biso   1.000  C
  C142     1.0000 0.33514  0.48896  0.94311  Biso   1.000  C
  H151     1.0000 0.31010  0.47750  0.94810  Biso   1.000  H
  C143     1.0000 0.34547  0.52435  0.96089  Biso   1.000  C
  H152     1.0000 0.32740  0.53710  0.97810  Biso   1.000  H
  C144     1.0000 0.38236  0.54134  0.95362  Biso   1.000  C
  H153     1.0000 0.38940  0.56560  0.96590  Biso   1.000  H
  C145     1.0000 0.40892  0.52249  0.92820  Biso   1.000  C
  H154     1.0000 0.43390  0.53410  0.92330  Biso   1.000  H
  C146     1.0000 0.39926  0.48700  0.90999  Biso   1.000  C
  C147     1.0000 0.42819  0.46529  0.88340  Biso   1.000  C
  H155     1.0000 0.45300  0.48060  0.88150  Biso   1.000  H
  H156     1.0000 0.43460  0.43930  0.89520  Biso   1.000  H
  N11      1.0000 0.41146  0.45924  0.84272  Biso   1.000  N
  H157     1.0000 0.40860  0.48090  0.83250  Biso   1.000  H
  C148     1.0000 0.43495  0.43494  0.81390  Biso   1.000  C
  C149     1.0000 0.47508  0.45372  0.80232  Biso   1.000  C
  H158     1.0000 0.47300  0.46720  0.77650  Biso   1.000  H
  H159     1.0000 0.48340  0.47330  0.82240  Biso   1.000  H
  C150     1.0000 0.50460  0.42020  0.80010  Biso   1.000  C
  H160     1.0000 0.53200  0.42970  0.80400  Biso   1.000  H
  H161     1.0000 0.50280  0.40600  0.77460  Biso   1.000  H
  C151     1.0000 0.49060  0.39340  0.83540  Biso   1.000  C
  H162     1.0000 0.50170  0.36650  0.83320  Biso   1.000  H
  H163     1.0000 0.49860  0.40490  0.86100  Biso   1.000  H
  C152     1.0000 0.44571  0.39297  0.83107  Biso   1.000  C
  H164     1.0000 0.43280  0.38880  0.85700  Biso   1.000  H
  H165     1.0000 0.43730  0.37180  0.81280  Biso   1.000  H
  C153     1.0000 0.40760  0.42767  0.77807  Biso   1.000  C
  O32      1.0000 0.37002  0.42656  0.78558  Biso   1.000  O
  O33      1.0000 0.42260  0.42206  0.74503  Biso   1.000  O
  C154     1.0000 0.48220  0.38030  0.80610  Biso   1.000  C
  Cu12     1.0000 0.85684  0.93630  0.34148  Biso   1.000  Cu
  O34      1.0000 0.85236  0.93566  0.39951  Biso   1.000  O
  C155     1.0000 0.86182  0.97011  0.41768  Biso   1.000  C
  C156     1.0000 0.83514  0.98896  0.44311  Biso   1.000  C
  H166     1.0000 0.81010  0.97750  0.44810  Biso   1.000  H
  C157     1.0000 0.84547  0.02435  0.46089  Biso   1.000  C
  H167     1.0000 0.82740  0.03710  0.47810  Biso   1.000  H
  C158     1.0000 0.88236  0.04134  0.45362  Biso   1.000  C
  H168     1.0000 0.88940  0.06560  0.46590  Biso   1.000  H
  C159     1.0000 0.90892  0.02249  0.42820  Biso   1.000  C
  H169     1.0000 0.93390  0.03410  0.42330  Biso   1.000  H
  C160     1.0000 0.89926  0.98700  0.40999  Biso   1.000  C
  C161     1.0000 0.92819  0.96529  0.38340  Biso   1.000  C
  H170     1.0000 0.95300  0.98060  0.38150  Biso   1.000  H
  H171     1.0000 0.93460  0.93930  0.39520  Biso   1.000  H
  N12      1.0000 0.91146  0.95924  0.34272  Biso   1.000  N
  H172     1.0000 0.90860  0.98090  0.33250  Biso   1.000  H
  C162     1.0000 0.93495  0.93494  0.31390  Biso   1.000  C
  C163     1.0000 0.97508  0.95372  0.30232  Biso   1.000  C
  H173     1.0000 0.97300  0.96720  0.27650  Biso   1.000  H
  H174     1.0000 0.98340  0.97330  0.32240  Biso   1.000  H
  C164     1.0000 0.00460  0.92020  0.30010  Biso   1.000  C
  H175     1.0000 0.03200  0.92970  0.30400  Biso   1.000  H
  H176     1.0000 0.00280  0.90600  0.27460  Biso   1.000  H
  C165     1.0000 0.99060  0.89340  0.33540  Biso   1.000  C
  H177     1.0000 0.00170  0.86650  0.33320  Biso   1.000  H
  H178     1.0000 0.99860  0.90490  0.36100  Biso   1.000  H
  C166     1.0000 0.94571  0.89297  0.33107  Biso   1.000  C
  H179     1.0000 0.93280  0.88880  0.35700  Biso   1.000  H
  H180     1.0000 0.93730  0.87180  0.31280  Biso   1.000  H
  C167     1.0000 0.90760  0.92767  0.27807  Biso   1.000  C
  O35      1.0000 0.87002  0.92656  0.28558  Biso   1.000  O
  O36      1.0000 0.92260  0.92206  0.24503  Biso   1.000  O
  C168     1.0000 0.98220  0.88030  0.30610  Biso   1.000  C
  Cu13     1.0000 0.64316  0.93630  0.65852  Biso   1.000  Cu
  O37      1.0000 0.64764  0.93566  0.60049  Biso   1.000  O
  C169     1.0000 0.63818  0.97011  0.58232  Biso   1.000  C
  C170     1.0000 0.66486  0.98896  0.55689  Biso   1.000  C
  H181     1.0000 0.68990  0.97750  0.55190  Biso   1.000  H
  C171     1.0000 0.65453  0.02435  0.53911  Biso   1.000  C
  H182     1.0000 0.67260  0.03710  0.52190  Biso   1.000  H
  C172     1.0000 0.61764  0.04134  0.54638  Biso   1.000  C
  H183     1.0000 0.61060  0.06560  0.53410  Biso   1.000  H
  C173     1.0000 0.59108  0.02249  0.57180  Biso   1.000  C
  H184     1.0000 0.56610  0.03410  0.57670  Biso   1.000  H
  C174     1.0000 0.60074  0.98700  0.59001  Biso   1.000  C
  C175     1.0000 0.57181  0.96529  0.61660  Biso   1.000  C
  H185     1.0000 0.54700  0.98060  0.61850  Biso   1.000  H
  H186     1.0000 0.56540  0.93930  0.60480  Biso   1.000  H
  N13      1.0000 0.58854  0.95924  0.65728  Biso   1.000  N
  H187     1.0000 0.59140  0.98090  0.66750  Biso   1.000  H
  C176     1.0000 0.56505  0.93494  0.68610  Biso   1.000  C
  C177     1.0000 0.52492  0.95372  0.69768  Biso   1.000  C
  H188     1.0000 0.52700  0.96720  0.72350  Biso   1.000  H
  H189     1.0000 0.51660  0.97330  0.67760  Biso   1.000  H
  C178     1.0000 0.49540  0.92020  0.69990  Biso   1.000  C
  H190     1.0000 0.46800  0.92970  0.69600  Biso   1.000  H
  H191     1.0000 0.49720  0.90600  0.72540  Biso   1.000  H
  C179     1.0000 0.50940  0.89340  0.66460  Biso   1.000  C
  H192     1.0000 0.49830  0.86650  0.66680  Biso   1.000  H
  H193     1.0000 0.50140  0.90490  0.63900  Biso   1.000  H
  C180     1.0000 0.55429  0.89297  0.66893  Biso   1.000  C
  H194     1.0000 0.56720  0.88880  0.64300  Biso   1.000  H
  H195     1.0000 0.56270  0.87180  0.68720  Biso   1.000  H
  C181     1.0000 0.59240  0.92767  0.72193  Biso   1.000  C
  O38      1.0000 0.62998  0.92656  0.71442  Biso   1.000  O
  O39      1.0000 0.57740  0.92206  0.75497  Biso   1.000  O
  C182     1.0000 0.51780  0.88030  0.69390  Biso   1.000  C
  Cu14     1.0000 0.14316  0.43630  0.15852  Biso   1.000  Cu
  O40      1.0000 0.14764  0.43566  0.10049  Biso   1.000  O
  C183     1.0000 0.13818  0.47011  0.08232  Biso   1.000  C
  C184     1.0000 0.16486  0.48896  0.05689  Biso   1.000  C
  H196     1.0000 0.18990  0.47750  0.05190  Biso   1.000  H
  C185     1.0000 0.15453  0.52435  0.03911  Biso   1.000  C
  H197     1.0000 0.17260  0.53710  0.02190  Biso   1.000  H
  C186     1.0000 0.11764  0.54134  0.04638  Biso   1.000  C
  H198     1.0000 0.11060  0.56560  0.03410  Biso   1.000  H
  C187     1.0000 0.09108  0.52249  0.07180  Biso   1.000  C
  H199     1.0000 0.06610  0.53410  0.07670  Biso   1.000  H
  C188     1.0000 0.10074  0.48700  0.09001  Biso   1.000  C
  C189     1.0000 0.07181  0.46529  0.11660  Biso   1.000  C
  H200     1.0000 0.04700  0.48060  0.11850  Biso   1.000  H
  H201     1.0000 0.06540  0.43930  0.10480  Biso   1.000  H
  N14      1.0000 0.08854  0.45924  0.15728  Biso   1.000  N
  H202     1.0000 0.09140  0.48090  0.16750  Biso   1.000  H
  C190     1.0000 0.06505  0.43494  0.18610  Biso   1.000  C
  C191     1.0000 0.02492  0.45372  0.19768  Biso   1.000  C
  H203     1.0000 0.02700  0.46720  0.22350  Biso   1.000  H
  H204     1.0000 0.01660  0.47330  0.17760  Biso   1.000  H
  C192     1.0000 0.99540  0.42020  0.19990  Biso   1.000  C
  H205     1.0000 0.96800  0.42970  0.19600  Biso   1.000  H
  H206     1.0000 0.99720  0.40600  0.22540  Biso   1.000  H
  C193     1.0000 0.00940  0.39340  0.16460  Biso   1.000  C
  H207     1.0000 0.99830  0.36650  0.16680  Biso   1.000  H
  H208     1.0000 0.00140  0.40490  0.13900  Biso   1.000  H
  C194     1.0000 0.05429  0.39297  0.16893  Biso   1.000  C
  H209     1.0000 0.06720  0.38880  0.14300  Biso   1.000  H
  H210     1.0000 0.06270  0.37180  0.18720  Biso   1.000  H
  C195     1.0000 0.09240  0.42767  0.22193  Biso   1.000  C
  O41      1.0000 0.12998  0.42656  0.21442  Biso   1.000  O
  O42      1.0000 0.07740  0.42206  0.25497  Biso   1.000  O
  C196     1.0000 0.01780  0.38030  0.19390  Biso   1.000  C
  Cu15     1.0000 0.14316  0.56370  0.34148  Biso   1.000  Cu
  O43      1.0000 0.14764  0.56434  0.39951  Biso   1.000  O
  C197     1.0000 0.13818  0.52989  0.41768  Biso   1.000  C
  C198     1.0000 0.16486  0.51104  0.44311  Biso   1.000  C
  H211     1.0000 0.18990  0.52250  0.44810  Biso   1.000  H
  C199     1.0000 0.15453  0.47565  0.46089  Biso   1.000  C
  H212     1.0000 0.17260  0.46290  0.47810  Biso   1.000  H
  C200     1.0000 0.11764  0.45866  0.45362  Biso   1.000  C
  H213     1.0000 0.11060  0.43440  0.46590  Biso   1.000  H
  C201     1.0000 0.09108  0.47751  0.42820  Biso   1.000  C
  H214     1.0000 0.06610  0.46590  0.42330  Biso   1.000  H
  C202     1.0000 0.10074  0.51300  0.40999  Biso   1.000  C
  C203     1.0000 0.07181  0.53471  0.38340  Biso   1.000  C
  H215     1.0000 0.04700  0.51940  0.38150  Biso   1.000  H
  H216     1.0000 0.06540  0.56070  0.39520  Biso   1.000  H
  N15      1.0000 0.08854  0.54076  0.34272  Biso   1.000  N
  H217     1.0000 0.09140  0.51910  0.33250  Biso   1.000  H
  C204     1.0000 0.06505  0.56506  0.31390  Biso   1.000  C
  C205     1.0000 0.02492  0.54628  0.30232  Biso   1.000  C
  H218     1.0000 0.02700  0.53280  0.27650  Biso   1.000  H
  H219     1.0000 0.01660  0.52670  0.32240  Biso   1.000  H
  C206     1.0000 0.99540  0.57980  0.30010  Biso   1.000  C
  H220     1.0000 0.96800  0.57030  0.30400  Biso   1.000  H
  H221     1.0000 0.99720  0.59400  0.27460  Biso   1.000  H
  C207     1.0000 0.00940  0.60660  0.33540  Biso   1.000  C
  H222     1.0000 0.99830  0.63350  0.33320  Biso   1.000  H
  H223     1.0000 0.00140  0.59510  0.36100  Biso   1.000  H
  C208     1.0000 0.05429  0.60703  0.33107  Biso   1.000  C
  H224     1.0000 0.06720  0.61120  0.35700  Biso   1.000  H
  H225     1.0000 0.06270  0.62820  0.31280  Biso   1.000  H
  C209     1.0000 0.09240  0.57233  0.27807  Biso   1.000  C
  O44      1.0000 0.12998  0.57344  0.28558  Biso   1.000  O
  O45      1.0000 0.07740  0.57794  0.24503  Biso   1.000  O
  C210     1.0000 0.01780  0.61970  0.30610  Biso   1.000  C
  Cu16     1.0000 0.64316  0.06370  0.84148  Biso   1.000  Cu
  O46      1.0000 0.64764  0.06434  0.89951  Biso   1.000  O
  C211     1.0000 0.63818  0.02989  0.91768  Biso   1.000  C
  C212     1.0000 0.66486  0.01104  0.94311  Biso   1.000  C
  H226     1.0000 0.68990  0.02250  0.94810  Biso   1.000  H
  C213     1.0000 0.65453  0.97565  0.96089  Biso   1.000  C
  H227     1.0000 0.67260  0.96290  0.97810  Biso   1.000  H
  C214     1.0000 0.61764  0.95866  0.95362  Biso   1.000  C
  H228     1.0000 0.61060  0.93440  0.96590  Biso   1.000  H
  C215     1.0000 0.59108  0.97751  0.92820  Biso   1.000  C
  H229     1.0000 0.56610  0.96590  0.92330  Biso   1.000  H
  C216     1.0000 0.60074  0.01300  0.90999  Biso   1.000  C
  C217     1.0000 0.57181  0.03471  0.88340  Biso   1.000  C
  H230     1.0000 0.54700  0.01940  0.88150  Biso   1.000  H
  H231     1.0000 0.56540  0.06070  0.89520  Biso   1.000  H
  N16      1.0000 0.58854  0.04076  0.84272  Biso   1.000  N
  H232     1.0000 0.59140  0.01910  0.83250  Biso   1.000  H
  C218     1.0000 0.56505  0.06506  0.81390  Biso   1.000  C
  C219     1.0000 0.52492  0.04628  0.80232  Biso   1.000  C
  H233     1.0000 0.52700  0.03280  0.77650  Biso   1.000  H
  H234     1.0000 0.51660  0.02670  0.82240  Biso   1.000  H
  C220     1.0000 0.49540  0.07980  0.80010  Biso   1.000  C
  H235     1.0000 0.46800  0.07030  0.80400  Biso   1.000  H
  H236     1.0000 0.49720  0.09400  0.77460  Biso   1.000  H
  C221     1.0000 0.50940  0.10660  0.83540  Biso   1.000  C
  H237     1.0000 0.49830  0.13350  0.83320  Biso   1.000  H
  H238     1.0000 0.50140  0.09510  0.86100  Biso   1.000  H
  C222     1.0000 0.55429  0.10703  0.83107  Biso   1.000  C
  H239     1.0000 0.56720  0.11120  0.85700  Biso   1.000  H
  H240     1.0000 0.56270  0.12820  0.81280  Biso   1.000  H
  C223     1.0000 0.59240  0.07233  0.77807  Biso   1.000  C
  O47      1.0000 0.62998  0.07344  0.78558  Biso   1.000  O
  O48      1.0000 0.57740  0.07794  0.74503  Biso   1.000  O
  C224     1.0000 0.51780  0.11970  0.80610  Biso   1.000  C
  Cu17     1.0000 0.15852  0.85684  0.06370  Biso   1.000  Cu
  O49      1.0000 0.10049  0.85236  0.06434  Biso   1.000  O
  C225     1.0000 0.08232  0.86182  0.02989  Biso   1.000  C
  C226     1.0000 0.05689  0.83514  0.01104  Biso   1.000  C
  H241     1.0000 0.05190  0.81010  0.02250  Biso   1.000  H
  C227     1.0000 0.03911  0.84547  0.97565  Biso   1.000  C
  H242     1.0000 0.02190  0.82740  0.96290  Biso   1.000  H
  C228     1.0000 0.04638  0.88236  0.95866  Biso   1.000  C
  H243     1.0000 0.03410  0.88940  0.93440  Biso   1.000  H
  C229     1.0000 0.07180  0.90892  0.97751  Biso   1.000  C
  H244     1.0000 0.07670  0.93390  0.96590  Biso   1.000  H
  C230     1.0000 0.09001  0.89926  0.01300  Biso   1.000  C
  C231     1.0000 0.11660  0.92819  0.03471  Biso   1.000  C
  H245     1.0000 0.11850  0.95300  0.01940  Biso   1.000  H
  H246     1.0000 0.10480  0.93460  0.06070  Biso   1.000  H
  N17      1.0000 0.15728  0.91146  0.04076  Biso   1.000  N
  H247     1.0000 0.16750  0.90860  0.01910  Biso   1.000  H
  C232     1.0000 0.18610  0.93495  0.06506  Biso   1.000  C
  C233     1.0000 0.19768  0.97508  0.04628  Biso   1.000  C
  H248     1.0000 0.22350  0.97300  0.03280  Biso   1.000  H
  H249     1.0000 0.17760  0.98340  0.02670  Biso   1.000  H
  C234     1.0000 0.19990  0.00460  0.07980  Biso   1.000  C
  H250     1.0000 0.19600  0.03200  0.07030  Biso   1.000  H
  H251     1.0000 0.22540  0.00280  0.09400  Biso   1.000  H
  C235     1.0000 0.16460  0.99060  0.10660  Biso   1.000  C
  H252     1.0000 0.16680  0.00170  0.13350  Biso   1.000  H
  H253     1.0000 0.13900  0.99860  0.09510  Biso   1.000  H
  C236     1.0000 0.16893  0.94571  0.10703  Biso   1.000  C
  H254     1.0000 0.14300  0.93280  0.11120  Biso   1.000  H
  H255     1.0000 0.18720  0.93730  0.12820  Biso   1.000  H
  C237     1.0000 0.22193  0.90760  0.07233  Biso   1.000  C
  O50      1.0000 0.21442  0.87002  0.07344  Biso   1.000  O
  O51      1.0000 0.25497  0.92260  0.07794  Biso   1.000  O
  C238     1.0000 0.19390  0.98220  0.11970  Biso   1.000  C
  Cu18     1.0000 0.65852  0.35684  0.56370  Biso   1.000  Cu
  O52      1.0000 0.60049  0.35236  0.56434  Biso   1.000  O
  C239     1.0000 0.58232  0.36182  0.52989  Biso   1.000  C
  C240     1.0000 0.55689  0.33514  0.51104  Biso   1.000  C
  H256     1.0000 0.55190  0.31010  0.52250  Biso   1.000  H
  C241     1.0000 0.53911  0.34547  0.47565  Biso   1.000  C
  H257     1.0000 0.52190  0.32740  0.46290  Biso   1.000  H
  C242     1.0000 0.54638  0.38236  0.45866  Biso   1.000  C
  H258     1.0000 0.53410  0.38940  0.43440  Biso   1.000  H
  C243     1.0000 0.57180  0.40892  0.47751  Biso   1.000  C
  H259     1.0000 0.57670  0.43390  0.46590  Biso   1.000  H
  C244     1.0000 0.59001  0.39926  0.51300  Biso   1.000  C
  C245     1.0000 0.61660  0.42819  0.53471  Biso   1.000  C
  H260     1.0000 0.61850  0.45300  0.51940  Biso   1.000  H
  H261     1.0000 0.60480  0.43460  0.56070  Biso   1.000  H
  N18      1.0000 0.65728  0.41146  0.54076  Biso   1.000  N
  H262     1.0000 0.66750  0.40860  0.51910  Biso   1.000  H
  C246     1.0000 0.68610  0.43495  0.56506  Biso   1.000  C
  C247     1.0000 0.69768  0.47508  0.54628  Biso   1.000  C
  H263     1.0000 0.72350  0.47300  0.53280  Biso   1.000  H
  H264     1.0000 0.67760  0.48340  0.52670  Biso   1.000  H
  C248     1.0000 0.69990  0.50460  0.57980  Biso   1.000  C
  H265     1.0000 0.69600  0.53200  0.57030  Biso   1.000  H
  H266     1.0000 0.72540  0.50280  0.59400  Biso   1.000  H
  C249     1.0000 0.66460  0.49060  0.60660  Biso   1.000  C
  H267     1.0000 0.66680  0.50170  0.63350  Biso   1.000  H
  H268     1.0000 0.63900  0.49860  0.59510  Biso   1.000  H
  C250     1.0000 0.66893  0.44571  0.60703  Biso   1.000  C
  H269     1.0000 0.64300  0.43280  0.61120  Biso   1.000  H
  H270     1.0000 0.68720  0.43730  0.62820  Biso   1.000  H
  C251     1.0000 0.72193  0.40760  0.57233  Biso   1.000  C
  O53      1.0000 0.71442  0.37002  0.57344  Biso   1.000  O
  O54      1.0000 0.75497  0.42260  0.57794  Biso   1.000  O
  C252     1.0000 0.69390  0.48220  0.61970  Biso   1.000  C
  Cu19     1.0000 0.84148  0.35684  0.43630  Biso   1.000  Cu
  O55      1.0000 0.89951  0.35236  0.43566  Biso   1.000  O
  C253     1.0000 0.91768  0.36182  0.47011  Biso   1.000  C
  C254     1.0000 0.94311  0.33514  0.48896  Biso   1.000  C
  H271     1.0000 0.94810  0.31010  0.47750  Biso   1.000  H
  C255     1.0000 0.96089  0.34547  0.52435  Biso   1.000  C
  H272     1.0000 0.97810  0.32740  0.53710  Biso   1.000  H
  C256     1.0000 0.95362  0.38236  0.54134  Biso   1.000  C
  H273     1.0000 0.96590  0.38940  0.56560  Biso   1.000  H
  C257     1.0000 0.92820  0.40892  0.52249  Biso   1.000  C
  H274     1.0000 0.92330  0.43390  0.53410  Biso   1.000  H
  C258     1.0000 0.90999  0.39926  0.48700  Biso   1.000  C
  C259     1.0000 0.88340  0.42819  0.46529  Biso   1.000  C
  H275     1.0000 0.88150  0.45300  0.48060  Biso   1.000  H
  H276     1.0000 0.89520  0.43460  0.43930  Biso   1.000  H
  N19      1.0000 0.84272  0.41146  0.45924  Biso   1.000  N
  H277     1.0000 0.83250  0.40860  0.48090  Biso   1.000  H
  C260     1.0000 0.81390  0.43495  0.43494  Biso   1.000  C
  C261     1.0000 0.80232  0.47508  0.45372  Biso   1.000  C
  H278     1.0000 0.77650  0.47300  0.46720  Biso   1.000  H
  H279     1.0000 0.82240  0.48340  0.47330  Biso   1.000  H
  C262     1.0000 0.80010  0.50460  0.42020  Biso   1.000  C
  H280     1.0000 0.80400  0.53200  0.42970  Biso   1.000  H
  H281     1.0000 0.77460  0.50280  0.40600  Biso   1.000  H
  C263     1.0000 0.83540  0.49060  0.39340  Biso   1.000  C
  H282     1.0000 0.83320  0.50170  0.36650  Biso   1.000  H
  H283     1.0000 0.86100  0.49860  0.40490  Biso   1.000  H
  C264     1.0000 0.83107  0.44571  0.39297  Biso   1.000  C
  H284     1.0000 0.85700  0.43280  0.38880  Biso   1.000  H
  H285     1.0000 0.81280  0.43730  0.37180  Biso   1.000  H
  C265     1.0000 0.77807  0.40760  0.42767  Biso   1.000  C
  O56      1.0000 0.78558  0.37002  0.42656  Biso   1.000  O
  O57      1.0000 0.74503  0.42260  0.42206  Biso   1.000  O
  C266     1.0000 0.80610  0.48220  0.38030  Biso   1.000  C
  Cu20     1.0000 0.34148  0.85684  0.93630  Biso   1.000  Cu
  O58      1.0000 0.39951  0.85236  0.93566  Biso   1.000  O
  C267     1.0000 0.41768  0.86182  0.97011  Biso   1.000  C
  C268     1.0000 0.44311  0.83514  0.98896  Biso   1.000  C
  H286     1.0000 0.44810  0.81010  0.97750  Biso   1.000  H
  C269     1.0000 0.46089  0.84547  0.02435  Biso   1.000  C
  H287     1.0000 0.47810  0.82740  0.03710  Biso   1.000  H
  C270     1.0000 0.45362  0.88236  0.04134  Biso   1.000  C
  H288     1.0000 0.46590  0.88940  0.06560  Biso   1.000  H
  C271     1.0000 0.42820  0.90892  0.02249  Biso   1.000  C
  H289     1.0000 0.42330  0.93390  0.03410  Biso   1.000  H
  C272     1.0000 0.40999  0.89926  0.98700  Biso   1.000  C
  C273     1.0000 0.38340  0.92819  0.96529  Biso   1.000  C
  H290     1.0000 0.38150  0.95300  0.98060  Biso   1.000  H
  H291     1.0000 0.39520  0.93460  0.93930  Biso   1.000  H
  N20      1.0000 0.34272  0.91146  0.95924  Biso   1.000  N
  H292     1.0000 0.33250  0.90860  0.98090  Biso   1.000  H
  C274     1.0000 0.31390  0.93495  0.93494  Biso   1.000  C
  C275     1.0000 0.30232  0.97508  0.95372  Biso   1.000  C
  H293     1.0000 0.27650  0.97300  0.96720  Biso   1.000  H
  H294     1.0000 0.32240  0.98340  0.97330  Biso   1.000  H
  C276     1.0000 0.30010  0.00460  0.92020  Biso   1.000  C
  H295     1.0000 0.30400  0.03200  0.92970  Biso   1.000  H
  H296     1.0000 0.27460  0.00280  0.90600  Biso   1.000  H
  C277     1.0000 0.33540  0.99060  0.89340  Biso   1.000  C
  H297     1.0000 0.33320  0.00170  0.86650  Biso   1.000  H
  H298     1.0000 0.36100  0.99860  0.90490  Biso   1.000  H
  C278     1.0000 0.33107  0.94571  0.89297  Biso   1.000  C
  H299     1.0000 0.35700  0.93280  0.88880  Biso   1.000  H
  H300     1.0000 0.31280  0.93730  0.87180  Biso   1.000  H
  C279     1.0000 0.27807  0.90760  0.92767  Biso   1.000  C
  O59      1.0000 0.28558  0.87002  0.92656  Biso   1.000  O
  O60      1.0000 0.24503  0.92260  0.92206  Biso   1.000  O
  C280     1.0000 0.30610  0.98220  0.88030  Biso   1.000  C
  Cu21     1.0000 0.65852  0.64316  0.93630  Biso   1.000  Cu
  O61      1.0000 0.60049  0.64764  0.93566  Biso   1.000  O
  C281     1.0000 0.58232  0.63818  0.97011  Biso   1.000  C
  C282     1.0000 0.55689  0.66486  0.98896  Biso   1.000  C
  H301     1.0000 0.55190  0.68990  0.97750  Biso   1.000  H
  C283     1.0000 0.53911  0.65453  0.02435  Biso   1.000  C
  H302     1.0000 0.52190  0.67260  0.03710  Biso   1.000  H
  C284     1.0000 0.54638  0.61764  0.04134  Biso   1.000  C
  H303     1.0000 0.53410  0.61060  0.06560  Biso   1.000  H
  C285     1.0000 0.57180  0.59108  0.02249  Biso   1.000  C
  H304     1.0000 0.57670  0.56610  0.03410  Biso   1.000  H
  C286     1.0000 0.59001  0.60074  0.98700  Biso   1.000  C
  C287     1.0000 0.61660  0.57181  0.96529  Biso   1.000  C
  H305     1.0000 0.61850  0.54700  0.98060  Biso   1.000  H
  H306     1.0000 0.60480  0.56540  0.93930  Biso   1.000  H
  N21      1.0000 0.65728  0.58854  0.95924  Biso   1.000  N
  H307     1.0000 0.66750  0.59140  0.98090  Biso   1.000  H
  C288     1.0000 0.68610  0.56505  0.93494  Biso   1.000  C
  C289     1.0000 0.69768  0.52492  0.95372  Biso   1.000  C
  H308     1.0000 0.72350  0.52700  0.96720  Biso   1.000  H
  H309     1.0000 0.67760  0.51660  0.97330  Biso   1.000  H
  C290     1.0000 0.69990  0.49540  0.92020  Biso   1.000  C
  H310     1.0000 0.69600  0.46800  0.92970  Biso   1.000  H
  H311     1.0000 0.72540  0.49720  0.90600  Biso   1.000  H
  C291     1.0000 0.66460  0.50940  0.89340  Biso   1.000  C
  H312     1.0000 0.66680  0.49830  0.86650  Biso   1.000  H
  H313     1.0000 0.63900  0.50140  0.90490  Biso   1.000  H
  C292     1.0000 0.66893  0.55429  0.89297  Biso   1.000  C
  H314     1.0000 0.64300  0.56720  0.88880  Biso   1.000  H
  H315     1.0000 0.68720  0.56270  0.87180  Biso   1.000  H
  C293     1.0000 0.72193  0.59240  0.92767  Biso   1.000  C
  O62      1.0000 0.71442  0.62998  0.92656  Biso   1.000  O
  O63      1.0000 0.75497  0.57740  0.92206  Biso   1.000  O
  C294     1.0000 0.69390  0.51780  0.88030  Biso   1.000  C
  Cu22     1.0000 0.15852  0.14316  0.43630  Biso   1.000  Cu
  O64      1.0000 0.10049  0.14764  0.43566  Biso   1.000  O
  C295     1.0000 0.08232  0.13818  0.47011  Biso   1.000  C
  C296     1.0000 0.05689  0.16486  0.48896  Biso   1.000  C
  H316     1.0000 0.05190  0.18990  0.47750  Biso   1.000  H
  C297     1.0000 0.03911  0.15453  0.52435  Biso   1.000  C
  H317     1.0000 0.02190  0.17260  0.53710  Biso   1.000  H
  C298     1.0000 0.04638  0.11764  0.54134  Biso   1.000  C
  H318     1.0000 0.03410  0.11060  0.56560  Biso   1.000  H
  C299     1.0000 0.07180  0.09108  0.52249  Biso   1.000  C
  H319     1.0000 0.07670  0.06610  0.53410  Biso   1.000  H
  C300     1.0000 0.09001  0.10074  0.48700  Biso   1.000  C
  C301     1.0000 0.11660  0.07181  0.46529  Biso   1.000  C
  H320     1.0000 0.11850  0.04700  0.48060  Biso   1.000  H
  H321     1.0000 0.10480  0.06540  0.43930  Biso   1.000  H
  N22      1.0000 0.15728  0.08854  0.45924  Biso   1.000  N
  H322     1.0000 0.16750  0.09140  0.48090  Biso   1.000  H
  C302     1.0000 0.18610  0.06505  0.43494  Biso   1.000  C
  C303     1.0000 0.19768  0.02492  0.45372  Biso   1.000  C
  H323     1.0000 0.22350  0.02700  0.46720  Biso   1.000  H
  H324     1.0000 0.17760  0.01660  0.47330  Biso   1.000  H
  C304     1.0000 0.19990  0.99540  0.42020  Biso   1.000  C
  H325     1.0000 0.19600  0.96800  0.42970  Biso   1.000  H
  H326     1.0000 0.22540  0.99720  0.40600  Biso   1.000  H
  C305     1.0000 0.16460  0.00940  0.39340  Biso   1.000  C
  H327     1.0000 0.16680  0.99830  0.36650  Biso   1.000  H
  H328     1.0000 0.13900  0.00140  0.40490  Biso   1.000  H
  C306     1.0000 0.16893  0.05429  0.39297  Biso   1.000  C
  H329     1.0000 0.14300  0.06720  0.38880  Biso   1.000  H
  H330     1.0000 0.18720  0.06270  0.37180  Biso   1.000  H
  C307     1.0000 0.22193  0.09240  0.42767  Biso   1.000  C
  O65      1.0000 0.21442  0.12998  0.42656  Biso   1.000  O
  O66      1.0000 0.25497  0.07740  0.42206  Biso   1.000  O
  C308     1.0000 0.19390  0.01780  0.38030  Biso   1.000  C
  Cu23     1.0000 0.34148  0.14316  0.56370  Biso   1.000  Cu
  O67      1.0000 0.39951  0.14764  0.56434  Biso   1.000  O
  C309     1.0000 0.41768  0.13818  0.52989  Biso   1.000  C
  C310     1.0000 0.44311  0.16486  0.51104  Biso   1.000  C
  H331     1.0000 0.44810  0.18990  0.52250  Biso   1.000  H
  C311     1.0000 0.46089  0.15453  0.47565  Biso   1.000  C
  H332     1.0000 0.47810  0.17260  0.46290  Biso   1.000  H
  C312     1.0000 0.45362  0.11764  0.45866  Biso   1.000  C
  H333     1.0000 0.46590  0.11060  0.43440  Biso   1.000  H
  C313     1.0000 0.42820  0.09108  0.47751  Biso   1.000  C
  H334     1.0000 0.42330  0.06610  0.46590  Biso   1.000  H
  C314     1.0000 0.40999  0.10074  0.51300  Biso   1.000  C
  C315     1.0000 0.38340  0.07181  0.53471  Biso   1.000  C
  H335     1.0000 0.38150  0.04700  0.51940  Biso   1.000  H
  H336     1.0000 0.39520  0.06540  0.56070  Biso   1.000  H
  N23      1.0000 0.34272  0.08854  0.54076  Biso   1.000  N
  H337     1.0000 0.33250  0.09140  0.51910  Biso   1.000  H
  C316     1.0000 0.31390  0.06505  0.56506  Biso   1.000  C
  C317     1.0000 0.30232  0.02492  0.54628  Biso   1.000  C
  H338     1.0000 0.27650  0.02700  0.53280  Biso   1.000  H
  H339     1.0000 0.32240  0.01660  0.52670  Biso   1.000  H
  C318     1.0000 0.30010  0.99540  0.57980  Biso   1.000  C
  H340     1.0000 0.30400  0.96800  0.57030  Biso   1.000  H
  H341     1.0000 0.27460  0.99720  0.59400  Biso   1.000  H
  C319     1.0000 0.33540  0.00940  0.60660  Biso   1.000  C
  H342     1.0000 0.33320  0.99830  0.63350  Biso   1.000  H
  H343     1.0000 0.36100  0.00140  0.59510  Biso   1.000  H
  C320     1.0000 0.33107  0.05429  0.60703  Biso   1.000  C
  H344     1.0000 0.35700  0.06720  0.61120  Biso   1.000  H
  H345     1.0000 0.31280  0.06270  0.62820  Biso   1.000  H
  C321     1.0000 0.27807  0.09240  0.57233  Biso   1.000  C
  O68      1.0000 0.28558  0.12998  0.57344  Biso   1.000  O
  O69      1.0000 0.24503  0.07740  0.57794  Biso   1.000  O
  C322     1.0000 0.30610  0.01780  0.61970  Biso   1.000  C
  Cu24     1.0000 0.84148  0.64316  0.06370  Biso   1.000  Cu
  O70      1.0000 0.89951  0.64764  0.06434  Biso   1.000  O
  C323     1.0000 0.91768  0.63818  0.02989  Biso   1.000  C
  C324     1.0000 0.94311  0.66486  0.01104  Biso   1.000  C
  H346     1.0000 0.94810  0.68990  0.02250  Biso   1.000  H
  C325     1.0000 0.96089  0.65453  0.97565  Biso   1.000  C
  H347     1.0000 0.97810  0.67260  0.96290  Biso   1.000  H
  C326     1.0000 0.95362  0.61764  0.95866  Biso   1.000  C
  H348     1.0000 0.96590  0.61060  0.93440  Biso   1.000  H
  C327     1.0000 0.92820  0.59108  0.97751  Biso   1.000  C
  H349     1.0000 0.92330  0.56610  0.96590  Biso   1.000  H
  C328     1.0000 0.90999  0.60074  0.01300  Biso   1.000  C
  C329     1.0000 0.88340  0.57181  0.03471  Biso   1.000  C
  H350     1.0000 0.88150  0.54700  0.01940  Biso   1.000  H
  H351     1.0000 0.89520  0.56540  0.06070  Biso   1.000  H
  N24      1.0000 0.84272  0.58854  0.04076  Biso   1.000  N
  H352     1.0000 0.83250  0.59140  0.01910  Biso   1.000  H
  C330     1.0000 0.81390  0.56505  0.06506  Biso   1.000  C
  C331     1.0000 0.80232  0.52492  0.04628  Biso   1.000  C
  H353     1.0000 0.77650  0.52700  0.03280  Biso   1.000  H
  H354     1.0000 0.82240  0.51660  0.02670  Biso   1.000  H
  C332     1.0000 0.80010  0.49540  0.07980  Biso   1.000  C
  H355     1.0000 0.80400  0.46800  0.07030  Biso   1.000  H
  H356     1.0000 0.77460  0.49720  0.09400  Biso   1.000  H
  C333     1.0000 0.83540  0.50940  0.10660  Biso   1.000  C
  H357     1.0000 0.83320  0.49830  0.13350  Biso   1.000  H
  H358     1.0000 0.86100  0.50140  0.09510  Biso   1.000  H
  C334     1.0000 0.83107  0.55429  0.10703  Biso   1.000  C
  H359     1.0000 0.85700  0.56720  0.11120  Biso   1.000  H
  H360     1.0000 0.81280  0.56270  0.12820  Biso   1.000  H
  C335     1.0000 0.77807  0.59240  0.07233  Biso   1.000  C
  O71      1.0000 0.78558  0.62998  0.07344  Biso   1.000  O
  O72      1.0000 0.74503  0.57740  0.07794  Biso   1.000  O
  C336     1.0000 0.80610  0.51780  0.11970  Biso   1.000  C
  Cu25     1.0000 0.90852  0.31370  0.39316  Biso   1.000  Cu
  O73      1.0000 0.85049  0.31434  0.39764  Biso   1.000  O
  C337     1.0000 0.83232  0.27989  0.38818  Biso   1.000  C
  C338     1.0000 0.80689  0.26104  0.41486  Biso   1.000  C
  H361     1.0000 0.80190  0.27250  0.43990  Biso   1.000  H
  C339     1.0000 0.78911  0.22565  0.40453  Biso   1.000  C
  H362     1.0000 0.77190  0.21290  0.42260  Biso   1.000  H
  C340     1.0000 0.79638  0.20866  0.36764  Biso   1.000  C
  H363     1.0000 0.78410  0.18440  0.36060  Biso   1.000  H
  C341     1.0000 0.82180  0.22751  0.34108  Biso   1.000  C
  H364     1.0000 0.82670  0.21590  0.31610  Biso   1.000  H
  C342     1.0000 0.84001  0.26300  0.35074  Biso   1.000  C
  C343     1.0000 0.86660  0.28471  0.32181  Biso   1.000  C
  H365     1.0000 0.86850  0.26940  0.29700  Biso   1.000  H
  H366     1.0000 0.85480  0.31070  0.31540  Biso   1.000  H
  N25      1.0000 0.90728  0.29076  0.33854  Biso   1.000  N
  H367     1.0000 0.91750  0.26910  0.34140  Biso   1.000  H
  C344     1.0000 0.93610  0.31506  0.31505  Biso   1.000  C
  C345     1.0000 0.94768  0.29628  0.27492  Biso   1.000  C
  H368     1.0000 0.97350  0.28280  0.27700  Biso   1.000  H
  H369     1.0000 0.92760  0.27670  0.26660  Biso   1.000  H
  C346     1.0000 0.94990  0.32980  0.24540  Biso   1.000  C
  H370     1.0000 0.94600  0.32030  0.21800  Biso   1.000  H
  H371     1.0000 0.97540  0.34400  0.24720  Biso   1.000  H
  C347     1.0000 0.91460  0.35660  0.25940  Biso   1.000  C
  H372     1.0000 0.91680  0.38350  0.24830  Biso   1.000  H
  H373     1.0000 0.88900  0.34510  0.25140  Biso   1.000  H
  C348     1.0000 0.91893  0.35703  0.30429  Biso   1.000  C
  H374     1.0000 0.89300  0.36120  0.31720  Biso   1.000  H
  H375     1.0000 0.93720  0.37820  0.31270  Biso   1.000  H
  C349     1.0000 0.97193  0.32233  0.34240  Biso   1.000  C
  O74      1.0000 0.96442  0.32344  0.37998  Biso   1.000  O
  O75      1.0000 0.00497  0.32794  0.32740  Biso   1.000  O
  C350     1.0000 0.94390  0.36970  0.26780  Biso   1.000  C
  Cu26     1.0000 0.40852  0.81370  0.89316  Biso   1.000  Cu
  O76      1.0000 0.35049  0.81434  0.89764  Biso   1.000  O
  C351     1.0000 0.33232  0.77989  0.88818  Biso   1.000  C
  C352     1.0000 0.30689  0.76104  0.91486  Biso   1.000  C
  H376     1.0000 0.30190  0.77250  0.93990  Biso   1.000  H
  C353     1.0000 0.28911  0.72565  0.90453  Biso   1.000  C
  H377     1.0000 0.27190  0.71290  0.92260  Biso   1.000  H
  C354     1.0000 0.29638  0.70866  0.86764  Biso   1.000  C
  H378     1.0000 0.28410  0.68440  0.86060  Biso   1.000  H
  C355     1.0000 0.32180  0.72751  0.84108  Biso   1.000  C
  H379     1.0000 0.32670  0.71590  0.81610  Biso   1.000  H
  C356     1.0000 0.34001  0.76300  0.85074  Biso   1.000  C
  C357     1.0000 0.36660  0.78471  0.82181  Biso   1.000  C
  H380     1.0000 0.36850  0.76940  0.79700  Biso   1.000  H
  H381     1.0000 0.35480  0.81070  0.81540  Biso   1.000  H
  N26      1.0000 0.40728  0.79076  0.83854  Biso   1.000  N
  H382     1.0000 0.41750  0.76910  0.84140  Biso   1.000  H
  C358     1.0000 0.43610  0.81506  0.81505  Biso   1.000  C
  C359     1.0000 0.44768  0.79628  0.77492  Biso   1.000  C
  H383     1.0000 0.47350  0.78280  0.77700  Biso   1.000  H
  H384     1.0000 0.42760  0.77670  0.76660  Biso   1.000  H
  C360     1.0000 0.44990  0.82980  0.74540  Biso   1.000  C
  H385     1.0000 0.44600  0.82030  0.71800  Biso   1.000  H
  H386     1.0000 0.47540  0.84400  0.74720  Biso   1.000  H
  C361     1.0000 0.41460  0.85660  0.75940  Biso   1.000  C
  H387     1.0000 0.41680  0.88350  0.74830  Biso   1.000  H
  H388     1.0000 0.38900  0.84510  0.75140  Biso   1.000  H
  C362     1.0000 0.41893  0.85703  0.80429  Biso   1.000  C
  H389     1.0000 0.39300  0.86120  0.81720  Biso   1.000  H
  H390     1.0000 0.43720  0.87820  0.81270  Biso   1.000  H
  C363     1.0000 0.47193  0.82233  0.84240  Biso   1.000  C
  O77      1.0000 0.46442  0.82344  0.87998  Biso   1.000  O
  O78      1.0000 0.50497  0.82794  0.82740  Biso   1.000  O
  C364     1.0000 0.44390  0.86970  0.76780  Biso   1.000  C
  Cu27     1.0000 0.59148  0.68630  0.89316  Biso   1.000  Cu
  O79      1.0000 0.64951  0.68566  0.89764  Biso   1.000  O
  C365     1.0000 0.66768  0.72011  0.88818  Biso   1.000  C
  C366     1.0000 0.69311  0.73896  0.91486  Biso   1.000  C
  H391     1.0000 0.69810  0.72750  0.93990  Biso   1.000  H
  C367     1.0000 0.71089  0.77435  0.90453  Biso   1.000  C
  H392     1.0000 0.72810  0.78710  0.92260  Biso   1.000  H
  C368     1.0000 0.70362  0.79134  0.86764  Biso   1.000  C
  H393     1.0000 0.71590  0.81560  0.86060  Biso   1.000  H
  C369     1.0000 0.67820  0.77249  0.84108  Biso   1.000  C
  H394     1.0000 0.67330  0.78410  0.81610  Biso   1.000  H
  C370     1.0000 0.65999  0.73700  0.85074  Biso   1.000  C
  C371     1.0000 0.63340  0.71529  0.82181  Biso   1.000  C
  H395     1.0000 0.63150  0.73060  0.79700  Biso   1.000  H
  H396     1.0000 0.64520  0.68930  0.81540  Biso   1.000  H
  N27      1.0000 0.59272  0.70924  0.83854  Biso   1.000  N
  H397     1.0000 0.58250  0.73090  0.84140  Biso   1.000  H
  C372     1.0000 0.56390  0.68494  0.81505  Biso   1.000  C
  C373     1.0000 0.55232  0.70372  0.77492  Biso   1.000  C
  H398     1.0000 0.52650  0.71720  0.77700  Biso   1.000  H
  H399     1.0000 0.57240  0.72330  0.76660  Biso   1.000  H
  C374     1.0000 0.55010  0.67020  0.74540  Biso   1.000  C
  H400     1.0000 0.55400  0.67970  0.71800  Biso   1.000  H
  H401     1.0000 0.52460  0.65600  0.74720  Biso   1.000  H
  C375     1.0000 0.58540  0.64340  0.75940  Biso   1.000  C
  H402     1.0000 0.58320  0.61650  0.74830  Biso   1.000  H
  H403     1.0000 0.61100  0.65490  0.75140  Biso   1.000  H
  C376     1.0000 0.58107  0.64297  0.80429  Biso   1.000  C
  H404     1.0000 0.60700  0.63880  0.81720  Biso   1.000  H
  H405     1.0000 0.56280  0.62180  0.81270  Biso   1.000  H
  C377     1.0000 0.52807  0.67767  0.84240  Biso   1.000  C
  O80      1.0000 0.53558  0.67656  0.87998  Biso   1.000  O
  O81      1.0000 0.49503  0.67206  0.82740  Biso   1.000  O
  C378     1.0000 0.55610  0.63030  0.76780  Biso   1.000  C
  Cu28     1.0000 0.09148  0.18630  0.39316  Biso   1.000  Cu
  O82      1.0000 0.14951  0.18566  0.39764  Biso   1.000  O
  C379     1.0000 0.16768  0.22011  0.38818  Biso   1.000  C
  C380     1.0000 0.19311  0.23896  0.41486  Biso   1.000  C
  H406     1.0000 0.19810  0.22750  0.43990  Biso   1.000  H
  C381     1.0000 0.21089  0.27435  0.40453  Biso   1.000  C
  H407     1.0000 0.22810  0.28710  0.42260  Biso   1.000  H
  C382     1.0000 0.20362  0.29134  0.36764  Biso   1.000  C
  H408     1.0000 0.21590  0.31560  0.36060  Biso   1.000  H
  C383     1.0000 0.17820  0.27249  0.34108  Biso   1.000  C
  H409     1.0000 0.17330  0.28410  0.31610  Biso   1.000  H
  C384     1.0000 0.15999  0.23700  0.35074  Biso   1.000  C
  C385     1.0000 0.13340  0.21529  0.32181  Biso   1.000  C
  H410     1.0000 0.13150  0.23060  0.29700  Biso   1.000  H
  H411     1.0000 0.14520  0.18930  0.31540  Biso   1.000  H
  N28      1.0000 0.09272  0.20924  0.33854  Biso   1.000  N
  H412     1.0000 0.08250  0.23090  0.34140  Biso   1.000  H
  C386     1.0000 0.06390  0.18494  0.31505  Biso   1.000  C
  C387     1.0000 0.05232  0.20372  0.27492  Biso   1.000  C
  H413     1.0000 0.02650  0.21720  0.27700  Biso   1.000  H
  H414     1.0000 0.07240  0.22330  0.26660  Biso   1.000  H
  C388     1.0000 0.05010  0.17020  0.24540  Biso   1.000  C
  H415     1.0000 0.05400  0.17970  0.21800  Biso   1.000  H
  H416     1.0000 0.02460  0.15600  0.24720  Biso   1.000  H
  C389     1.0000 0.08540  0.14340  0.25940  Biso   1.000  C
  H417     1.0000 0.08320  0.11650  0.24830  Biso   1.000  H
  H418     1.0000 0.11100  0.15490  0.25140  Biso   1.000  H
  C390     1.0000 0.08107  0.14297  0.30429  Biso   1.000  C
  H419     1.0000 0.10700  0.13880  0.31720  Biso   1.000  H
  H420     1.0000 0.06280  0.12180  0.31270  Biso   1.000  H
  C391     1.0000 0.02807  0.17767  0.34240  Biso   1.000  C
  O83      1.0000 0.03558  0.17656  0.37998  Biso   1.000  O
  O84      1.0000 0.99503  0.17206  0.32740  Biso   1.000  O
  C392     1.0000 0.05610  0.13030  0.26780  Biso   1.000  C
  Cu29     1.0000 0.40852  0.18630  0.60684  Biso   1.000  Cu
  O85      1.0000 0.35049  0.18566  0.60236  Biso   1.000  O
  C393     1.0000 0.33232  0.22011  0.61182  Biso   1.000  C
  C394     1.0000 0.30689  0.23896  0.58514  Biso   1.000  C
  H421     1.0000 0.30190  0.22750  0.56010  Biso   1.000  H
  C395     1.0000 0.28911  0.27435  0.59547  Biso   1.000  C
  H422     1.0000 0.27190  0.28710  0.57740  Biso   1.000  H
  C396     1.0000 0.29638  0.29134  0.63236  Biso   1.000  C
  H423     1.0000 0.28410  0.31560  0.63940  Biso   1.000  H
  C397     1.0000 0.32180  0.27249  0.65892  Biso   1.000  C
  H424     1.0000 0.32670  0.28410  0.68390  Biso   1.000  H
  C398     1.0000 0.34001  0.23700  0.64926  Biso   1.000  C
  C399     1.0000 0.36660  0.21529  0.67819  Biso   1.000  C
  H425     1.0000 0.36850  0.23060  0.70300  Biso   1.000  H
  H426     1.0000 0.35480  0.18930  0.68460  Biso   1.000  H
  N29      1.0000 0.40728  0.20924  0.66146  Biso   1.000  N
  H427     1.0000 0.41750  0.23090  0.65860  Biso   1.000  H
  C400     1.0000 0.43610  0.18494  0.68495  Biso   1.000  C
  C401     1.0000 0.44768  0.20372  0.72508  Biso   1.000  C
  H428     1.0000 0.47350  0.21720  0.72300  Biso   1.000  H
  H429     1.0000 0.42760  0.22330  0.73340  Biso   1.000  H
  C402     1.0000 0.44990  0.17020  0.75460  Biso   1.000  C
  H430     1.0000 0.44600  0.17970  0.78200  Biso   1.000  H
  H431     1.0000 0.47540  0.15600  0.75280  Biso   1.000  H
  C403     1.0000 0.41460  0.14340  0.74060  Biso   1.000  C
  H432     1.0000 0.41680  0.11650  0.75170  Biso   1.000  H
  H433     1.0000 0.38900  0.15490  0.74860  Biso   1.000  H
  C404     1.0000 0.41893  0.14297  0.69571  Biso   1.000  C
  H434     1.0000 0.39300  0.13880  0.68280  Biso   1.000  H
  H435     1.0000 0.43720  0.12180  0.68730  Biso   1.000  H
  C405     1.0000 0.47193  0.17767  0.65760  Biso   1.000  C
  O86      1.0000 0.46442  0.17656  0.62002  Biso   1.000  O
  O87      1.0000 0.50497  0.17206  0.67260  Biso   1.000  O
  C406     1.0000 0.44390  0.13030  0.73220  Biso   1.000  C
  Cu30     1.0000 0.90852  0.68630  0.10684  Biso   1.000  Cu
  O88      1.0000 0.85049  0.68566  0.10236  Biso   1.000  O
  C407     1.0000 0.83232  0.72011  0.11182  Biso   1.000  C
  C408     1.0000 0.80689  0.73896  0.08514  Biso   1.000  C
  H436     1.0000 0.80190  0.72750  0.06010  Biso   1.000  H
  C409     1.0000 0.78911  0.77435  0.09547  Biso   1.000  C
  H437     1.0000 0.77190  0.78710  0.07740  Biso   1.000  H
  C410     1.0000 0.79638  0.79134  0.13236  Biso   1.000  C
  H438     1.0000 0.78410  0.81560  0.13940  Biso   1.000  H
  C411     1.0000 0.82180  0.77249  0.15892  Biso   1.000  C
  H439     1.0000 0.82670  0.78410  0.18390  Biso   1.000  H
  C412     1.0000 0.84001  0.73700  0.14926  Biso   1.000  C
  C413     1.0000 0.86660  0.71529  0.17819  Biso   1.000  C
  H440     1.0000 0.86850  0.73060  0.20300  Biso   1.000  H
  H441     1.0000 0.85480  0.68930  0.18460  Biso   1.000  H
  N30      1.0000 0.90728  0.70924  0.16146  Biso   1.000  N
  H442     1.0000 0.91750  0.73090  0.15860  Biso   1.000  H
  C414     1.0000 0.93610  0.68494  0.18495  Biso   1.000  C
  C415     1.0000 0.94768  0.70372  0.22508  Biso   1.000  C
  H443     1.0000 0.97350  0.71720  0.22300  Biso   1.000  H
  H444     1.0000 0.92760  0.72330  0.23340  Biso   1.000  H
  C416     1.0000 0.94990  0.67020  0.25460  Biso   1.000  C
  H445     1.0000 0.94600  0.67970  0.28200  Biso   1.000  H
  H446     1.0000 0.97540  0.65600  0.25280  Biso   1.000  H
  C417     1.0000 0.91460  0.64340  0.24060  Biso   1.000  C
  H447     1.0000 0.91680  0.61650  0.25170  Biso   1.000  H
  H448     1.0000 0.88900  0.65490  0.24860  Biso   1.000  H
  C418     1.0000 0.91893  0.64297  0.19571  Biso   1.000  C
  H449     1.0000 0.89300  0.63880  0.18280  Biso   1.000  H
  H450     1.0000 0.93720  0.62180  0.18730  Biso   1.000  H
  C419     1.0000 0.97193  0.67767  0.15760  Biso   1.000  C
  O89      1.0000 0.96442  0.67656  0.12002  Biso   1.000  O
  O90      1.0000 0.00497  0.67206  0.17260  Biso   1.000  O
  C420     1.0000 0.94390  0.63030  0.23220  Biso   1.000  C
  Cu31     1.0000 0.09148  0.81370  0.10684  Biso   1.000  Cu
  O91      1.0000 0.14951  0.81434  0.10236  Biso   1.000  O
  C421     1.0000 0.16768  0.77989  0.11182  Biso   1.000  C
  C422     1.0000 0.19311  0.76104  0.08514  Biso   1.000  C
  H451     1.0000 0.19810  0.77250  0.06010  Biso   1.000  H
  C423     1.0000 0.21089  0.72565  0.09547  Biso   1.000  C
  H452     1.0000 0.22810  0.71290  0.07740  Biso   1.000  H
  C424     1.0000 0.20362  0.70866  0.13236  Biso   1.000  C
  H453     1.0000 0.21590  0.68440  0.13940  Biso   1.000  H
  C425     1.0000 0.17820  0.72751  0.15892  Biso   1.000  C
  H454     1.0000 0.17330  0.71590  0.18390  Biso   1.000  H
  C426     1.0000 0.15999  0.76300  0.14926  Biso   1.000  C
  C427     1.0000 0.13340  0.78471  0.17819  Biso   1.000  C
  H455     1.0000 0.13150  0.76940  0.20300  Biso   1.000  H
  H456     1.0000 0.14520  0.81070  0.18460  Biso   1.000  H
  N31      1.0000 0.09272  0.79076  0.16146  Biso   1.000  N
  H457     1.0000 0.08250  0.76910  0.15860  Biso   1.000  H
  C428     1.0000 0.06390  0.81506  0.18495  Biso   1.000  C
  C429     1.0000 0.05232  0.79628  0.22508  Biso   1.000  C
  H458     1.0000 0.02650  0.78280  0.22300  Biso   1.000  H
  H459     1.0000 0.07240  0.77670  0.23340  Biso   1.000  H
  C430     1.0000 0.05010  0.82980  0.25460  Biso   1.000  C
  H460     1.0000 0.05400  0.82030  0.28200  Biso   1.000  H
  H461     1.0000 0.02460  0.84400  0.25280  Biso   1.000  H
  C431     1.0000 0.08540  0.85660  0.24060  Biso   1.000  C
  H462     1.0000 0.08320  0.88350  0.25170  Biso   1.000  H
  H463     1.0000 0.11100  0.84510  0.24860  Biso   1.000  H
  C432     1.0000 0.08107  0.85703  0.19571  Biso   1.000  C
  H464     1.0000 0.10700  0.86120  0.18280  Biso   1.000  H
  H465     1.0000 0.06280  0.87820  0.18730  Biso   1.000  H
  C433     1.0000 0.02807  0.82233  0.15760  Biso   1.000  C
  O92      1.0000 0.03558  0.82344  0.12002  Biso   1.000  O
  O93      1.0000 0.99503  0.82794  0.17260  Biso   1.000  O
  C434     1.0000 0.05610  0.86970  0.23220  Biso   1.000  C
  Cu32     1.0000 0.59148  0.31370  0.60684  Biso   1.000  Cu
  O94      1.0000 0.64951  0.31434  0.60236  Biso   1.000  O
  C435     1.0000 0.66768  0.27989  0.61182  Biso   1.000  C
  C436     1.0000 0.69311  0.26104  0.58514  Biso   1.000  C
  H466     1.0000 0.69810  0.27250  0.56010  Biso   1.000  H
  C437     1.0000 0.71089  0.22565  0.59547  Biso   1.000  C
  H467     1.0000 0.72810  0.21290  0.57740  Biso   1.000  H
  C438     1.0000 0.70362  0.20866  0.63236  Biso   1.000  C
  H468     1.0000 0.71590  0.18440  0.63940  Biso   1.000  H
  C439     1.0000 0.67820  0.22751  0.65892  Biso   1.000  C
  H469     1.0000 0.67330  0.21590  0.68390  Biso   1.000  H
  C440     1.0000 0.65999  0.26300  0.64926  Biso   1.000  C
  C441     1.0000 0.63340  0.28471  0.67819  Biso   1.000  C
  H470     1.0000 0.63150  0.26940  0.70300  Biso   1.000  H
  H471     1.0000 0.64520  0.31070  0.68460  Biso   1.000  H
  N32      1.0000 0.59272  0.29076  0.66146  Biso   1.000  N
  H472     1.0000 0.58250  0.26910  0.65860  Biso   1.000  H
  C442     1.0000 0.56390  0.31506  0.68495  Biso   1.000  C
  C443     1.0000 0.55232  0.29628  0.72508  Biso   1.000  C
  H473     1.0000 0.52650  0.28280  0.72300  Biso   1.000  H
  H474     1.0000 0.57240  0.27670  0.73340  Biso   1.000  H
  C444     1.0000 0.55010  0.32980  0.75460  Biso   1.000  C
  H475     1.0000 0.55400  0.32030  0.78200  Biso   1.000  H
  H476     1.0000 0.52460  0.34400  0.75280  Biso   1.000  H
  C445     1.0000 0.58540  0.35660  0.74060  Biso   1.000  C
  H477     1.0000 0.58320  0.38350  0.75170  Biso   1.000  H
  H478     1.0000 0.61100  0.34510  0.74860  Biso   1.000  H
  C446     1.0000 0.58107  0.35703  0.69571  Biso   1.000  C
  H479     1.0000 0.60700  0.36120  0.68280  Biso   1.000  H
  H480     1.0000 0.56280  0.37820  0.68730  Biso   1.000  H
  C447     1.0000 0.52807  0.32233  0.65760  Biso   1.000  C
  O95      1.0000 0.53558  0.32344  0.62002  Biso   1.000  O
  O96      1.0000 0.49503  0.32794  0.67260  Biso   1.000  O
  C448     1.0000 0.55610  0.36970  0.73220  Biso   1.000  C
  Cu33     1.0000 0.81370  0.10684  0.09148  Biso   1.000  Cu
  O97      1.0000 0.81434  0.10236  0.14951  Biso   1.000  O
  C449     1.0000 0.77989  0.11182  0.16768  Biso   1.000  C
  C450     1.0000 0.76104  0.08514  0.19311  Biso   1.000  C
  H481     1.0000 0.77250  0.06010  0.19810  Biso   1.000  H
  C451     1.0000 0.72565  0.09547  0.21089  Biso   1.000  C
  H482     1.0000 0.71290  0.07740  0.22810  Biso   1.000  H
  C452     1.0000 0.70866  0.13236  0.20362  Biso   1.000  C
  H483     1.0000 0.68440  0.13940  0.21590  Biso   1.000  H
  C453     1.0000 0.72751  0.15892  0.17820  Biso   1.000  C
  H484     1.0000 0.71590  0.18390  0.17330  Biso   1.000  H
  C454     1.0000 0.76300  0.14926  0.15999  Biso   1.000  C
  C455     1.0000 0.78471  0.17819  0.13340  Biso   1.000  C
  H485     1.0000 0.76940  0.20300  0.13150  Biso   1.000  H
  H486     1.0000 0.81070  0.18460  0.14520  Biso   1.000  H
  N33      1.0000 0.79076  0.16146  0.09272  Biso   1.000  N
  H487     1.0000 0.76910  0.15860  0.08250  Biso   1.000  H
  C456     1.0000 0.81506  0.18495  0.06390  Biso   1.000  C
  C457     1.0000 0.79628  0.22508  0.05232  Biso   1.000  C
  H488     1.0000 0.78280  0.22300  0.02650  Biso   1.000  H
  H489     1.0000 0.77670  0.23340  0.07240  Biso   1.000  H
  C458     1.0000 0.82980  0.25460  0.05010  Biso   1.000  C
  H490     1.0000 0.82030  0.28200  0.05400  Biso   1.000  H
  H491     1.0000 0.84400  0.25280  0.02460  Biso   1.000  H
  C459     1.0000 0.85660  0.24060  0.08540  Biso   1.000  C
  H492     1.0000 0.88350  0.25170  0.08320  Biso   1.000  H
  H493     1.0000 0.84510  0.24860  0.11100  Biso   1.000  H
  C460     1.0000 0.85703  0.19571  0.08107  Biso   1.000  C
  H494     1.0000 0.86120  0.18280  0.10700  Biso   1.000  H
  H495     1.0000 0.87820  0.18730  0.06280  Biso   1.000  H
  C461     1.0000 0.82233  0.15760  0.02807  Biso   1.000  C
  O98      1.0000 0.82344  0.12002  0.03558  Biso   1.000  O
  O99      1.0000 0.82794  0.17260  0.99503  Biso   1.000  O
  C462     1.0000 0.86970  0.23220  0.05610  Biso   1.000  C
  Cu34     1.0000 0.31370  0.60684  0.59148  Biso   1.000  Cu
  O100     1.0000 0.31434  0.60236  0.64951  Biso   1.000  O
  C463     1.0000 0.27989  0.61182  0.66768  Biso   1.000  C
  C464     1.0000 0.26104  0.58514  0.69311  Biso   1.000  C
  H496     1.0000 0.27250  0.56010  0.69810  Biso   1.000  H
  C465     1.0000 0.22565  0.59547  0.71089  Biso   1.000  C
  H497     1.0000 0.21290  0.57740  0.72810  Biso   1.000  H
  C466     1.0000 0.20866  0.63236  0.70362  Biso   1.000  C
  H498     1.0000 0.18440  0.63940  0.71590  Biso   1.000  H
  C467     1.0000 0.22751  0.65892  0.67820  Biso   1.000  C
  H499     1.0000 0.21590  0.68390  0.67330  Biso   1.000  H
  C468     1.0000 0.26300  0.64926  0.65999  Biso   1.000  C
  C469     1.0000 0.28471  0.67819  0.63340  Biso   1.000  C
  H500     1.0000 0.26940  0.70300  0.63150  Biso   1.000  H
  H501     1.0000 0.31070  0.68460  0.64520  Biso   1.000  H
  N34      1.0000 0.29076  0.66146  0.59272  Biso   1.000  N
  H502     1.0000 0.26910  0.65860  0.58250  Biso   1.000  H
  C470     1.0000 0.31506  0.68495  0.56390  Biso   1.000  C
  C471     1.0000 0.29628  0.72508  0.55232  Biso   1.000  C
  H503     1.0000 0.28280  0.72300  0.52650  Biso   1.000  H
  H504     1.0000 0.27670  0.73340  0.57240  Biso   1.000  H
  C472     1.0000 0.32980  0.75460  0.55010  Biso   1.000  C
  H505     1.0000 0.32030  0.78200  0.55400  Biso   1.000  H
  H506     1.0000 0.34400  0.75280  0.52460  Biso   1.000  H
  C473     1.0000 0.35660  0.74060  0.58540  Biso   1.000  C
  H507     1.0000 0.38350  0.75170  0.58320  Biso   1.000  H
  H508     1.0000 0.34510  0.74860  0.61100  Biso   1.000  H
  C474     1.0000 0.35703  0.69571  0.58107  Biso   1.000  C
  H509     1.0000 0.36120  0.68280  0.60700  Biso   1.000  H
  H510     1.0000 0.37820  0.68730  0.56280  Biso   1.000  H
  C475     1.0000 0.32233  0.65760  0.52807  Biso   1.000  C
  O101     1.0000 0.32344  0.62002  0.53558  Biso   1.000  O
  O102     1.0000 0.32794  0.67260  0.49503  Biso   1.000  O
  C476     1.0000 0.36970  0.73220  0.55610  Biso   1.000  C
  Cu35     1.0000 0.18630  0.60684  0.40852  Biso   1.000  Cu
  O103     1.0000 0.18566  0.60236  0.35049  Biso   1.000  O
  C477     1.0000 0.22011  0.61182  0.33232  Biso   1.000  C
  C478     1.0000 0.23896  0.58514  0.30689  Biso   1.000  C
  H511     1.0000 0.22750  0.56010  0.30190  Biso   1.000  H
  C479     1.0000 0.27435  0.59547  0.28911  Biso   1.000  C
  H512     1.0000 0.28710  0.57740  0.27190  Biso   1.000  H
  C480     1.0000 0.29134  0.63236  0.29638  Biso   1.000  C
  H513     1.0000 0.31560  0.63940  0.28410  Biso   1.000  H
  C481     1.0000 0.27249  0.65892  0.32180  Biso   1.000  C
  H514     1.0000 0.28410  0.68390  0.32670  Biso   1.000  H
  C482     1.0000 0.23700  0.64926  0.34001  Biso   1.000  C
  C483     1.0000 0.21529  0.67819  0.36660  Biso   1.000  C
  H515     1.0000 0.23060  0.70300  0.36850  Biso   1.000  H
  H516     1.0000 0.18930  0.68460  0.35480  Biso   1.000  H
  N35      1.0000 0.20924  0.66146  0.40728  Biso   1.000  N
  H517     1.0000 0.23090  0.65860  0.41750  Biso   1.000  H
  C484     1.0000 0.18494  0.68495  0.43610  Biso   1.000  C
  C485     1.0000 0.20372  0.72508  0.44768  Biso   1.000  C
  H518     1.0000 0.21720  0.72300  0.47350  Biso   1.000  H
  H519     1.0000 0.22330  0.73340  0.42760  Biso   1.000  H
  C486     1.0000 0.17020  0.75460  0.44990  Biso   1.000  C
  H520     1.0000 0.17970  0.78200  0.44600  Biso   1.000  H
  H521     1.0000 0.15600  0.75280  0.47540  Biso   1.000  H
  C487     1.0000 0.14340  0.74060  0.41460  Biso   1.000  C
  H522     1.0000 0.11650  0.75170  0.41680  Biso   1.000  H
  H523     1.0000 0.15490  0.74860  0.38900  Biso   1.000  H
  C488     1.0000 0.14297  0.69571  0.41893  Biso   1.000  C
  H524     1.0000 0.13880  0.68280  0.39300  Biso   1.000  H
  H525     1.0000 0.12180  0.68730  0.43720  Biso   1.000  H
  C489     1.0000 0.17767  0.65760  0.47193  Biso   1.000  C
  O104     1.0000 0.17656  0.62002  0.46442  Biso   1.000  O
  O105     1.0000 0.17206  0.67260  0.50497  Biso   1.000  O
  C490     1.0000 0.13030  0.73220  0.44390  Biso   1.000  C
  Cu36     1.0000 0.68630  0.10684  0.90852  Biso   1.000  Cu
  O106     1.0000 0.68566  0.10236  0.85049  Biso   1.000  O
  C491     1.0000 0.72011  0.11182  0.83232  Biso   1.000  C
  C492     1.0000 0.73896  0.08514  0.80689  Biso   1.000  C
  H526     1.0000 0.72750  0.06010  0.80190  Biso   1.000  H
  C493     1.0000 0.77435  0.09547  0.78911  Biso   1.000  C
  H527     1.0000 0.78710  0.07740  0.77190  Biso   1.000  H
  C494     1.0000 0.79134  0.13236  0.79638  Biso   1.000  C
  H528     1.0000 0.81560  0.13940  0.78410  Biso   1.000  H
  C495     1.0000 0.77249  0.15892  0.82180  Biso   1.000  C
  H529     1.0000 0.78410  0.18390  0.82670  Biso   1.000  H
  C496     1.0000 0.73700  0.14926  0.84001  Biso   1.000  C
  C497     1.0000 0.71529  0.17819  0.86660  Biso   1.000  C
  H530     1.0000 0.73060  0.20300  0.86850  Biso   1.000  H
  H531     1.0000 0.68930  0.18460  0.85480  Biso   1.000  H
  N36      1.0000 0.70924  0.16146  0.90728  Biso   1.000  N
  H532     1.0000 0.73090  0.15860  0.91750  Biso   1.000  H
  C498     1.0000 0.68494  0.18495  0.93610  Biso   1.000  C
  C499     1.0000 0.70372  0.22508  0.94768  Biso   1.000  C
  H533     1.0000 0.71720  0.22300  0.97350  Biso   1.000  H
  H534     1.0000 0.72330  0.23340  0.92760  Biso   1.000  H
  C500     1.0000 0.67020  0.25460  0.94990  Biso   1.000  C
  H535     1.0000 0.67970  0.28200  0.94600  Biso   1.000  H
  H536     1.0000 0.65600  0.25280  0.97540  Biso   1.000  H
  C501     1.0000 0.64340  0.24060  0.91460  Biso   1.000  C
  H537     1.0000 0.61650  0.25170  0.91680  Biso   1.000  H
  H538     1.0000 0.65490  0.24860  0.88900  Biso   1.000  H
  C502     1.0000 0.64297  0.19571  0.91893  Biso   1.000  C
  H539     1.0000 0.63880  0.18280  0.89300  Biso   1.000  H
  H540     1.0000 0.62180  0.18730  0.93720  Biso   1.000  H
  C503     1.0000 0.67767  0.15760  0.97193  Biso   1.000  C
  O107     1.0000 0.67656  0.12002  0.96442  Biso   1.000  O
  O108     1.0000 0.67206  0.17260  0.00497  Biso   1.000  O
  C504     1.0000 0.63030  0.23220  0.94390  Biso   1.000  C
  Cu37     1.0000 0.68630  0.89316  0.59148  Biso   1.000  Cu
  O109     1.0000 0.68566  0.89764  0.64951  Biso   1.000  O
  C505     1.0000 0.72011  0.88818  0.66768  Biso   1.000  C
  C506     1.0000 0.73896  0.91486  0.69311  Biso   1.000  C
  H541     1.0000 0.72750  0.93990  0.69810  Biso   1.000  H
  C507     1.0000 0.77435  0.90453  0.71089  Biso   1.000  C
  H542     1.0000 0.78710  0.92260  0.72810  Biso   1.000  H
  C508     1.0000 0.79134  0.86764  0.70362  Biso   1.000  C
  H543     1.0000 0.81560  0.86060  0.71590  Biso   1.000  H
  C509     1.0000 0.77249  0.84108  0.67820  Biso   1.000  C
  H544     1.0000 0.78410  0.81610  0.67330  Biso   1.000  H
  C510     1.0000 0.73700  0.85074  0.65999  Biso   1.000  C
  C511     1.0000 0.71529  0.82181  0.63340  Biso   1.000  C
  H545     1.0000 0.73060  0.79700  0.63150  Biso   1.000  H
  H546     1.0000 0.68930  0.81540  0.64520  Biso   1.000  H
  N37      1.0000 0.70924  0.83854  0.59272  Biso   1.000  N
  H547     1.0000 0.73090  0.84140  0.58250  Biso   1.000  H
  C512     1.0000 0.68494  0.81505  0.56390  Biso   1.000  C
  C513     1.0000 0.70372  0.77492  0.55232  Biso   1.000  C
  H548     1.0000 0.71720  0.77700  0.52650  Biso   1.000  H
  H549     1.0000 0.72330  0.76660  0.57240  Biso   1.000  H
  C514     1.0000 0.67020  0.74540  0.55010  Biso   1.000  C
  H550     1.0000 0.67970  0.71800  0.55400  Biso   1.000  H
  H551     1.0000 0.65600  0.74720  0.52460  Biso   1.000  H
  C515     1.0000 0.64340  0.75940  0.58540  Biso   1.000  C
  H552     1.0000 0.61650  0.74830  0.58320  Biso   1.000  H
  H553     1.0000 0.65490  0.75140  0.61100  Biso   1.000  H
  C516     1.0000 0.64297  0.80429  0.58107  Biso   1.000  C
  H554     1.0000 0.63880  0.81720  0.60700  Biso   1.000  H
  H555     1.0000 0.62180  0.81270  0.56280  Biso   1.000  H
  C517     1.0000 0.67767  0.84240  0.52807  Biso   1.000  C
  O110     1.0000 0.67656  0.87998  0.53558  Biso   1.000  O
  O111     1.0000 0.67206  0.82740  0.49503  Biso   1.000  O
  C518     1.0000 0.63030  0.76780  0.55610  Biso   1.000  C
  Cu38     1.0000 0.18630  0.39316  0.09148  Biso   1.000  Cu
  O112     1.0000 0.18566  0.39764  0.14951  Biso   1.000  O
  C519     1.0000 0.22011  0.38818  0.16768  Biso   1.000  C
  C520     1.0000 0.23896  0.41486  0.19311  Biso   1.000  C
  H556     1.0000 0.22750  0.43990  0.19810  Biso   1.000  H
  C521     1.0000 0.27435  0.40453  0.21089  Biso   1.000  C
  H557     1.0000 0.28710  0.42260  0.22810  Biso   1.000  H
  C522     1.0000 0.29134  0.36764  0.20362  Biso   1.000  C
  H558     1.0000 0.31560  0.36060  0.21590  Biso   1.000  H
  C523     1.0000 0.27249  0.34108  0.17820  Biso   1.000  C
  H559     1.0000 0.28410  0.31610  0.17330  Biso   1.000  H
  C524     1.0000 0.23700  0.35074  0.15999  Biso   1.000  C
  C525     1.0000 0.21529  0.32181  0.13340  Biso   1.000  C
  H560     1.0000 0.23060  0.29700  0.13150  Biso   1.000  H
  H561     1.0000 0.18930  0.31540  0.14520  Biso   1.000  H
  N38      1.0000 0.20924  0.33854  0.09272  Biso   1.000  N
  H562     1.0000 0.23090  0.34140  0.08250  Biso   1.000  H
  C526     1.0000 0.18494  0.31505  0.06390  Biso   1.000  C
  C527     1.0000 0.20372  0.27492  0.05232  Biso   1.000  C
  H563     1.0000 0.21720  0.27700  0.02650  Biso   1.000  H
  H564     1.0000 0.22330  0.26660  0.07240  Biso   1.000  H
  C528     1.0000 0.17020  0.24540  0.05010  Biso   1.000  C
  H565     1.0000 0.17970  0.21800  0.05400  Biso   1.000  H
  H566     1.0000 0.15600  0.24720  0.02460  Biso   1.000  H
  C529     1.0000 0.14340  0.25940  0.08540  Biso   1.000  C
  H567     1.0000 0.11650  0.24830  0.08320  Biso   1.000  H
  H568     1.0000 0.15490  0.25140  0.11100  Biso   1.000  H
  C530     1.0000 0.14297  0.30429  0.08107  Biso   1.000  C
  H569     1.0000 0.13880  0.31720  0.10700  Biso   1.000  H
  H570     1.0000 0.12180  0.31270  0.06280  Biso   1.000  H
  C531     1.0000 0.17767  0.34240  0.02807  Biso   1.000  C
  O113     1.0000 0.17656  0.37998  0.03558  Biso   1.000  O
  O114     1.0000 0.17206  0.32740  0.99503  Biso   1.000  O
  C532     1.0000 0.13030  0.26780  0.05610  Biso   1.000  C
  Cu39     1.0000 0.31370  0.39316  0.90852  Biso   1.000  Cu
  O115     1.0000 0.31434  0.39764  0.85049  Biso   1.000  O
  C533     1.0000 0.27989  0.38818  0.83232  Biso   1.000  C
  C534     1.0000 0.26104  0.41486  0.80689  Biso   1.000  C
  H571     1.0000 0.27250  0.43990  0.80190  Biso   1.000  H
  C535     1.0000 0.22565  0.40453  0.78911  Biso   1.000  C
  H572     1.0000 0.21290  0.42260  0.77190  Biso   1.000  H
  C536     1.0000 0.20866  0.36764  0.79638  Biso   1.000  C
  H573     1.0000 0.18440  0.36060  0.78410  Biso   1.000  H
  C537     1.0000 0.22751  0.34108  0.82180  Biso   1.000  C
  H574     1.0000 0.21590  0.31610  0.82670  Biso   1.000  H
  C538     1.0000 0.26300  0.35074  0.84001  Biso   1.000  C
  C539     1.0000 0.28471  0.32181  0.86660  Biso   1.000  C
  H575     1.0000 0.26940  0.29700  0.86850  Biso   1.000  H
  H576     1.0000 0.31070  0.31540  0.85480  Biso   1.000  H
  N39      1.0000 0.29076  0.33854  0.90728  Biso   1.000  N
  H577     1.0000 0.26910  0.34140  0.91750  Biso   1.000  H
  C540     1.0000 0.31506  0.31505  0.93610  Biso   1.000  C
  C541     1.0000 0.29628  0.27492  0.94768  Biso   1.000  C
  H578     1.0000 0.28280  0.27700  0.97350  Biso   1.000  H
  H579     1.0000 0.27670  0.26660  0.92760  Biso   1.000  H
  C542     1.0000 0.32980  0.24540  0.94990  Biso   1.000  C
  H580     1.0000 0.32030  0.21800  0.94600  Biso   1.000  H
  H581     1.0000 0.34400  0.24720  0.97540  Biso   1.000  H
  C543     1.0000 0.35660  0.25940  0.91460  Biso   1.000  C
  H582     1.0000 0.38350  0.24830  0.91680  Biso   1.000  H
  H583     1.0000 0.34510  0.25140  0.88900  Biso   1.000  H
  C544     1.0000 0.35703  0.30429  0.91893  Biso   1.000  C
  H584     1.0000 0.36120  0.31720  0.89300  Biso   1.000  H
  H585     1.0000 0.37820  0.31270  0.93720  Biso   1.000  H
  C545     1.0000 0.32233  0.34240  0.97193  Biso   1.000  C
  O116     1.0000 0.32344  0.37998  0.96442  Biso   1.000  O
  O117     1.0000 0.32794  0.32740  0.00497  Biso   1.000  O
  C546     1.0000 0.36970  0.26780  0.94390  Biso   1.000  C
  Cu40     1.0000 0.81370  0.89316  0.40852  Biso   1.000  Cu
  O118     1.0000 0.81434  0.89764  0.35049  Biso   1.000  O
  C547     1.0000 0.77989  0.88818  0.33232  Biso   1.000  C
  C548     1.0000 0.76104  0.91486  0.30689  Biso   1.000  C
  H586     1.0000 0.77250  0.93990  0.30190  Biso   1.000  H
  C549     1.0000 0.72565  0.90453  0.28911  Biso   1.000  C
  H587     1.0000 0.71290  0.92260  0.27190  Biso   1.000  H
  C550     1.0000 0.70866  0.86764  0.29638  Biso   1.000  C
  H588     1.0000 0.68440  0.86060  0.28410  Biso   1.000  H
  C551     1.0000 0.72751  0.84108  0.32180  Biso   1.000  C
  H589     1.0000 0.71590  0.81610  0.32670  Biso   1.000  H
  C552     1.0000 0.76300  0.85074  0.34001  Biso   1.000  C
  C553     1.0000 0.78471  0.82181  0.36660  Biso   1.000  C
  H590     1.0000 0.76940  0.79700  0.36850  Biso   1.000  H
  H591     1.0000 0.81070  0.81540  0.35480  Biso   1.000  H
  N40      1.0000 0.79076  0.83854  0.40728  Biso   1.000  N
  H592     1.0000 0.76910  0.84140  0.41750  Biso   1.000  H
  C554     1.0000 0.81506  0.81505  0.43610  Biso   1.000  C
  C555     1.0000 0.79628  0.77492  0.44768  Biso   1.000  C
  H593     1.0000 0.78280  0.77700  0.47350  Biso   1.000  H
  H594     1.0000 0.77670  0.76660  0.42760  Biso   1.000  H
  C556     1.0000 0.82980  0.74540  0.44990  Biso   1.000  C
  H595     1.0000 0.82030  0.71800  0.44600  Biso   1.000  H
  H596     1.0000 0.84400  0.74720  0.47540  Biso   1.000  H
  C557     1.0000 0.85660  0.75940  0.41460  Biso   1.000  C
  H597     1.0000 0.88350  0.74830  0.41680  Biso   1.000  H
  H598     1.0000 0.84510  0.75140  0.38900  Biso   1.000  H
  C558     1.0000 0.85703  0.80429  0.41893  Biso   1.000  C
  H599     1.0000 0.86120  0.81720  0.39300  Biso   1.000  H
  H600     1.0000 0.87820  0.81270  0.43720  Biso   1.000  H
  C559     1.0000 0.82233  0.84240  0.47193  Biso   1.000  C
  O119     1.0000 0.82344  0.87998  0.46442  Biso   1.000  O
  O120     1.0000 0.82794  0.82740  0.50497  Biso   1.000  O
  C560     1.0000 0.86970  0.76780  0.44390  Biso   1.000  C
  Cu41     1.0000 0.60684  0.40852  0.18630  Biso   1.000  Cu
  O121     1.0000 0.60236  0.35049  0.18566  Biso   1.000  O
  C561     1.0000 0.61182  0.33232  0.22011  Biso   1.000  C
  C562     1.0000 0.58514  0.30689  0.23896  Biso   1.000  C
  H601     1.0000 0.56010  0.30190  0.22750  Biso   1.000  H
  C563     1.0000 0.59547  0.28911  0.27435  Biso   1.000  C
  H602     1.0000 0.57740  0.27190  0.28710  Biso   1.000  H
  C564     1.0000 0.63236  0.29638  0.29134  Biso   1.000  C
  H603     1.0000 0.63940  0.28410  0.31560  Biso   1.000  H
  C565     1.0000 0.65892  0.32180  0.27249  Biso   1.000  C
  H604     1.0000 0.68390  0.32670  0.28410  Biso   1.000  H
  C566     1.0000 0.64926  0.34001  0.23700  Biso   1.000  C
  C567     1.0000 0.67819  0.36660  0.21529  Biso   1.000  C
  H605     1.0000 0.70300  0.36850  0.23060  Biso   1.000  H
  H606     1.0000 0.68460  0.35480  0.18930  Biso   1.000  H
  N41      1.0000 0.66146  0.40728  0.20924  Biso   1.000  N
  H607     1.0000 0.65860  0.41750  0.23090  Biso   1.000  H
  C568     1.0000 0.68495  0.43610  0.18494  Biso   1.000  C
  C569     1.0000 0.72508  0.44768  0.20372  Biso   1.000  C
  H608     1.0000 0.72300  0.47350  0.21720  Biso   1.000  H
  H609     1.0000 0.73340  0.42760  0.22330  Biso   1.000  H
  C570     1.0000 0.75460  0.44990  0.17020  Biso   1.000  C
  H610     1.0000 0.78200  0.44600  0.17970  Biso   1.000  H
  H611     1.0000 0.75280  0.47540  0.15600  Biso   1.000  H
  C571     1.0000 0.74060  0.41460  0.14340  Biso   1.000  C
  H612     1.0000 0.75170  0.41680  0.11650  Biso   1.000  H
  H613     1.0000 0.74860  0.38900  0.15490  Biso   1.000  H
  C572     1.0000 0.69571  0.41893  0.14297  Biso   1.000  C
  H614     1.0000 0.68280  0.39300  0.13880  Biso   1.000  H
  H615     1.0000 0.68730  0.43720  0.12180  Biso   1.000  H
  C573     1.0000 0.65760  0.47193  0.17767  Biso   1.000  C
  O122     1.0000 0.62002  0.46442  0.17656  Biso   1.000  O
  O123     1.0000 0.67260  0.50497  0.17206  Biso   1.000  O
  C574     1.0000 0.73220  0.44390  0.13030  Biso   1.000  C
  Cu42     1.0000 0.10684  0.90852  0.68630  Biso   1.000  Cu
  O124     1.0000 0.10236  0.85049  0.68566  Biso   1.000  O
  C575     1.0000 0.11182  0.83232  0.72011  Biso   1.000  C
  C576     1.0000 0.08514  0.80689  0.73896  Biso   1.000  C
  H616     1.0000 0.06010  0.80190  0.72750  Biso   1.000  H
  C577     1.0000 0.09547  0.78911  0.77435  Biso   1.000  C
  H617     1.0000 0.07740  0.77190  0.78710  Biso   1.000  H
  C578     1.0000 0.13236  0.79638  0.79134  Biso   1.000  C
  H618     1.0000 0.13940  0.78410  0.81560  Biso   1.000  H
  C579     1.0000 0.15892  0.82180  0.77249  Biso   1.000  C
  H619     1.0000 0.18390  0.82670  0.78410  Biso   1.000  H
  C580     1.0000 0.14926  0.84001  0.73700  Biso   1.000  C
  C581     1.0000 0.17819  0.86660  0.71529  Biso   1.000  C
  H620     1.0000 0.20300  0.86850  0.73060  Biso   1.000  H
  H621     1.0000 0.18460  0.85480  0.68930  Biso   1.000  H
  N42      1.0000 0.16146  0.90728  0.70924  Biso   1.000  N
  H622     1.0000 0.15860  0.91750  0.73090  Biso   1.000  H
  C582     1.0000 0.18495  0.93610  0.68494  Biso   1.000  C
  C583     1.0000 0.22508  0.94768  0.70372  Biso   1.000  C
  H623     1.0000 0.22300  0.97350  0.71720  Biso   1.000  H
  H624     1.0000 0.23340  0.92760  0.72330  Biso   1.000  H
  C584     1.0000 0.25460  0.94990  0.67020  Biso   1.000  C
  H625     1.0000 0.28200  0.94600  0.67970  Biso   1.000  H
  H626     1.0000 0.25280  0.97540  0.65600  Biso   1.000  H
  C585     1.0000 0.24060  0.91460  0.64340  Biso   1.000  C
  H627     1.0000 0.25170  0.91680  0.61650  Biso   1.000  H
  H628     1.0000 0.24860  0.88900  0.65490  Biso   1.000  H
  C586     1.0000 0.19571  0.91893  0.64297  Biso   1.000  C
  H629     1.0000 0.18280  0.89300  0.63880  Biso   1.000  H
  H630     1.0000 0.18730  0.93720  0.62180  Biso   1.000  H
  C587     1.0000 0.15760  0.97193  0.67767  Biso   1.000  C
  O125     1.0000 0.12002  0.96442  0.67656  Biso   1.000  O
  O126     1.0000 0.17260  0.00497  0.67206  Biso   1.000  O
  C588     1.0000 0.23220  0.94390  0.63030  Biso   1.000  C
  Cu43     1.0000 0.10684  0.09148  0.81370  Biso   1.000  Cu
  O127     1.0000 0.10236  0.14951  0.81434  Biso   1.000  O
  C589     1.0000 0.11182  0.16768  0.77989  Biso   1.000  C
  C590     1.0000 0.08514  0.19311  0.76104  Biso   1.000  C
  H631     1.0000 0.06010  0.19810  0.77250  Biso   1.000  H
  C591     1.0000 0.09547  0.21089  0.72565  Biso   1.000  C
  H632     1.0000 0.07740  0.22810  0.71290  Biso   1.000  H
  C592     1.0000 0.13236  0.20362  0.70866  Biso   1.000  C
  H633     1.0000 0.13940  0.21590  0.68440  Biso   1.000  H
  C593     1.0000 0.15892  0.17820  0.72751  Biso   1.000  C
  H634     1.0000 0.18390  0.17330  0.71590  Biso   1.000  H
  C594     1.0000 0.14926  0.15999  0.76300  Biso   1.000  C
  C595     1.0000 0.17819  0.13340  0.78471  Biso   1.000  C
  H635     1.0000 0.20300  0.13150  0.76940  Biso   1.000  H
  H636     1.0000 0.18460  0.14520  0.81070  Biso   1.000  H
  N43      1.0000 0.16146  0.09272  0.79076  Biso   1.000  N
  H637     1.0000 0.15860  0.08250  0.76910  Biso   1.000  H
  C596     1.0000 0.18495  0.06390  0.81506  Biso   1.000  C
  C597     1.0000 0.22508  0.05232  0.79628  Biso   1.000  C
  H638     1.0000 0.22300  0.02650  0.78280  Biso   1.000  H
  H639     1.0000 0.23340  0.07240  0.77670  Biso   1.000  H
  C598     1.0000 0.25460  0.05010  0.82980  Biso   1.000  C
  H640     1.0000 0.28200  0.05400  0.82030  Biso   1.000  H
  H641     1.0000 0.25280  0.02460  0.84400  Biso   1.000  H
  C599     1.0000 0.24060  0.08540  0.85660  Biso   1.000  C
  H642     1.0000 0.25170  0.08320  0.88350  Biso   1.000  H
  H643     1.0000 0.24860  0.11100  0.84510  Biso   1.000  H
  C600     1.0000 0.19571  0.08107  0.85703  Biso   1.000  C
  H644     1.0000 0.18280  0.10700  0.86120  Biso   1.000  H
  H645     1.0000 0.18730  0.06280  0.87820  Biso   1.000  H
  C601     1.0000 0.15760  0.02807  0.82233  Biso   1.000  C
  O128     1.0000 0.12002  0.03558  0.82344  Biso   1.000  O
  O129     1.0000 0.17260  0.99503  0.82794  Biso   1.000  O
  C602     1.0000 0.23220  0.05610  0.86970  Biso   1.000  C
  Cu44     1.0000 0.60684  0.59148  0.31370  Biso   1.000  Cu
  O130     1.0000 0.60236  0.64951  0.31434  Biso   1.000  O
  C603     1.0000 0.61182  0.66768  0.27989  Biso   1.000  C
  C604     1.0000 0.58514  0.69311  0.26104  Biso   1.000  C
  H646     1.0000 0.56010  0.69810  0.27250  Biso   1.000  H
  C605     1.0000 0.59547  0.71089  0.22565  Biso   1.000  C
  H647     1.0000 0.57740  0.72810  0.21290  Biso   1.000  H
  C606     1.0000 0.63236  0.70362  0.20866  Biso   1.000  C
  H648     1.0000 0.63940  0.71590  0.18440  Biso   1.000  H
  C607     1.0000 0.65892  0.67820  0.22751  Biso   1.000  C
  H649     1.0000 0.68390  0.67330  0.21590  Biso   1.000  H
  C608     1.0000 0.64926  0.65999  0.26300  Biso   1.000  C
  C609     1.0000 0.67819  0.63340  0.28471  Biso   1.000  C
  H650     1.0000 0.70300  0.63150  0.26940  Biso   1.000  H
  H651     1.0000 0.68460  0.64520  0.31070  Biso   1.000  H
  N44      1.0000 0.66146  0.59272  0.29076  Biso   1.000  N
  H652     1.0000 0.65860  0.58250  0.26910  Biso   1.000  H
  C610     1.0000 0.68495  0.56390  0.31506  Biso   1.000  C
  C611     1.0000 0.72508  0.55232  0.29628  Biso   1.000  C
  H653     1.0000 0.72300  0.52650  0.28280  Biso   1.000  H
  H654     1.0000 0.73340  0.57240  0.27670  Biso   1.000  H
  C612     1.0000 0.75460  0.55010  0.32980  Biso   1.000  C
  H655     1.0000 0.78200  0.55400  0.32030  Biso   1.000  H
  H656     1.0000 0.75280  0.52460  0.34400  Biso   1.000  H
  C613     1.0000 0.74060  0.58540  0.35660  Biso   1.000  C
  H657     1.0000 0.75170  0.58320  0.38350  Biso   1.000  H
  H658     1.0000 0.74860  0.61100  0.34510  Biso   1.000  H
  C614     1.0000 0.69571  0.58107  0.35703  Biso   1.000  C
  H659     1.0000 0.68280  0.60700  0.36120  Biso   1.000  H
  H660     1.0000 0.68730  0.56280  0.37820  Biso   1.000  H
  C615     1.0000 0.65760  0.52807  0.32233  Biso   1.000  C
  O131     1.0000 0.62002  0.53558  0.32344  Biso   1.000  O
  O132     1.0000 0.67260  0.49503  0.32794  Biso   1.000  O
  C616     1.0000 0.73220  0.55610  0.36970  Biso   1.000  C
  Cu45     1.0000 0.39316  0.90852  0.31370  Biso   1.000  Cu
  O133     1.0000 0.39764  0.85049  0.31434  Biso   1.000  O
  C617     1.0000 0.38818  0.83232  0.27989  Biso   1.000  C
  C618     1.0000 0.41486  0.80689  0.26104  Biso   1.000  C
  H661     1.0000 0.43990  0.80190  0.27250  Biso   1.000  H
  C619     1.0000 0.40453  0.78911  0.22565  Biso   1.000  C
  H662     1.0000 0.42260  0.77190  0.21290  Biso   1.000  H
  C620     1.0000 0.36764  0.79638  0.20866  Biso   1.000  C
  H663     1.0000 0.36060  0.78410  0.18440  Biso   1.000  H
  C621     1.0000 0.34108  0.82180  0.22751  Biso   1.000  C
  H664     1.0000 0.31610  0.82670  0.21590  Biso   1.000  H
  C622     1.0000 0.35074  0.84001  0.26300  Biso   1.000  C
  C623     1.0000 0.32181  0.86660  0.28471  Biso   1.000  C
  H665     1.0000 0.29700  0.86850  0.26940  Biso   1.000  H
  H666     1.0000 0.31540  0.85480  0.31070  Biso   1.000  H
  N45      1.0000 0.33854  0.90728  0.29076  Biso   1.000  N
  H667     1.0000 0.34140  0.91750  0.26910  Biso   1.000  H
  C624     1.0000 0.31505  0.93610  0.31506  Biso   1.000  C
  C625     1.0000 0.27492  0.94768  0.29628  Biso   1.000  C
  H668     1.0000 0.27700  0.97350  0.28280  Biso   1.000  H
  H669     1.0000 0.26660  0.92760  0.27670  Biso   1.000  H
  C626     1.0000 0.24540  0.94990  0.32980  Biso   1.000  C
  H670     1.0000 0.21800  0.94600  0.32030  Biso   1.000  H
  H671     1.0000 0.24720  0.97540  0.34400  Biso   1.000  H
  C627     1.0000 0.25940  0.91460  0.35660  Biso   1.000  C
  H672     1.0000 0.24830  0.91680  0.38350  Biso   1.000  H
  H673     1.0000 0.25140  0.88900  0.34510  Biso   1.000  H
  C628     1.0000 0.30429  0.91893  0.35703  Biso   1.000  C
  H674     1.0000 0.31720  0.89300  0.36120  Biso   1.000  H
  H675     1.0000 0.31270  0.93720  0.37820  Biso   1.000  H
  C629     1.0000 0.34240  0.97193  0.32233  Biso   1.000  C
  O134     1.0000 0.37998  0.96442  0.32344  Biso   1.000  O
  O135     1.0000 0.32740  0.00497  0.32794  Biso   1.000  O
  C630     1.0000 0.26780  0.94390  0.36970  Biso   1.000  C
  Cu46     1.0000 0.89316  0.40852  0.81370  Biso   1.000  Cu
  O136     1.0000 0.89764  0.35049  0.81434  Biso   1.000  O
  C631     1.0000 0.88818  0.33232  0.77989  Biso   1.000  C
  C632     1.0000 0.91486  0.30689  0.76104  Biso   1.000  C
  H676     1.0000 0.93990  0.30190  0.77250  Biso   1.000  H
  C633     1.0000 0.90453  0.28911  0.72565  Biso   1.000  C
  H677     1.0000 0.92260  0.27190  0.71290  Biso   1.000  H
  C634     1.0000 0.86764  0.29638  0.70866  Biso   1.000  C
  H678     1.0000 0.86060  0.28410  0.68440  Biso   1.000  H
  C635     1.0000 0.84108  0.32180  0.72751  Biso   1.000  C
  H679     1.0000 0.81610  0.32670  0.71590  Biso   1.000  H
  C636     1.0000 0.85074  0.34001  0.76300  Biso   1.000  C
  C637     1.0000 0.82181  0.36660  0.78471  Biso   1.000  C
  H680     1.0000 0.79700  0.36850  0.76940  Biso   1.000  H
  H681     1.0000 0.81540  0.35480  0.81070  Biso   1.000  H
  N46      1.0000 0.83854  0.40728  0.79076  Biso   1.000  N
  H682     1.0000 0.84140  0.41750  0.76910  Biso   1.000  H
  C638     1.0000 0.81505  0.43610  0.81506  Biso   1.000  C
  C639     1.0000 0.77492  0.44768  0.79628  Biso   1.000  C
  H683     1.0000 0.77700  0.47350  0.78280  Biso   1.000  H
  H684     1.0000 0.76660  0.42760  0.77670  Biso   1.000  H
  C640     1.0000 0.74540  0.44990  0.82980  Biso   1.000  C
  H685     1.0000 0.71800  0.44600  0.82030  Biso   1.000  H
  H686     1.0000 0.74720  0.47540  0.84400  Biso   1.000  H
  C641     1.0000 0.75940  0.41460  0.85660  Biso   1.000  C
  H687     1.0000 0.74830  0.41680  0.88350  Biso   1.000  H
  H688     1.0000 0.75140  0.38900  0.84510  Biso   1.000  H
  C642     1.0000 0.80429  0.41893  0.85703  Biso   1.000  C
  H689     1.0000 0.81720  0.39300  0.86120  Biso   1.000  H
  H690     1.0000 0.81270  0.43720  0.87820  Biso   1.000  H
  C643     1.0000 0.84240  0.47193  0.82233  Biso   1.000  C
  O137     1.0000 0.87998  0.46442  0.82344  Biso   1.000  O
  O138     1.0000 0.82740  0.50497  0.82794  Biso   1.000  O
  C644     1.0000 0.76780  0.44390  0.86970  Biso   1.000  C
  Cu47     1.0000 0.89316  0.59148  0.68630  Biso   1.000  Cu
  O139     1.0000 0.89764  0.64951  0.68566  Biso   1.000  O
  C645     1.0000 0.88818  0.66768  0.72011  Biso   1.000  C
  C646     1.0000 0.91486  0.69311  0.73896  Biso   1.000  C
  H691     1.0000 0.93990  0.69810  0.72750  Biso   1.000  H
  C647     1.0000 0.90453  0.71089  0.77435  Biso   1.000  C
  H692     1.0000 0.92260  0.72810  0.78710  Biso   1.000  H
  C648     1.0000 0.86764  0.70362  0.79134  Biso   1.000  C
  H693     1.0000 0.86060  0.71590  0.81560  Biso   1.000  H
  C649     1.0000 0.84108  0.67820  0.77249  Biso   1.000  C
  H694     1.0000 0.81610  0.67330  0.78410  Biso   1.000  H
  C650     1.0000 0.85074  0.65999  0.73700  Biso   1.000  C
  C651     1.0000 0.82181  0.63340  0.71529  Biso   1.000  C
  H695     1.0000 0.79700  0.63150  0.73060  Biso   1.000  H
  H696     1.0000 0.81540  0.64520  0.68930  Biso   1.000  H
  N47      1.0000 0.83854  0.59272  0.70924  Biso   1.000  N
  H697     1.0000 0.84140  0.58250  0.73090  Biso   1.000  H
  C652     1.0000 0.81505  0.56390  0.68494  Biso   1.000  C
  C653     1.0000 0.77492  0.55232  0.70372  Biso   1.000  C
  H698     1.0000 0.77700  0.52650  0.71720  Biso   1.000  H
  H699     1.0000 0.76660  0.57240  0.72330  Biso   1.000  H
  C654     1.0000 0.74540  0.55010  0.67020  Biso   1.000  C
  H700     1.0000 0.71800  0.55400  0.67970  Biso   1.000  H
  H701     1.0000 0.74720  0.52460  0.65600  Biso   1.000  H
  C655     1.0000 0.75940  0.58540  0.64340  Biso   1.000  C
  H702     1.0000 0.74830  0.58320  0.61650  Biso   1.000  H
  H703     1.0000 0.75140  0.61100  0.65490  Biso   1.000  H
  C656     1.0000 0.80429  0.58107  0.64297  Biso   1.000  C
  H704     1.0000 0.81720  0.60700  0.63880  Biso   1.000  H
  H705     1.0000 0.81270  0.56280  0.62180  Biso   1.000  H
  C657     1.0000 0.84240  0.52807  0.67767  Biso   1.000  C
  O140     1.0000 0.87998  0.53558  0.67656  Biso   1.000  O
  O141     1.0000 0.82740  0.49503  0.67206  Biso   1.000  O
  C658     1.0000 0.76780  0.55610  0.63030  Biso   1.000  C
  Cu48     1.0000 0.39316  0.09148  0.18630  Biso   1.000  Cu
  O142     1.0000 0.39764  0.14951  0.18566  Biso   1.000  O
  C659     1.0000 0.38818  0.16768  0.22011  Biso   1.000  C
  C660     1.0000 0.41486  0.19311  0.23896  Biso   1.000  C
  H706     1.0000 0.43990  0.19810  0.22750  Biso   1.000  H
  C661     1.0000 0.40453  0.21089  0.27435  Biso   1.000  C
  H707     1.0000 0.42260  0.22810  0.28710  Biso   1.000  H
  C662     1.0000 0.36764  0.20362  0.29134  Biso   1.000  C
  H708     1.0000 0.36060  0.21590  0.31560  Biso   1.000  H
  C663     1.0000 0.34108  0.17820  0.27249  Biso   1.000  C
  H709     1.0000 0.31610  0.17330  0.28410  Biso   1.000  H
  C664     1.0000 0.35074  0.15999  0.23700  Biso   1.000  C
  C665     1.0000 0.32181  0.13340  0.21529  Biso   1.000  C
  H710     1.0000 0.29700  0.13150  0.23060  Biso   1.000  H
  H711     1.0000 0.31540  0.14520  0.18930  Biso   1.000  H
  N48      1.0000 0.33854  0.09272  0.20924  Biso   1.000  N
  H712     1.0000 0.34140  0.08250  0.23090  Biso   1.000  H
  C666     1.0000 0.31505  0.06390  0.18494  Biso   1.000  C
  C667     1.0000 0.27492  0.05232  0.20372  Biso   1.000  C
  H713     1.0000 0.27700  0.02650  0.21720  Biso   1.000  H
  H714     1.0000 0.26660  0.07240  0.22330  Biso   1.000  H
  C668     1.0000 0.24540  0.05010  0.17020  Biso   1.000  C
  H715     1.0000 0.21800  0.05400  0.17970  Biso   1.000  H
  H716     1.0000 0.24720  0.02460  0.15600  Biso   1.000  H
  C669     1.0000 0.25940  0.08540  0.14340  Biso   1.000  C
  H717     1.0000 0.24830  0.08320  0.11650  Biso   1.000  H
  H718     1.0000 0.25140  0.11100  0.15490  Biso   1.000  H
  C670     1.0000 0.30429  0.08107  0.14297  Biso   1.000  C
  H719     1.0000 0.31720  0.10700  0.13880  Biso   1.000  H
  H720     1.0000 0.31270  0.06280  0.12180  Biso   1.000  H
  C671     1.0000 0.34240  0.02807  0.17767  Biso   1.000  C
  O143     1.0000 0.37998  0.03558  0.17656  Biso   1.000  O
  O144     1.0000 0.32740  0.99503  0.17206  Biso   1.000  O
  C672     1.0000 0.26780  0.05610  0.13030  Biso   1.000  C
  Cu49     1.0000 0.93630  0.84148  0.14316  Biso   1.000  Cu
  O145     1.0000 0.93566  0.89951  0.14764  Biso   1.000  O
  C673     1.0000 0.97011  0.91768  0.13818  Biso   1.000  C
  C674     1.0000 0.98896  0.94311  0.16486  Biso   1.000  C
  H721     1.0000 0.97750  0.94810  0.18990  Biso   1.000  H
  C675     1.0000 0.02435  0.96089  0.15453  Biso   1.000  C
  H722     1.0000 0.03710  0.97810  0.17260  Biso   1.000  H
  C676     1.0000 0.04134  0.95362  0.11764  Biso   1.000  C
  H723     1.0000 0.06560  0.96590  0.11060  Biso   1.000  H
  C677     1.0000 0.02249  0.92820  0.09108  Biso   1.000  C
  H724     1.0000 0.03410  0.92330  0.06610  Biso   1.000  H
  C678     1.0000 0.98700  0.90999  0.10074  Biso   1.000  C
  C679     1.0000 0.96529  0.88340  0.07181  Biso   1.000  C
  H725     1.0000 0.98060  0.88150  0.04700  Biso   1.000  H
  H726     1.0000 0.93930  0.89520  0.06540  Biso   1.000  H
  N49      1.0000 0.95924  0.84272  0.08854  Biso   1.000  N
  H727     1.0000 0.98090  0.83250  0.09140  Biso   1.000  H
  C680     1.0000 0.93494  0.81390  0.06505  Biso   1.000  C
  C681     1.0000 0.95372  0.80232  0.02492  Biso   1.000  C
  H728     1.0000 0.96720  0.77650  0.02700  Biso   1.000  H
  H729     1.0000 0.97330  0.82240  0.01660  Biso   1.000  H
  C682     1.0000 0.92020  0.80010  0.99540  Biso   1.000  C
  H730     1.0000 0.92970  0.80400  0.96800  Biso   1.000  H
  H731     1.0000 0.90600  0.77460  0.99720  Biso   1.000  H
  C683     1.0000 0.89340  0.83540  0.00940  Biso   1.000  C
  H732     1.0000 0.86650  0.83320  0.99830  Biso   1.000  H
  H733     1.0000 0.90490  0.86100  0.00140  Biso   1.000  H
  C684     1.0000 0.89297  0.83107  0.05429  Biso   1.000  C
  H734     1.0000 0.88880  0.85700  0.06720  Biso   1.000  H
  H735     1.0000 0.87180  0.81280  0.06270  Biso   1.000  H
  C685     1.0000 0.92767  0.77807  0.09240  Biso   1.000  C
  O146     1.0000 0.92656  0.78558  0.12998  Biso   1.000  O
  O147     1.0000 0.92206  0.74503  0.07740  Biso   1.000  O
  C686     1.0000 0.88030  0.80610  0.01780  Biso   1.000  C
  Cu50     1.0000 0.43630  0.34148  0.64316  Biso   1.000  Cu
  O148     1.0000 0.43566  0.39951  0.64764  Biso   1.000  O
  C687     1.0000 0.47011  0.41768  0.63818  Biso   1.000  C
  C688     1.0000 0.48896  0.44311  0.66486  Biso   1.000  C
  H736     1.0000 0.47750  0.44810  0.68990  Biso   1.000  H
  C689     1.0000 0.52435  0.46089  0.65453  Biso   1.000  C
  H737     1.0000 0.53710  0.47810  0.67260  Biso   1.000  H
  C690     1.0000 0.54134  0.45362  0.61764  Biso   1.000  C
  H738     1.0000 0.56560  0.46590  0.61060  Biso   1.000  H
  C691     1.0000 0.52249  0.42820  0.59108  Biso   1.000  C
  H739     1.0000 0.53410  0.42330  0.56610  Biso   1.000  H
  C692     1.0000 0.48700  0.40999  0.60074  Biso   1.000  C
  C693     1.0000 0.46529  0.38340  0.57181  Biso   1.000  C
  H740     1.0000 0.48060  0.38150  0.54700  Biso   1.000  H
  H741     1.0000 0.43930  0.39520  0.56540  Biso   1.000  H
  N50      1.0000 0.45924  0.34272  0.58854  Biso   1.000  N
  H742     1.0000 0.48090  0.33250  0.59140  Biso   1.000  H
  C694     1.0000 0.43494  0.31390  0.56505  Biso   1.000  C
  C695     1.0000 0.45372  0.30232  0.52492  Biso   1.000  C
  H743     1.0000 0.46720  0.27650  0.52700  Biso   1.000  H
  H744     1.0000 0.47330  0.32240  0.51660  Biso   1.000  H
  C696     1.0000 0.42020  0.30010  0.49540  Biso   1.000  C
  H745     1.0000 0.42970  0.30400  0.46800  Biso   1.000  H
  H746     1.0000 0.40600  0.27460  0.49720  Biso   1.000  H
  C697     1.0000 0.39340  0.33540  0.50940  Biso   1.000  C
  H747     1.0000 0.36650  0.33320  0.49830  Biso   1.000  H
  H748     1.0000 0.40490  0.36100  0.50140  Biso   1.000  H
  C698     1.0000 0.39297  0.33107  0.55429  Biso   1.000  C
  H749     1.0000 0.38880  0.35700  0.56720  Biso   1.000  H
  H750     1.0000 0.37180  0.31280  0.56270  Biso   1.000  H
  C699     1.0000 0.42767  0.27807  0.59240  Biso   1.000  C
  O149     1.0000 0.42656  0.28558  0.62998  Biso   1.000  O
  O150     1.0000 0.42206  0.24503  0.57740  Biso   1.000  O
  C700     1.0000 0.38030  0.30610  0.51780  Biso   1.000  C
  Cu51     1.0000 0.56370  0.15852  0.64316  Biso   1.000  Cu
  O151     1.0000 0.56434  0.10049  0.64764  Biso   1.000  O
  C701     1.0000 0.52989  0.08232  0.63818  Biso   1.000  C
  C702     1.0000 0.51104  0.05689  0.66486  Biso   1.000  C
  H751     1.0000 0.52250  0.05190  0.68990  Biso   1.000  H
  C703     1.0000 0.47565  0.03911  0.65453  Biso   1.000  C
  H752     1.0000 0.46290  0.02190  0.67260  Biso   1.000  H
  C704     1.0000 0.45866  0.04638  0.61764  Biso   1.000  C
  H753     1.0000 0.43440  0.03410  0.61060  Biso   1.000  H
  C705     1.0000 0.47751  0.07180  0.59108  Biso   1.000  C
  H754     1.0000 0.46590  0.07670  0.56610  Biso   1.000  H
  C706     1.0000 0.51300  0.09001  0.60074  Biso   1.000  C
  C707     1.0000 0.53471  0.11660  0.57181  Biso   1.000  C
  H755     1.0000 0.51940  0.11850  0.54700  Biso   1.000  H
  H756     1.0000 0.56070  0.10480  0.56540  Biso   1.000  H
  N51      1.0000 0.54076  0.15728  0.58854  Biso   1.000  N
  H757     1.0000 0.51910  0.16750  0.59140  Biso   1.000  H
  C708     1.0000 0.56506  0.18610  0.56505  Biso   1.000  C
  C709     1.0000 0.54628  0.19768  0.52492  Biso   1.000  C
  H758     1.0000 0.53280  0.22350  0.52700  Biso   1.000  H
  H759     1.0000 0.52670  0.17760  0.51660  Biso   1.000  H
  C710     1.0000 0.57980  0.19990  0.49540  Biso   1.000  C
  H760     1.0000 0.57030  0.19600  0.46800  Biso   1.000  H
  H761     1.0000 0.59400  0.22540  0.49720  Biso   1.000  H
  C711     1.0000 0.60660  0.16460  0.50940  Biso   1.000  C
  H762     1.0000 0.63350  0.16680  0.49830  Biso   1.000  H
  H763     1.0000 0.59510  0.13900  0.50140  Biso   1.000  H
  C712     1.0000 0.60703  0.16893  0.55429  Biso   1.000  C
  H764     1.0000 0.61120  0.14300  0.56720  Biso   1.000  H
  H765     1.0000 0.62820  0.18720  0.56270  Biso   1.000  H
  C713     1.0000 0.57233  0.22193  0.59240  Biso   1.000  C
  O152     1.0000 0.57344  0.21442  0.62998  Biso   1.000  O
  O153     1.0000 0.57794  0.25497  0.57740  Biso   1.000  O
  C714     1.0000 0.61970  0.19390  0.51780  Biso   1.000  C
  Cu52     1.0000 0.06370  0.65852  0.14316  Biso   1.000  Cu
  O154     1.0000 0.06434  0.60049  0.14764  Biso   1.000  O
  C715     1.0000 0.02989  0.58232  0.13818  Biso   1.000  C
  C716     1.0000 0.01104  0.55689  0.16486  Biso   1.000  C
  H766     1.0000 0.02250  0.55190  0.18990  Biso   1.000  H
  C717     1.0000 0.97565  0.53911  0.15453  Biso   1.000  C
  H767     1.0000 0.96290  0.52190  0.17260  Biso   1.000  H
  C718     1.0000 0.95866  0.54638  0.11764  Biso   1.000  C
  H768     1.0000 0.93440  0.53410  0.11060  Biso   1.000  H
  C719     1.0000 0.97751  0.57180  0.09108  Biso   1.000  C
  H769     1.0000 0.96590  0.57670  0.06610  Biso   1.000  H
  C720     1.0000 0.01300  0.59001  0.10074  Biso   1.000  C
  C721     1.0000 0.03471  0.61660  0.07181  Biso   1.000  C
  H770     1.0000 0.01940  0.61850  0.04700  Biso   1.000  H
  H771     1.0000 0.06070  0.60480  0.06540  Biso   1.000  H
  N52      1.0000 0.04076  0.65728  0.08854  Biso   1.000  N
  H772     1.0000 0.01910  0.66750  0.09140  Biso   1.000  H
  C722     1.0000 0.06506  0.68610  0.06505  Biso   1.000  C
  C723     1.0000 0.04628  0.69768  0.02492  Biso   1.000  C
  H773     1.0000 0.03280  0.72350  0.02700  Biso   1.000  H
  H774     1.0000 0.02670  0.67760  0.01660  Biso   1.000  H
  C724     1.0000 0.07980  0.69990  0.99540  Biso   1.000  C
  H775     1.0000 0.07030  0.69600  0.96800  Biso   1.000  H
  H776     1.0000 0.09400  0.72540  0.99720  Biso   1.000  H
  C725     1.0000 0.10660  0.66460  0.00940  Biso   1.000  C
  H777     1.0000 0.13350  0.66680  0.99830  Biso   1.000  H
  H778     1.0000 0.09510  0.63900  0.00140  Biso   1.000  H
  C726     1.0000 0.10703  0.66893  0.05429  Biso   1.000  C
  H779     1.0000 0.11120  0.64300  0.06720  Biso   1.000  H
  H780     1.0000 0.12820  0.68720  0.06270  Biso   1.000  H
  C727     1.0000 0.07233  0.72193  0.09240  Biso   1.000  C
  O155     1.0000 0.07344  0.71442  0.12998  Biso   1.000  O
  O156     1.0000 0.07794  0.75497  0.07740  Biso   1.000  O
  C728     1.0000 0.11970  0.69390  0.01780  Biso   1.000  C
  Cu53     1.0000 0.06370  0.34148  0.35684  Biso   1.000  Cu
  O157     1.0000 0.06434  0.39951  0.35236  Biso   1.000  O
  C729     1.0000 0.02989  0.41768  0.36182  Biso   1.000  C
  C730     1.0000 0.01104  0.44311  0.33514  Biso   1.000  C
  H781     1.0000 0.02250  0.44810  0.31010  Biso   1.000  H
  C731     1.0000 0.97565  0.46089  0.34547  Biso   1.000  C
  H782     1.0000 0.96290  0.47810  0.32740  Biso   1.000  H
  C732     1.0000 0.95866  0.45362  0.38236  Biso   1.000  C
  H783     1.0000 0.93440  0.46590  0.38940  Biso   1.000  H
  C733     1.0000 0.97751  0.42820  0.40892  Biso   1.000  C
  H784     1.0000 0.96590  0.42330  0.43390  Biso   1.000  H
  C734     1.0000 0.01300  0.40999  0.39926  Biso   1.000  C
  C735     1.0000 0.03471  0.38340  0.42819  Biso   1.000  C
  H785     1.0000 0.01940  0.38150  0.45300  Biso   1.000  H
  H786     1.0000 0.06070  0.39520  0.43460  Biso   1.000  H
  N53      1.0000 0.04076  0.34272  0.41146  Biso   1.000  N
  H787     1.0000 0.01910  0.33250  0.40860  Biso   1.000  H
  C736     1.0000 0.06506  0.31390  0.43495  Biso   1.000  C
  C737     1.0000 0.04628  0.30232  0.47508  Biso   1.000  C
  H788     1.0000 0.03280  0.27650  0.47300  Biso   1.000  H
  H789     1.0000 0.02670  0.32240  0.48340  Biso   1.000  H
  C738     1.0000 0.07980  0.30010  0.50460  Biso   1.000  C
  H790     1.0000 0.07030  0.30400  0.53200  Biso   1.000  H
  H791     1.0000 0.09400  0.27460  0.50280  Biso   1.000  H
  C739     1.0000 0.10660  0.33540  0.49060  Biso   1.000  C
  H792     1.0000 0.13350  0.33320  0.50170  Biso   1.000  H
  H793     1.0000 0.09510  0.36100  0.49860  Biso   1.000  H
  C740     1.0000 0.10703  0.33107  0.44571  Biso   1.000  C
  H794     1.0000 0.11120  0.35700  0.43280  Biso   1.000  H
  H795     1.0000 0.12820  0.31280  0.43730  Biso   1.000  H
  C741     1.0000 0.07233  0.27807  0.40760  Biso   1.000  C
  O158     1.0000 0.07344  0.28558  0.37002  Biso   1.000  O
  O159     1.0000 0.07794  0.24503  0.42260  Biso   1.000  O
  C742     1.0000 0.11970  0.30610  0.48220  Biso   1.000  C
  Cu54     1.0000 0.56370  0.84148  0.85684  Biso   1.000  Cu
  O160     1.0000 0.56434  0.89951  0.85236  Biso   1.000  O
  C743     1.0000 0.52989  0.91768  0.86182  Biso   1.000  C
  C744     1.0000 0.51104  0.94311  0.83514  Biso   1.000  C
  H796     1.0000 0.52250  0.94810  0.81010  Biso   1.000  H
  C745     1.0000 0.47565  0.96089  0.84547  Biso   1.000  C
  H797     1.0000 0.46290  0.97810  0.82740  Biso   1.000  H
  C746     1.0000 0.45866  0.95362  0.88236  Biso   1.000  C
  H798     1.0000 0.43440  0.96590  0.88940  Biso   1.000  H
  C747     1.0000 0.47751  0.92820  0.90892  Biso   1.000  C
  H799     1.0000 0.46590  0.92330  0.93390  Biso   1.000  H
  C748     1.0000 0.51300  0.90999  0.89926  Biso   1.000  C
  C749     1.0000 0.53471  0.88340  0.92819  Biso   1.000  C
  H800     1.0000 0.51940  0.88150  0.95300  Biso   1.000  H
  H801     1.0000 0.56070  0.89520  0.93460  Biso   1.000  H
  N54      1.0000 0.54076  0.84272  0.91146  Biso   1.000  N
  H802     1.0000 0.51910  0.83250  0.90860  Biso   1.000  H
  C750     1.0000 0.56506  0.81390  0.93495  Biso   1.000  C
  C751     1.0000 0.54628  0.80232  0.97508  Biso   1.000  C
  H803     1.0000 0.53280  0.77650  0.97300  Biso   1.000  H
  H804     1.0000 0.52670  0.82240  0.98340  Biso   1.000  H
  C752     1.0000 0.57980  0.80010  0.00460  Biso   1.000  C
  H805     1.0000 0.57030  0.80400  0.03200  Biso   1.000  H
  H806     1.0000 0.59400  0.77460  0.00280  Biso   1.000  H
  C753     1.0000 0.60660  0.83540  0.99060  Biso   1.000  C
  H807     1.0000 0.63350  0.83320  0.00170  Biso   1.000  H
  H808     1.0000 0.59510  0.86100  0.99860  Biso   1.000  H
  C754     1.0000 0.60703  0.83107  0.94571  Biso   1.000  C
  H809     1.0000 0.61120  0.85700  0.93280  Biso   1.000  H
  H810     1.0000 0.62820  0.81280  0.93730  Biso   1.000  H
  C755     1.0000 0.57233  0.77807  0.90760  Biso   1.000  C
  O161     1.0000 0.57344  0.78558  0.87002  Biso   1.000  O
  O162     1.0000 0.57794  0.74503  0.92260  Biso   1.000  O
  C756     1.0000 0.61970  0.80610  0.98220  Biso   1.000  C
  Cu55     1.0000 0.43630  0.65852  0.85684  Biso   1.000  Cu
  O163     1.0000 0.43566  0.60049  0.85236  Biso   1.000  O
  C757     1.0000 0.47011  0.58232  0.86182  Biso   1.000  C
  C758     1.0000 0.48896  0.55689  0.83514  Biso   1.000  C
  H811     1.0000 0.47750  0.55190  0.81010  Biso   1.000  H
  C759     1.0000 0.52435  0.53911  0.84547  Biso   1.000  C
  H812     1.0000 0.53710  0.52190  0.82740  Biso   1.000  H
  C760     1.0000 0.54134  0.54638  0.88236  Biso   1.000  C
  H813     1.0000 0.56560  0.53410  0.88940  Biso   1.000  H
  C761     1.0000 0.52249  0.57180  0.90892  Biso   1.000  C
  H814     1.0000 0.53410  0.57670  0.93390  Biso   1.000  H
  C762     1.0000 0.48700  0.59001  0.89926  Biso   1.000  C
  C763     1.0000 0.46529  0.61660  0.92819  Biso   1.000  C
  H815     1.0000 0.48060  0.61850  0.95300  Biso   1.000  H
  H816     1.0000 0.43930  0.60480  0.93460  Biso   1.000  H
  N55      1.0000 0.45924  0.65728  0.91146  Biso   1.000  N
  H817     1.0000 0.48090  0.66750  0.90860  Biso   1.000  H
  C764     1.0000 0.43494  0.68610  0.93495  Biso   1.000  C
  C765     1.0000 0.45372  0.69768  0.97508  Biso   1.000  C
  H818     1.0000 0.46720  0.72350  0.97300  Biso   1.000  H
  H819     1.0000 0.47330  0.67760  0.98340  Biso   1.000  H
  C766     1.0000 0.42020  0.69990  0.00460  Biso   1.000  C
  H820     1.0000 0.42970  0.69600  0.03200  Biso   1.000  H
  H821     1.0000 0.40600  0.72540  0.00280  Biso   1.000  H
  C767     1.0000 0.39340  0.66460  0.99060  Biso   1.000  C
  H822     1.0000 0.36650  0.66680  0.00170  Biso   1.000  H
  H823     1.0000 0.40490  0.63900  0.99860  Biso   1.000  H
  C768     1.0000 0.39297  0.66893  0.94571  Biso   1.000  C
  H824     1.0000 0.38880  0.64300  0.93280  Biso   1.000  H
  H825     1.0000 0.37180  0.68720  0.93730  Biso   1.000  H
  C769     1.0000 0.42767  0.72193  0.90760  Biso   1.000  C
  O164     1.0000 0.42656  0.71442  0.87002  Biso   1.000  O
  O165     1.0000 0.42206  0.75497  0.92260  Biso   1.000  O
  C770     1.0000 0.38030  0.69390  0.98220  Biso   1.000  C
  Cu56     1.0000 0.93630  0.15852  0.35684  Biso   1.000  Cu
  O166     1.0000 0.93566  0.10049  0.35236  Biso   1.000  O
  C771     1.0000 0.97011  0.08232  0.36182  Biso   1.000  C
  C772     1.0000 0.98896  0.05689  0.33514  Biso   1.000  C
  H826     1.0000 0.97750  0.05190  0.31010  Biso   1.000  H
  C773     1.0000 0.02435  0.03911  0.34547  Biso   1.000  C
  H827     1.0000 0.03710  0.02190  0.32740  Biso   1.000  H
  C774     1.0000 0.04134  0.04638  0.38236  Biso   1.000  C
  H828     1.0000 0.06560  0.03410  0.38940  Biso   1.000  H
  C775     1.0000 0.02249  0.07180  0.40892  Biso   1.000  C
  H829     1.0000 0.03410  0.07670  0.43390  Biso   1.000  H
  C776     1.0000 0.98700  0.09001  0.39926  Biso   1.000  C
  C777     1.0000 0.96529  0.11660  0.42819  Biso   1.000  C
  H830     1.0000 0.98060  0.11850  0.45300  Biso   1.000  H
  H831     1.0000 0.93930  0.10480  0.43460  Biso   1.000  H
  N56      1.0000 0.95924  0.15728  0.41146  Biso   1.000  N
  H832     1.0000 0.98090  0.16750  0.40860  Biso   1.000  H
  C778     1.0000 0.93494  0.18610  0.43495  Biso   1.000  C
  C779     1.0000 0.95372  0.19768  0.47508  Biso   1.000  C
  H833     1.0000 0.96720  0.22350  0.47300  Biso   1.000  H
  H834     1.0000 0.97330  0.17760  0.48340  Biso   1.000  H
  C780     1.0000 0.92020  0.19990  0.50460  Biso   1.000  C
  H835     1.0000 0.92970  0.19600  0.53200  Biso   1.000  H
  H836     1.0000 0.90600  0.22540  0.50280  Biso   1.000  H
  C781     1.0000 0.89340  0.16460  0.49060  Biso   1.000  C
  H837     1.0000 0.86650  0.16680  0.50170  Biso   1.000  H
  H838     1.0000 0.90490  0.13900  0.49860  Biso   1.000  H
  C782     1.0000 0.89297  0.16893  0.44571  Biso   1.000  C
  H839     1.0000 0.88880  0.14300  0.43280  Biso   1.000  H
  H840     1.0000 0.87180  0.18720  0.43730  Biso   1.000  H
  C783     1.0000 0.92767  0.22193  0.40760  Biso   1.000  C
  O167     1.0000 0.92656  0.21442  0.37002  Biso   1.000  O
  O168     1.0000 0.92206  0.25497  0.42260  Biso   1.000  O
  C784     1.0000 0.88030  0.19390  0.48220  Biso   1.000  C
  Cu57     1.0000 0.14316  0.93630  0.84148  Biso   1.000  Cu
  O169     1.0000 0.14764  0.93566  0.89951  Biso   1.000  O
  C785     1.0000 0.13818  0.97011  0.91768  Biso   1.000  C
  C786     1.0000 0.16486  0.98896  0.94311  Biso   1.000  C
  H841     1.0000 0.18990  0.97750  0.94810  Biso   1.000  H
  C787     1.0000 0.15453  0.02435  0.96089  Biso   1.000  C
  H842     1.0000 0.17260  0.03710  0.97810  Biso   1.000  H
  C788     1.0000 0.11764  0.04134  0.95362  Biso   1.000  C
  H843     1.0000 0.11060  0.06560  0.96590  Biso   1.000  H
  C789     1.0000 0.09108  0.02249  0.92820  Biso   1.000  C
  H844     1.0000 0.06610  0.03410  0.92330  Biso   1.000  H
  C790     1.0000 0.10074  0.98700  0.90999  Biso   1.000  C
  C791     1.0000 0.07181  0.96529  0.88340  Biso   1.000  C
  H845     1.0000 0.04700  0.98060  0.88150  Biso   1.000  H
  H846     1.0000 0.06540  0.93930  0.89520  Biso   1.000  H
  N57      1.0000 0.08854  0.95924  0.84272  Biso   1.000  N
  H847     1.0000 0.09140  0.98090  0.83250  Biso   1.000  H
  C792     1.0000 0.06505  0.93494  0.81390  Biso   1.000  C
  C793     1.0000 0.02492  0.95372  0.80232  Biso   1.000  C
  H848     1.0000 0.02700  0.96720  0.77650  Biso   1.000  H
  H849     1.0000 0.01660  0.97330  0.82240  Biso   1.000  H
  C794     1.0000 0.99540  0.92020  0.80010  Biso   1.000  C
  H850     1.0000 0.96800  0.92970  0.80400  Biso   1.000  H
  H851     1.0000 0.99720  0.90600  0.77460  Biso   1.000  H
  C795     1.0000 0.00940  0.89340  0.83540  Biso   1.000  C
  H852     1.0000 0.99830  0.86650  0.83320  Biso   1.000  H
  H853     1.0000 0.00140  0.90490  0.86100  Biso   1.000  H
  C796     1.0000 0.05429  0.89297  0.83107  Biso   1.000  C
  H854     1.0000 0.06720  0.88880  0.85700  Biso   1.000  H
  H855     1.0000 0.06270  0.87180  0.81280  Biso   1.000  H
  C797     1.0000 0.09240  0.92767  0.77807  Biso   1.000  C
  O170     1.0000 0.12998  0.92656  0.78558  Biso   1.000  O
  O171     1.0000 0.07740  0.92206  0.74503  Biso   1.000  O
  C798     1.0000 0.01780  0.88030  0.80610  Biso   1.000  C
  Cu58     1.0000 0.64316  0.43630  0.34148  Biso   1.000  Cu
  O172     1.0000 0.64764  0.43566  0.39951  Biso   1.000  O
  C799     1.0000 0.63818  0.47011  0.41768  Biso   1.000  C
  C800     1.0000 0.66486  0.48896  0.44311  Biso   1.000  C
  H856     1.0000 0.68990  0.47750  0.44810  Biso   1.000  H
  C801     1.0000 0.65453  0.52435  0.46089  Biso   1.000  C
  H857     1.0000 0.67260  0.53710  0.47810  Biso   1.000  H
  C802     1.0000 0.61764  0.54134  0.45362  Biso   1.000  C
  H858     1.0000 0.61060  0.56560  0.46590  Biso   1.000  H
  C803     1.0000 0.59108  0.52249  0.42820  Biso   1.000  C
  H859     1.0000 0.56610  0.53410  0.42330  Biso   1.000  H
  C804     1.0000 0.60074  0.48700  0.40999  Biso   1.000  C
  C805     1.0000 0.57181  0.46529  0.38340  Biso   1.000  C
  H860     1.0000 0.54700  0.48060  0.38150  Biso   1.000  H
  H861     1.0000 0.56540  0.43930  0.39520  Biso   1.000  H
  N58      1.0000 0.58854  0.45924  0.34272  Biso   1.000  N
  H862     1.0000 0.59140  0.48090  0.33250  Biso   1.000  H
  C806     1.0000 0.56505  0.43494  0.31390  Biso   1.000  C
  C807     1.0000 0.52492  0.45372  0.30232  Biso   1.000  C
  H863     1.0000 0.52700  0.46720  0.27650  Biso   1.000  H
  H864     1.0000 0.51660  0.47330  0.32240  Biso   1.000  H
  C808     1.0000 0.49540  0.42020  0.30010  Biso   1.000  C
  H865     1.0000 0.46800  0.42970  0.30400  Biso   1.000  H
  H866     1.0000 0.49720  0.40600  0.27460  Biso   1.000  H
  C809     1.0000 0.50940  0.39340  0.33540  Biso   1.000  C
  H867     1.0000 0.49830  0.36650  0.33320  Biso   1.000  H
  H868     1.0000 0.50140  0.40490  0.36100  Biso   1.000  H
  C810     1.0000 0.55429  0.39297  0.33107  Biso   1.000  C
  H869     1.0000 0.56720  0.38880  0.35700  Biso   1.000  H
  H870     1.0000 0.56270  0.37180  0.31280  Biso   1.000  H
  C811     1.0000 0.59240  0.42767  0.27807  Biso   1.000  C
  O173     1.0000 0.62998  0.42656  0.28558  Biso   1.000  O
  O174     1.0000 0.57740  0.42206  0.24503  Biso   1.000  O
  C812     1.0000 0.51780  0.38030  0.30610  Biso   1.000  C
  Cu59     1.0000 0.64316  0.56370  0.15852  Biso   1.000  Cu
  O175     1.0000 0.64764  0.56434  0.10049  Biso   1.000  O
  C813     1.0000 0.63818  0.52989  0.08232  Biso   1.000  C
  C814     1.0000 0.66486  0.51104  0.05689  Biso   1.000  C
  H871     1.0000 0.68990  0.52250  0.05190  Biso   1.000  H
  C815     1.0000 0.65453  0.47565  0.03911  Biso   1.000  C
  H872     1.0000 0.67260  0.46290  0.02190  Biso   1.000  H
  C816     1.0000 0.61764  0.45866  0.04638  Biso   1.000  C
  H873     1.0000 0.61060  0.43440  0.03410  Biso   1.000  H
  C817     1.0000 0.59108  0.47751  0.07180  Biso   1.000  C
  H874     1.0000 0.56610  0.46590  0.07670  Biso   1.000  H
  C818     1.0000 0.60074  0.51300  0.09001  Biso   1.000  C
  C819     1.0000 0.57181  0.53471  0.11660  Biso   1.000  C
  H875     1.0000 0.54700  0.51940  0.11850  Biso   1.000  H
  H876     1.0000 0.56540  0.56070  0.10480  Biso   1.000  H
  N59      1.0000 0.58854  0.54076  0.15728  Biso   1.000  N
  H877     1.0000 0.59140  0.51910  0.16750  Biso   1.000  H
  C820     1.0000 0.56505  0.56506  0.18610  Biso   1.000  C
  C821     1.0000 0.52492  0.54628  0.19768  Biso   1.000  C
  H878     1.0000 0.52700  0.53280  0.22350  Biso   1.000  H
  H879     1.0000 0.51660  0.52670  0.17760  Biso   1.000  H
  C822     1.0000 0.49540  0.57980  0.19990  Biso   1.000  C
  H880     1.0000 0.46800  0.57030  0.19600  Biso   1.000  H
  H881     1.0000 0.49720  0.59400  0.22540  Biso   1.000  H
  C823     1.0000 0.50940  0.60660  0.16460  Biso   1.000  C
  H882     1.0000 0.49830  0.63350  0.16680  Biso   1.000  H
  H883     1.0000 0.50140  0.59510  0.13900  Biso   1.000  H
  C824     1.0000 0.55429  0.60703  0.16893  Biso   1.000  C
  H884     1.0000 0.56720  0.61120  0.14300  Biso   1.000  H
  H885     1.0000 0.56270  0.62820  0.18720  Biso   1.000  H
  C825     1.0000 0.59240  0.57233  0.22193  Biso   1.000  C
  O176     1.0000 0.62998  0.57344  0.21442  Biso   1.000  O
  O177     1.0000 0.57740  0.57794  0.25497  Biso   1.000  O
  C826     1.0000 0.51780  0.61970  0.19390  Biso   1.000  C
  Cu60     1.0000 0.14316  0.06370  0.65852  Biso   1.000  Cu
  O178     1.0000 0.14764  0.06434  0.60049  Biso   1.000  O
  C827     1.0000 0.13818  0.02989  0.58232  Biso   1.000  C
  C828     1.0000 0.16486  0.01104  0.55689  Biso   1.000  C
  H886     1.0000 0.18990  0.02250  0.55190  Biso   1.000  H
  C829     1.0000 0.15453  0.97565  0.53911  Biso   1.000  C
  H887     1.0000 0.17260  0.96290  0.52190  Biso   1.000  H
  C830     1.0000 0.11764  0.95866  0.54638  Biso   1.000  C
  H888     1.0000 0.11060  0.93440  0.53410  Biso   1.000  H
  C831     1.0000 0.09108  0.97751  0.57180  Biso   1.000  C
  H889     1.0000 0.06610  0.96590  0.57670  Biso   1.000  H
  C832     1.0000 0.10074  0.01300  0.59001  Biso   1.000  C
  C833     1.0000 0.07181  0.03471  0.61660  Biso   1.000  C
  H890     1.0000 0.04700  0.01940  0.61850  Biso   1.000  H
  H891     1.0000 0.06540  0.06070  0.60480  Biso   1.000  H
  N60      1.0000 0.08854  0.04076  0.65728  Biso   1.000  N
  H892     1.0000 0.09140  0.01910  0.66750  Biso   1.000  H
  C834     1.0000 0.06505  0.06506  0.68610  Biso   1.000  C
  C835     1.0000 0.02492  0.04628  0.69768  Biso   1.000  C
  H893     1.0000 0.02700  0.03280  0.72350  Biso   1.000  H
  H894     1.0000 0.01660  0.02670  0.67760  Biso   1.000  H
  C836     1.0000 0.99540  0.07980  0.69990  Biso   1.000  C
  H895     1.0000 0.96800  0.07030  0.69600  Biso   1.000  H
  H896     1.0000 0.99720  0.09400  0.72540  Biso   1.000  H
  C837     1.0000 0.00940  0.10660  0.66460  Biso   1.000  C
  H897     1.0000 0.99830  0.13350  0.66680  Biso   1.000  H
  H898     1.0000 0.00140  0.09510  0.63900  Biso   1.000  H
  C838     1.0000 0.05429  0.10703  0.66893  Biso   1.000  C
  H899     1.0000 0.06720  0.11120  0.64300  Biso   1.000  H
  H900     1.0000 0.06270  0.12820  0.68720  Biso   1.000  H
  C839     1.0000 0.09240  0.07233  0.72193  Biso   1.000  C
  O179     1.0000 0.12998  0.07344  0.71442  Biso   1.000  O
  O180     1.0000 0.07740  0.07794  0.75497  Biso   1.000  O
  C840     1.0000 0.01780  0.11970  0.69390  Biso   1.000  C
  Cu61     1.0000 0.35684  0.06370  0.34148  Biso   1.000  Cu
  O181     1.0000 0.35236  0.06434  0.39951  Biso   1.000  O
  C841     1.0000 0.36182  0.02989  0.41768  Biso   1.000  C
  C842     1.0000 0.33514  0.01104  0.44311  Biso   1.000  C
  H901     1.0000 0.31010  0.02250  0.44810  Biso   1.000  H
  C843     1.0000 0.34547  0.97565  0.46089  Biso   1.000  C
  H902     1.0000 0.32740  0.96290  0.47810  Biso   1.000  H
  C844     1.0000 0.38236  0.95866  0.45362  Biso   1.000  C
  H903     1.0000 0.38940  0.93440  0.46590  Biso   1.000  H
  C845     1.0000 0.40892  0.97751  0.42820  Biso   1.000  C
  H904     1.0000 0.43390  0.96590  0.42330  Biso   1.000  H
  C846     1.0000 0.39926  0.01300  0.40999  Biso   1.000  C
  C847     1.0000 0.42819  0.03471  0.38340  Biso   1.000  C
  H905     1.0000 0.45300  0.01940  0.38150  Biso   1.000  H
  H906     1.0000 0.43460  0.06070  0.39520  Biso   1.000  H
  N61      1.0000 0.41146  0.04076  0.34272  Biso   1.000  N
  H907     1.0000 0.40860  0.01910  0.33250  Biso   1.000  H
  C848     1.0000 0.43495  0.06506  0.31390  Biso   1.000  C
  C849     1.0000 0.47508  0.04628  0.30232  Biso   1.000  C
  H908     1.0000 0.47300  0.03280  0.27650  Biso   1.000  H
  H909     1.0000 0.48340  0.02670  0.32240  Biso   1.000  H
  C850     1.0000 0.50460  0.07980  0.30010  Biso   1.000  C
  H910     1.0000 0.53200  0.07030  0.30400  Biso   1.000  H
  H911     1.0000 0.50280  0.09400  0.27460  Biso   1.000  H
  C851     1.0000 0.49060  0.10660  0.33540  Biso   1.000  C
  H912     1.0000 0.50170  0.13350  0.33320  Biso   1.000  H
  H913     1.0000 0.49860  0.09510  0.36100  Biso   1.000  H
  C852     1.0000 0.44571  0.10703  0.33107  Biso   1.000  C
  H914     1.0000 0.43280  0.11120  0.35700  Biso   1.000  H
  H915     1.0000 0.43730  0.12820  0.31280  Biso   1.000  H
  C853     1.0000 0.40760  0.07233  0.27807  Biso   1.000  C
  O182     1.0000 0.37002  0.07344  0.28558  Biso   1.000  O
  O183     1.0000 0.42260  0.07794  0.24503  Biso   1.000  O
  C854     1.0000 0.48220  0.11970  0.30610  Biso   1.000  C
  Cu62     1.0000 0.85684  0.56370  0.84148  Biso   1.000  Cu
  O184     1.0000 0.85236  0.56434  0.89951  Biso   1.000  O
  C855     1.0000 0.86182  0.52989  0.91768  Biso   1.000  C
  C856     1.0000 0.83514  0.51104  0.94311  Biso   1.000  C
  H916     1.0000 0.81010  0.52250  0.94810  Biso   1.000  H
  C857     1.0000 0.84547  0.47565  0.96089  Biso   1.000  C
  H917     1.0000 0.82740  0.46290  0.97810  Biso   1.000  H
  C858     1.0000 0.88236  0.45866  0.95362  Biso   1.000  C
  H918     1.0000 0.88940  0.43440  0.96590  Biso   1.000  H
  C859     1.0000 0.90892  0.47751  0.92820  Biso   1.000  C
  H919     1.0000 0.93390  0.46590  0.92330  Biso   1.000  H
  C860     1.0000 0.89926  0.51300  0.90999  Biso   1.000  C
  C861     1.0000 0.92819  0.53471  0.88340  Biso   1.000  C
  H920     1.0000 0.95300  0.51940  0.88150  Biso   1.000  H
  H921     1.0000 0.93460  0.56070  0.89520  Biso   1.000  H
  N62      1.0000 0.91146  0.54076  0.84272  Biso   1.000  N
  H922     1.0000 0.90860  0.51910  0.83250  Biso   1.000  H
  C862     1.0000 0.93495  0.56506  0.81390  Biso   1.000  C
  C863     1.0000 0.97508  0.54628  0.80232  Biso   1.000  C
  H923     1.0000 0.97300  0.53280  0.77650  Biso   1.000  H
  H924     1.0000 0.98340  0.52670  0.82240  Biso   1.000  H
  C864     1.0000 0.00460  0.57980  0.80010  Biso   1.000  C
  H925     1.0000 0.03200  0.57030  0.80400  Biso   1.000  H
  H926     1.0000 0.00280  0.59400  0.77460  Biso   1.000  H
  C865     1.0000 0.99060  0.60660  0.83540  Biso   1.000  C
  H927     1.0000 0.00170  0.63350  0.83320  Biso   1.000  H
  H928     1.0000 0.99860  0.59510  0.86100  Biso   1.000  H
  C866     1.0000 0.94571  0.60703  0.83107  Biso   1.000  C
  H929     1.0000 0.93280  0.61120  0.85700  Biso   1.000  H
  H930     1.0000 0.93730  0.62820  0.81280  Biso   1.000  H
  C867     1.0000 0.90760  0.57233  0.77807  Biso   1.000  C
  O185     1.0000 0.87002  0.57344  0.78558  Biso   1.000  O
  O186     1.0000 0.92260  0.57794  0.74503  Biso   1.000  O
  C868     1.0000 0.98220  0.61970  0.80610  Biso   1.000  C
  Cu63     1.0000 0.85684  0.43630  0.65852  Biso   1.000  Cu
  O187     1.0000 0.85236  0.43566  0.60049  Biso   1.000  O
  C869     1.0000 0.86182  0.47011  0.58232  Biso   1.000  C
  C870     1.0000 0.83514  0.48896  0.55689  Biso   1.000  C
  H931     1.0000 0.81010  0.47750  0.55190  Biso   1.000  H
  C871     1.0000 0.84547  0.52435  0.53911  Biso   1.000  C
  H932     1.0000 0.82740  0.53710  0.52190  Biso   1.000  H
  C872     1.0000 0.88236  0.54134  0.54638  Biso   1.000  C
  H933     1.0000 0.88940  0.56560  0.53410  Biso   1.000  H
  C873     1.0000 0.90892  0.52249  0.57180  Biso   1.000  C
  H934     1.0000 0.93390  0.53410  0.57670  Biso   1.000  H
  C874     1.0000 0.89926  0.48700  0.59001  Biso   1.000  C
  C875     1.0000 0.92819  0.46529  0.61660  Biso   1.000  C
  H935     1.0000 0.95300  0.48060  0.61850  Biso   1.000  H
  H936     1.0000 0.93460  0.43930  0.60480  Biso   1.000  H
  N63      1.0000 0.91146  0.45924  0.65728  Biso   1.000  N
  H937     1.0000 0.90860  0.48090  0.66750  Biso   1.000  H
  C876     1.0000 0.93495  0.43494  0.68610  Biso   1.000  C
  C877     1.0000 0.97508  0.45372  0.69768  Biso   1.000  C
  H938     1.0000 0.97300  0.46720  0.72350  Biso   1.000  H
  H939     1.0000 0.98340  0.47330  0.67760  Biso   1.000  H
  C878     1.0000 0.00460  0.42020  0.69990  Biso   1.000  C
  H940     1.0000 0.03200  0.42970  0.69600  Biso   1.000  H
  H941     1.0000 0.00280  0.40600  0.72540  Biso   1.000  H
  C879     1.0000 0.99060  0.39340  0.66460  Biso   1.000  C
  H942     1.0000 0.00170  0.36650  0.66680  Biso   1.000  H
  H943     1.0000 0.99860  0.40490  0.63900  Biso   1.000  H
  C880     1.0000 0.94571  0.39297  0.66893  Biso   1.000  C
  H944     1.0000 0.93280  0.38880  0.64300  Biso   1.000  H
  H945     1.0000 0.93730  0.37180  0.68720  Biso   1.000  H
  C881     1.0000 0.90760  0.42767  0.72193  Biso   1.000  C
  O188     1.0000 0.87002  0.42656  0.71442  Biso   1.000  O
  O189     1.0000 0.92260  0.42206  0.75497  Biso   1.000  O
  C882     1.0000 0.98220  0.38030  0.69390  Biso   1.000  C
  Cu64     1.0000 0.35684  0.93630  0.15852  Biso   1.000  Cu
  O190     1.0000 0.35236  0.93566  0.10049  Biso   1.000  O
  C883     1.0000 0.36182  0.97011  0.08232  Biso   1.000  C
  C884     1.0000 0.33514  0.98896  0.05689  Biso   1.000  C
  H946     1.0000 0.31010  0.97750  0.05190  Biso   1.000  H
  C885     1.0000 0.34547  0.02435  0.03911  Biso   1.000  C
  H947     1.0000 0.32740  0.03710  0.02190  Biso   1.000  H
  C886     1.0000 0.38236  0.04134  0.04638  Biso   1.000  C
  H948     1.0000 0.38940  0.06560  0.03410  Biso   1.000  H
  C887     1.0000 0.40892  0.02249  0.07180  Biso   1.000  C
  H949     1.0000 0.43390  0.03410  0.07670  Biso   1.000  H
  C888     1.0000 0.39926  0.98700  0.09001  Biso   1.000  C
  C889     1.0000 0.42819  0.96529  0.11660  Biso   1.000  C
  H950     1.0000 0.45300  0.98060  0.11850  Biso   1.000  H
  H951     1.0000 0.43460  0.93930  0.10480  Biso   1.000  H
  N64      1.0000 0.41146  0.95924  0.15728  Biso   1.000  N
  H952     1.0000 0.40860  0.98090  0.16750  Biso   1.000  H
  C890     1.0000 0.43495  0.93494  0.18610  Biso   1.000  C
  C891     1.0000 0.47508  0.95372  0.19768  Biso   1.000  C
  H953     1.0000 0.47300  0.96720  0.22350  Biso   1.000  H
  H954     1.0000 0.48340  0.97330  0.17760  Biso   1.000  H
  C892     1.0000 0.50460  0.92020  0.19990  Biso   1.000  C
  H955     1.0000 0.53200  0.92970  0.19600  Biso   1.000  H
  H956     1.0000 0.50280  0.90600  0.22540  Biso   1.000  H
  C893     1.0000 0.49060  0.89340  0.16460  Biso   1.000  C
  H957     1.0000 0.50170  0.86650  0.16680  Biso   1.000  H
  H958     1.0000 0.49860  0.90490  0.13900  Biso   1.000  H
  C894     1.0000 0.44571  0.89297  0.16893  Biso   1.000  C
  H959     1.0000 0.43280  0.88880  0.14300  Biso   1.000  H
  H960     1.0000 0.43730  0.87180  0.18720  Biso   1.000  H
  C895     1.0000 0.40760  0.92767  0.22193  Biso   1.000  C
  O191     1.0000 0.37002  0.92656  0.21442  Biso   1.000  O
  O192     1.0000 0.42260  0.92206  0.25497  Biso   1.000  O
  C896     1.0000 0.48220  0.88030  0.19390  Biso   1.000  C
  Cu65     1.0000 0.84148  0.14316  0.93630  Biso   1.000  Cu
  O193     1.0000 0.89951  0.14764  0.93566  Biso   1.000  O
  C897     1.0000 0.91768  0.13818  0.97011  Biso   1.000  C
  C898     1.0000 0.94311  0.16486  0.98896  Biso   1.000  C
  H961     1.0000 0.94810  0.18990  0.97750  Biso   1.000  H
  C899     1.0000 0.96089  0.15453  0.02435  Biso   1.000  C
  H962     1.0000 0.97810  0.17260  0.03710  Biso   1.000  H
  C900     1.0000 0.95362  0.11764  0.04134  Biso   1.000  C
  H963     1.0000 0.96590  0.11060  0.06560  Biso   1.000  H
  C901     1.0000 0.92820  0.09108  0.02249  Biso   1.000  C
  H964     1.0000 0.92330  0.06610  0.03410  Biso   1.000  H
  C902     1.0000 0.90999  0.10074  0.98700  Biso   1.000  C
  C903     1.0000 0.88340  0.07181  0.96529  Biso   1.000  C
  H965     1.0000 0.88150  0.04700  0.98060  Biso   1.000  H
  H966     1.0000 0.89520  0.06540  0.93930  Biso   1.000  H
  N65      1.0000 0.84272  0.08854  0.95924  Biso   1.000  N
  H967     1.0000 0.83250  0.09140  0.98090  Biso   1.000  H
  C904     1.0000 0.81390  0.06505  0.93494  Biso   1.000  C
  C905     1.0000 0.80232  0.02492  0.95372  Biso   1.000  C
  H968     1.0000 0.77650  0.02700  0.96720  Biso   1.000  H
  H969     1.0000 0.82240  0.01660  0.97330  Biso   1.000  H
  C906     1.0000 0.80010  0.99540  0.92020  Biso   1.000  C
  H970     1.0000 0.80400  0.96800  0.92970  Biso   1.000  H
  H971     1.0000 0.77460  0.99720  0.90600  Biso   1.000  H
  C907     1.0000 0.83540  0.00940  0.89340  Biso   1.000  C
  H972     1.0000 0.83320  0.99830  0.86650  Biso   1.000  H
  H973     1.0000 0.86100  0.00140  0.90490  Biso   1.000  H
  C908     1.0000 0.83107  0.05429  0.89297  Biso   1.000  C
  H974     1.0000 0.85700  0.06720  0.88880  Biso   1.000  H
  H975     1.0000 0.81280  0.06270  0.87180  Biso   1.000  H
  C909     1.0000 0.77807  0.09240  0.92767  Biso   1.000  C
  O194     1.0000 0.78558  0.12998  0.92656  Biso   1.000  O
  O195     1.0000 0.74503  0.07740  0.92206  Biso   1.000  O
  C910     1.0000 0.80610  0.01780  0.88030  Biso   1.000  C
  Cu66     1.0000 0.34148  0.64316  0.43630  Biso   1.000  Cu
  O196     1.0000 0.39951  0.64764  0.43566  Biso   1.000  O
  C911     1.0000 0.41768  0.63818  0.47011  Biso   1.000  C
  C912     1.0000 0.44311  0.66486  0.48896  Biso   1.000  C
  H976     1.0000 0.44810  0.68990  0.47750  Biso   1.000  H
  C913     1.0000 0.46089  0.65453  0.52435  Biso   1.000  C
  H977     1.0000 0.47810  0.67260  0.53710  Biso   1.000  H
  C914     1.0000 0.45362  0.61764  0.54134  Biso   1.000  C
  H978     1.0000 0.46590  0.61060  0.56560  Biso   1.000  H
  C915     1.0000 0.42820  0.59108  0.52249  Biso   1.000  C
  H979     1.0000 0.42330  0.56610  0.53410  Biso   1.000  H
  C916     1.0000 0.40999  0.60074  0.48700  Biso   1.000  C
  C917     1.0000 0.38340  0.57181  0.46529  Biso   1.000  C
  H980     1.0000 0.38150  0.54700  0.48060  Biso   1.000  H
  H981     1.0000 0.39520  0.56540  0.43930  Biso   1.000  H
  N66      1.0000 0.34272  0.58854  0.45924  Biso   1.000  N
  H982     1.0000 0.33250  0.59140  0.48090  Biso   1.000  H
  C918     1.0000 0.31390  0.56505  0.43494  Biso   1.000  C
  C919     1.0000 0.30232  0.52492  0.45372  Biso   1.000  C
  H983     1.0000 0.27650  0.52700  0.46720  Biso   1.000  H
  H984     1.0000 0.32240  0.51660  0.47330  Biso   1.000  H
  C920     1.0000 0.30010  0.49540  0.42020  Biso   1.000  C
  H985     1.0000 0.30400  0.46800  0.42970  Biso   1.000  H
  H986     1.0000 0.27460  0.49720  0.40600  Biso   1.000  H
  C921     1.0000 0.33540  0.50940  0.39340  Biso   1.000  C
  H987     1.0000 0.33320  0.49830  0.36650  Biso   1.000  H
  H988     1.0000 0.36100  0.50140  0.40490  Biso   1.000  H
  C922     1.0000 0.33107  0.55429  0.39297  Biso   1.000  C
  H989     1.0000 0.35700  0.56720  0.38880  Biso   1.000  H
  H990     1.0000 0.31280  0.56270  0.37180  Biso   1.000  H
  C923     1.0000 0.27807  0.59240  0.42767  Biso   1.000  C
  O197     1.0000 0.28558  0.62998  0.42656  Biso   1.000  O
  O198     1.0000 0.24503  0.57740  0.42206  Biso   1.000  O
  C924     1.0000 0.30610  0.51780  0.38030  Biso   1.000  C
  Cu67     1.0000 0.15852  0.64316  0.56370  Biso   1.000  Cu
  O199     1.0000 0.10049  0.64764  0.56434  Biso   1.000  O
  C925     1.0000 0.08232  0.63818  0.52989  Biso   1.000  C
  C926     1.0000 0.05689  0.66486  0.51104  Biso   1.000  C
  H991     1.0000 0.05190  0.68990  0.52250  Biso   1.000  H
  C927     1.0000 0.03911  0.65453  0.47565  Biso   1.000  C
  H992     1.0000 0.02190  0.67260  0.46290  Biso   1.000  H
  C928     1.0000 0.04638  0.61764  0.45866  Biso   1.000  C
  H993     1.0000 0.03410  0.61060  0.43440  Biso   1.000  H
  C929     1.0000 0.07180  0.59108  0.47751  Biso   1.000  C
  H994     1.0000 0.07670  0.56610  0.46590  Biso   1.000  H
  C930     1.0000 0.09001  0.60074  0.51300  Biso   1.000  C
  C931     1.0000 0.11660  0.57181  0.53471  Biso   1.000  C
  H995     1.0000 0.11850  0.54700  0.51940  Biso   1.000  H
  H996     1.0000 0.10480  0.56540  0.56070  Biso   1.000  H
  N67      1.0000 0.15728  0.58854  0.54076  Biso   1.000  N
  H997     1.0000 0.16750  0.59140  0.51910  Biso   1.000  H
  C932     1.0000 0.18610  0.56505  0.56506  Biso   1.000  C
  C933     1.0000 0.19768  0.52492  0.54628  Biso   1.000  C
  H998     1.0000 0.22350  0.52700  0.53280  Biso   1.000  H
  H999     1.0000 0.17760  0.51660  0.52670  Biso   1.000  H
  C934     1.0000 0.19990  0.49540  0.57980  Biso   1.000  C
  H1000    1.0000 0.19600  0.46800  0.57030  Biso   1.000  H
  H1001    1.0000 0.22540  0.49720  0.59400  Biso   1.000  H
  C935     1.0000 0.16460  0.50940  0.60660  Biso   1.000  C
  H1002    1.0000 0.16680  0.49830  0.63350  Biso   1.000  H
  H1003    1.0000 0.13900  0.50140  0.59510  Biso   1.000  H
  C936     1.0000 0.16893  0.55429  0.60703  Biso   1.000  C
  H1004    1.0000 0.14300  0.56720  0.61120  Biso   1.000  H
  H1005    1.0000 0.18720  0.56270  0.62820  Biso   1.000  H
  C937     1.0000 0.22193  0.59240  0.57233  Biso   1.000  C
  O200     1.0000 0.21442  0.62998  0.57344  Biso   1.000  O
  O201     1.0000 0.25497  0.57740  0.57794  Biso   1.000  O
  C938     1.0000 0.19390  0.51780  0.61970  Biso   1.000  C
  Cu68     1.0000 0.65852  0.14316  0.06370  Biso   1.000  Cu
  O202     1.0000 0.60049  0.14764  0.06434  Biso   1.000  O
  C939     1.0000 0.58232  0.13818  0.02989  Biso   1.000  C
  C940     1.0000 0.55689  0.16486  0.01104  Biso   1.000  C
  H1006    1.0000 0.55190  0.18990  0.02250  Biso   1.000  H
  C941     1.0000 0.53911  0.15453  0.97565  Biso   1.000  C
  H1007    1.0000 0.52190  0.17260  0.96290  Biso   1.000  H
  C942     1.0000 0.54638  0.11764  0.95866  Biso   1.000  C
  H1008    1.0000 0.53410  0.11060  0.93440  Biso   1.000  H
  C943     1.0000 0.57180  0.09108  0.97751  Biso   1.000  C
  H1009    1.0000 0.57670  0.06610  0.96590  Biso   1.000  H
  C944     1.0000 0.59001  0.10074  0.01300  Biso   1.000  C
  C945     1.0000 0.61660  0.07181  0.03471  Biso   1.000  C
  H1010    1.0000 0.61850  0.04700  0.01940  Biso   1.000  H
  H1011    1.0000 0.60480  0.06540  0.06070  Biso   1.000  H
  N68      1.0000 0.65728  0.08854  0.04076  Biso   1.000  N
  H1012    1.0000 0.66750  0.09140  0.01910  Biso   1.000  H
  C946     1.0000 0.68610  0.06505  0.06506  Biso   1.000  C
  C947     1.0000 0.69768  0.02492  0.04628  Biso   1.000  C
  H1013    1.0000 0.72350  0.02700  0.03280  Biso   1.000  H
  H1014    1.0000 0.67760  0.01660  0.02670  Biso   1.000  H
  C948     1.0000 0.69990  0.99540  0.07980  Biso   1.000  C
  H1015    1.0000 0.69600  0.96800  0.07030  Biso   1.000  H
  H1016    1.0000 0.72540  0.99720  0.09400  Biso   1.000  H
  C949     1.0000 0.66460  0.00940  0.10660  Biso   1.000  C
  H1017    1.0000 0.66680  0.99830  0.13350  Biso   1.000  H
  H1018    1.0000 0.63900  0.00140  0.09510  Biso   1.000  H
  C950     1.0000 0.66893  0.05429  0.10703  Biso   1.000  C
  H1019    1.0000 0.64300  0.06720  0.11120  Biso   1.000  H
  H1020    1.0000 0.68720  0.06270  0.12820  Biso   1.000  H
  C951     1.0000 0.72193  0.09240  0.07233  Biso   1.000  C
  O203     1.0000 0.71442  0.12998  0.07344  Biso   1.000  O
  O204     1.0000 0.75497  0.07740  0.07794  Biso   1.000  O
  C952     1.0000 0.69390  0.01780  0.11970  Biso   1.000  C
  Cu69     1.0000 0.34148  0.35684  0.06370  Biso   1.000  Cu
  O205     1.0000 0.39951  0.35236  0.06434  Biso   1.000  O
  C953     1.0000 0.41768  0.36182  0.02989  Biso   1.000  C
  C954     1.0000 0.44311  0.33514  0.01104  Biso   1.000  C
  H1021    1.0000 0.44810  0.31010  0.02250  Biso   1.000  H
  C955     1.0000 0.46089  0.34547  0.97565  Biso   1.000  C
  H1022    1.0000 0.47810  0.32740  0.96290  Biso   1.000  H
  C956     1.0000 0.45362  0.38236  0.95866  Biso   1.000  C
  H1023    1.0000 0.46590  0.38940  0.93440  Biso   1.000  H
  C957     1.0000 0.42820  0.40892  0.97751  Biso   1.000  C
  H1024    1.0000 0.42330  0.43390  0.96590  Biso   1.000  H
  C958     1.0000 0.40999  0.39926  0.01300  Biso   1.000  C
  C959     1.0000 0.38340  0.42819  0.03471  Biso   1.000  C
  H1025    1.0000 0.38150  0.45300  0.01940  Biso   1.000  H
  H1026    1.0000 0.39520  0.43460  0.06070  Biso   1.000  H
  N69      1.0000 0.34272  0.41146  0.04076  Biso   1.000  N
  H1027    1.0000 0.33250  0.40860  0.01910  Biso   1.000  H
  C960     1.0000 0.31390  0.43495  0.06506  Biso   1.000  C
  C961     1.0000 0.30232  0.47508  0.04628  Biso   1.000  C
  H1028    1.0000 0.27650  0.47300  0.03280  Biso   1.000  H
  H1029    1.0000 0.32240  0.48340  0.02670  Biso   1.000  H
  C962     1.0000 0.30010  0.50460  0.07980  Biso   1.000  C
  H1030    1.0000 0.30400  0.53200  0.07030  Biso   1.000  H
  H1031    1.0000 0.27460  0.50280  0.09400  Biso   1.000  H
  C963     1.0000 0.33540  0.49060  0.10660  Biso   1.000  C
  H1032    1.0000 0.33320  0.50170  0.13350  Biso   1.000  H
  H1033    1.0000 0.36100  0.49860  0.09510  Biso   1.000  H
  C964     1.0000 0.33107  0.44571  0.10703  Biso   1.000  C
  H1034    1.0000 0.35700  0.43280  0.11120  Biso   1.000  H
  H1035    1.0000 0.31280  0.43730  0.12820  Biso   1.000  H
  C965     1.0000 0.27807  0.40760  0.07233  Biso   1.000  C
  O206     1.0000 0.28558  0.37002  0.07344  Biso   1.000  O
  O207     1.0000 0.24503  0.42260  0.07794  Biso   1.000  O
  C966     1.0000 0.30610  0.48220  0.11970  Biso   1.000  C
  Cu70     1.0000 0.84148  0.85684  0.56370  Biso   1.000  Cu
  O208     1.0000 0.89951  0.85236  0.56434  Biso   1.000  O
  C967     1.0000 0.91768  0.86182  0.52989  Biso   1.000  C
  C968     1.0000 0.94311  0.83514  0.51104  Biso   1.000  C
  H1036    1.0000 0.94810  0.81010  0.52250  Biso   1.000  H
  C969     1.0000 0.96089  0.84547  0.47565  Biso   1.000  C
  H1037    1.0000 0.97810  0.82740  0.46290  Biso   1.000  H
  C970     1.0000 0.95362  0.88236  0.45866  Biso   1.000  C
  H1038    1.0000 0.96590  0.88940  0.43440  Biso   1.000  H
  C971     1.0000 0.92820  0.90892  0.47751  Biso   1.000  C
  H1039    1.0000 0.92330  0.93390  0.46590  Biso   1.000  H
  C972     1.0000 0.90999  0.89926  0.51300  Biso   1.000  C
  C973     1.0000 0.88340  0.92819  0.53471  Biso   1.000  C
  H1040    1.0000 0.88150  0.95300  0.51940  Biso   1.000  H
  H1041    1.0000 0.89520  0.93460  0.56070  Biso   1.000  H
  N70      1.0000 0.84272  0.91146  0.54076  Biso   1.000  N
  H1042    1.0000 0.83250  0.90860  0.51910  Biso   1.000  H
  C974     1.0000 0.81390  0.93495  0.56506  Biso   1.000  C
  C975     1.0000 0.80232  0.97508  0.54628  Biso   1.000  C
  H1043    1.0000 0.77650  0.97300  0.53280  Biso   1.000  H
  H1044    1.0000 0.82240  0.98340  0.52670  Biso   1.000  H
  C976     1.0000 0.80010  0.00460  0.57980  Biso   1.000  C
  H1045    1.0000 0.80400  0.03200  0.57030  Biso   1.000  H
  H1046    1.0000 0.77460  0.00280  0.59400  Biso   1.000  H
  C977     1.0000 0.83540  0.99060  0.60660  Biso   1.000  C
  H1047    1.0000 0.83320  0.00170  0.63350  Biso   1.000  H
  H1048    1.0000 0.86100  0.99860  0.59510  Biso   1.000  H
  C978     1.0000 0.83107  0.94571  0.60703  Biso   1.000  C
  H1049    1.0000 0.85700  0.93280  0.61120  Biso   1.000  H
  H1050    1.0000 0.81280  0.93730  0.62820  Biso   1.000  H
  C979     1.0000 0.77807  0.90760  0.57233  Biso   1.000  C
  O209     1.0000 0.78558  0.87002  0.57344  Biso   1.000  O
  O210     1.0000 0.74503  0.92260  0.57794  Biso   1.000  O
  C980     1.0000 0.80610  0.98220  0.61970  Biso   1.000  C
  Cu71     1.0000 0.65852  0.85684  0.43630  Biso   1.000  Cu
  O211     1.0000 0.60049  0.85236  0.43566  Biso   1.000  O
  C981     1.0000 0.58232  0.86182  0.47011  Biso   1.000  C
  C982     1.0000 0.55689  0.83514  0.48896  Biso   1.000  C
  H1051    1.0000 0.55190  0.81010  0.47750  Biso   1.000  H
  C983     1.0000 0.53911  0.84547  0.52435  Biso   1.000  C
  H1052    1.0000 0.52190  0.82740  0.53710  Biso   1.000  H
  C984     1.0000 0.54638  0.88236  0.54134  Biso   1.000  C
  H1053    1.0000 0.53410  0.88940  0.56560  Biso   1.000  H
  C985     1.0000 0.57180  0.90892  0.52249  Biso   1.000  C
  H1054    1.0000 0.57670  0.93390  0.53410  Biso   1.000  H
  C986     1.0000 0.59001  0.89926  0.48700  Biso   1.000  C
  C987     1.0000 0.61660  0.92819  0.46529  Biso   1.000  C
  H1055    1.0000 0.61850  0.95300  0.48060  Biso   1.000  H
  H1056    1.0000 0.60480  0.93460  0.43930  Biso   1.000  H
  N71      1.0000 0.65728  0.91146  0.45924  Biso   1.000  N
  H1057    1.0000 0.66750  0.90860  0.48090  Biso   1.000  H
  C988     1.0000 0.68610  0.93495  0.43494  Biso   1.000  C
  C989     1.0000 0.69768  0.97508  0.45372  Biso   1.000  C
  H1058    1.0000 0.72350  0.97300  0.46720  Biso   1.000  H
  H1059    1.0000 0.67760  0.98340  0.47330  Biso   1.000  H
  C990     1.0000 0.69990  0.00460  0.42020  Biso   1.000  C
  H1060    1.0000 0.69600  0.03200  0.42970  Biso   1.000  H
  H1061    1.0000 0.72540  0.00280  0.40600  Biso   1.000  H
  C991     1.0000 0.66460  0.99060  0.39340  Biso   1.000  C
  H1062    1.0000 0.66680  0.00170  0.36650  Biso   1.000  H
  H1063    1.0000 0.63900  0.99860  0.40490  Biso   1.000  H
  C992     1.0000 0.66893  0.94571  0.39297  Biso   1.000  C
  H1064    1.0000 0.64300  0.93280  0.38880  Biso   1.000  H
  H1065    1.0000 0.68720  0.93730  0.37180  Biso   1.000  H
  C993     1.0000 0.72193  0.90760  0.42767  Biso   1.000  C
  O212     1.0000 0.71442  0.87002  0.42656  Biso   1.000  O
  O213     1.0000 0.75497  0.92260  0.42206  Biso   1.000  O
  C994     1.0000 0.69390  0.98220  0.38030  Biso   1.000  C
  Cu72     1.0000 0.15852  0.35684  0.93630  Biso   1.000  Cu
  O214     1.0000 0.10049  0.35236  0.93566  Biso   1.000  O
  C995     1.0000 0.08232  0.36182  0.97011  Biso   1.000  C
  C996     1.0000 0.05689  0.33514  0.98896  Biso   1.000  C
  H1066    1.0000 0.05190  0.31010  0.97750  Biso   1.000  H
  C997     1.0000 0.03911  0.34547  0.02435  Biso   1.000  C
  H1067    1.0000 0.02190  0.32740  0.03710  Biso   1.000  H
  C998     1.0000 0.04638  0.38236  0.04134  Biso   1.000  C
  H1068    1.0000 0.03410  0.38940  0.06560  Biso   1.000  H
  C999     1.0000 0.07180  0.40892  0.02249  Biso   1.000  C
  H1069    1.0000 0.07670  0.43390  0.03410  Biso   1.000  H
  C1000    1.0000 0.09001  0.39926  0.98700  Biso   1.000  C
  C1001    1.0000 0.11660  0.42819  0.96529  Biso   1.000  C
  H1070    1.0000 0.11850  0.45300  0.98060  Biso   1.000  H
  H1071    1.0000 0.10480  0.43460  0.93930  Biso   1.000  H
  N72      1.0000 0.15728  0.41146  0.95924  Biso   1.000  N
  H1072    1.0000 0.16750  0.40860  0.98090  Biso   1.000  H
  C1002    1.0000 0.18610  0.43495  0.93494  Biso   1.000  C
  C1003    1.0000 0.19768  0.47508  0.95372  Biso   1.000  C
  H1073    1.0000 0.22350  0.47300  0.96720  Biso   1.000  H
  H1074    1.0000 0.17760  0.48340  0.97330  Biso   1.000  H
  C1004    1.0000 0.19990  0.50460  0.92020  Biso   1.000  C
  H1075    1.0000 0.19600  0.53200  0.92970  Biso   1.000  H
  H1076    1.0000 0.22540  0.50280  0.90600  Biso   1.000  H
  C1005    1.0000 0.16460  0.49060  0.89340  Biso   1.000  C
  H1077    1.0000 0.16680  0.50170  0.86650  Biso   1.000  H
  H1078    1.0000 0.13900  0.49860  0.90490  Biso   1.000  H
  C1006    1.0000 0.16893  0.44571  0.89297  Biso   1.000  C
  H1079    1.0000 0.14300  0.43280  0.88880  Biso   1.000  H
  H1080    1.0000 0.18720  0.43730  0.87180  Biso   1.000  H
  C1007    1.0000 0.22193  0.40760  0.92767  Biso   1.000  C
  O215     1.0000 0.21442  0.37002  0.92656  Biso   1.000  O
  O216     1.0000 0.25497  0.42260  0.92206  Biso   1.000  O
  C1008    1.0000 0.19390  0.48220  0.88030  Biso   1.000  C
  Cu73     1.0000 0.09148  0.68630  0.60684  Biso   1.000  Cu
  O217     1.0000 0.14951  0.68566  0.60236  Biso   1.000  O
  C1009    1.0000 0.16768  0.72011  0.61182  Biso   1.000  C
  C1010    1.0000 0.19311  0.73896  0.58514  Biso   1.000  C
  H1081    1.0000 0.19810  0.72750  0.56010  Biso   1.000  H
  C1011    1.0000 0.21089  0.77435  0.59547  Biso   1.000  C
  H1082    1.0000 0.22810  0.78710  0.57740  Biso   1.000  H
  C1012    1.0000 0.20362  0.79134  0.63236  Biso   1.000  C
  H1083    1.0000 0.21590  0.81560  0.63940  Biso   1.000  H
  C1013    1.0000 0.17820  0.77249  0.65892  Biso   1.000  C
  H1084    1.0000 0.17330  0.78410  0.68390  Biso   1.000  H
  C1014    1.0000 0.15999  0.73700  0.64926  Biso   1.000  C
  C1015    1.0000 0.13340  0.71529  0.67819  Biso   1.000  C
  H1085    1.0000 0.13150  0.73060  0.70300  Biso   1.000  H
  H1086    1.0000 0.14520  0.68930  0.68460  Biso   1.000  H
  N73      1.0000 0.09272  0.70924  0.66146  Biso   1.000  N
  H1087    1.0000 0.08250  0.73090  0.65860  Biso   1.000  H
  C1016    1.0000 0.06390  0.68494  0.68495  Biso   1.000  C
  C1017    1.0000 0.05232  0.70372  0.72508  Biso   1.000  C
  H1088    1.0000 0.02650  0.71720  0.72300  Biso   1.000  H
  H1089    1.0000 0.07240  0.72330  0.73340  Biso   1.000  H
  C1018    1.0000 0.05010  0.67020  0.75460  Biso   1.000  C
  H1090    1.0000 0.05400  0.67970  0.78200  Biso   1.000  H
  H1091    1.0000 0.02460  0.65600  0.75280  Biso   1.000  H
  C1019    1.0000 0.08540  0.64340  0.74060  Biso   1.000  C
  H1092    1.0000 0.08320  0.61650  0.75170  Biso   1.000  H
  H1093    1.0000 0.11100  0.65490  0.74860  Biso   1.000  H
  C1020    1.0000 0.08107  0.64297  0.69571  Biso   1.000  C
  H1094    1.0000 0.10700  0.63880  0.68280  Biso   1.000  H
  H1095    1.0000 0.06280  0.62180  0.68730  Biso   1.000  H
  C1021    1.0000 0.02807  0.67767  0.65760  Biso   1.000  C
  O218     1.0000 0.03558  0.67656  0.62002  Biso   1.000  O
  O219     1.0000 0.99503  0.67206  0.67260  Biso   1.000  O
  C1022    1.0000 0.05610  0.63030  0.73220  Biso   1.000  C
  Cu74     1.0000 0.59148  0.18630  0.10684  Biso   1.000  Cu
  O220     1.0000 0.64951  0.18566  0.10236  Biso   1.000  O
  C1023    1.0000 0.66768  0.22011  0.11182  Biso   1.000  C
  C1024    1.0000 0.69311  0.23896  0.08514  Biso   1.000  C
  H1096    1.0000 0.69810  0.22750  0.06010  Biso   1.000  H
  C1025    1.0000 0.71089  0.27435  0.09547  Biso   1.000  C
  H1097    1.0000 0.72810  0.28710  0.07740  Biso   1.000  H
  C1026    1.0000 0.70362  0.29134  0.13236  Biso   1.000  C
  H1098    1.0000 0.71590  0.31560  0.13940  Biso   1.000  H
  C1027    1.0000 0.67820  0.27249  0.15892  Biso   1.000  C
  H1099    1.0000 0.67330  0.28410  0.18390  Biso   1.000  H
  C1028    1.0000 0.65999  0.23700  0.14926  Biso   1.000  C
  C1029    1.0000 0.63340  0.21529  0.17819  Biso   1.000  C
  H1100    1.0000 0.63150  0.23060  0.20300  Biso   1.000  H
  H1101    1.0000 0.64520  0.18930  0.18460  Biso   1.000  H
  N74      1.0000 0.59272  0.20924  0.16146  Biso   1.000  N
  H1102    1.0000 0.58250  0.23090  0.15860  Biso   1.000  H
  C1030    1.0000 0.56390  0.18494  0.18495  Biso   1.000  C
  C1031    1.0000 0.55232  0.20372  0.22508  Biso   1.000  C
  H1103    1.0000 0.52650  0.21720  0.22300  Biso   1.000  H
  H1104    1.0000 0.57240  0.22330  0.23340  Biso   1.000  H
  C1032    1.0000 0.55010  0.17020  0.25460  Biso   1.000  C
  H1105    1.0000 0.55400  0.17970  0.28200  Biso   1.000  H
  H1106    1.0000 0.52460  0.15600  0.25280  Biso   1.000  H
  C1033    1.0000 0.58540  0.14340  0.24060  Biso   1.000  C
  H1107    1.0000 0.58320  0.11650  0.25170  Biso   1.000  H
  H1108    1.0000 0.61100  0.15490  0.24860  Biso   1.000  H
  C1034    1.0000 0.58107  0.14297  0.19571  Biso   1.000  C
  H1109    1.0000 0.60700  0.13880  0.18280  Biso   1.000  H
  H1110    1.0000 0.56280  0.12180  0.18730  Biso   1.000  H
  C1035    1.0000 0.52807  0.17767  0.15760  Biso   1.000  C
  O221     1.0000 0.53558  0.17656  0.12002  Biso   1.000  O
  O222     1.0000 0.49503  0.17206  0.17260  Biso   1.000  O
  C1036    1.0000 0.55610  0.13030  0.23220  Biso   1.000  C
  Cu75     1.0000 0.40852  0.31370  0.10684  Biso   1.000  Cu
  O223     1.0000 0.35049  0.31434  0.10236  Biso   1.000  O
  C1037    1.0000 0.33232  0.27989  0.11182  Biso   1.000  C
  C1038    1.0000 0.30689  0.26104  0.08514  Biso   1.000  C
  H1111    1.0000 0.30190  0.27250  0.06010  Biso   1.000  H
  C1039    1.0000 0.28911  0.22565  0.09547  Biso   1.000  C
  H1112    1.0000 0.27190  0.21290  0.07740  Biso   1.000  H
  C1040    1.0000 0.29638  0.20866  0.13236  Biso   1.000  C
  H1113    1.0000 0.28410  0.18440  0.13940  Biso   1.000  H
  C1041    1.0000 0.32180  0.22751  0.15892  Biso   1.000  C
  H1114    1.0000 0.32670  0.21590  0.18390  Biso   1.000  H
  C1042    1.0000 0.34001  0.26300  0.14926  Biso   1.000  C
  C1043    1.0000 0.36660  0.28471  0.17819  Biso   1.000  C
  H1115    1.0000 0.36850  0.26940  0.20300  Biso   1.000  H
  H1116    1.0000 0.35480  0.31070  0.18460  Biso   1.000  H
  N75      1.0000 0.40728  0.29076  0.16146  Biso   1.000  N
  H1117    1.0000 0.41750  0.26910  0.15860  Biso   1.000  H
  C1044    1.0000 0.43610  0.31506  0.18495  Biso   1.000  C
  C1045    1.0000 0.44768  0.29628  0.22508  Biso   1.000  C
  H1118    1.0000 0.47350  0.28280  0.22300  Biso   1.000  H
  H1119    1.0000 0.42760  0.27670  0.23340  Biso   1.000  H
  C1046    1.0000 0.44990  0.32980  0.25460  Biso   1.000  C
  H1120    1.0000 0.44600  0.32030  0.28200  Biso   1.000  H
  H1121    1.0000 0.47540  0.34400  0.25280  Biso   1.000  H
  C1047    1.0000 0.41460  0.35660  0.24060  Biso   1.000  C
  H1122    1.0000 0.41680  0.38350  0.25170  Biso   1.000  H
  H1123    1.0000 0.38900  0.34510  0.24860  Biso   1.000  H
  C1048    1.0000 0.41893  0.35703  0.19571  Biso   1.000  C
  H1124    1.0000 0.39300  0.36120  0.18280  Biso   1.000  H
  H1125    1.0000 0.43720  0.37820  0.18730  Biso   1.000  H
  C1049    1.0000 0.47193  0.32233  0.15760  Biso   1.000  C
  O224     1.0000 0.46442  0.32344  0.12002  Biso   1.000  O
  O225     1.0000 0.50497  0.32794  0.17260  Biso   1.000  O
  C1050    1.0000 0.44390  0.36970  0.23220  Biso   1.000  C
  Cu76     1.0000 0.90852  0.81370  0.60684  Biso   1.000  Cu
  O226     1.0000 0.85049  0.81434  0.60236  Biso   1.000  O
  C1051    1.0000 0.83232  0.77989  0.61182  Biso   1.000  C
  C1052    1.0000 0.80689  0.76104  0.58514  Biso   1.000  C
  H1126    1.0000 0.80190  0.77250  0.56010  Biso   1.000  H
  C1053    1.0000 0.78911  0.72565  0.59547  Biso   1.000  C
  H1127    1.0000 0.77190  0.71290  0.57740  Biso   1.000  H
  C1054    1.0000 0.79638  0.70866  0.63236  Biso   1.000  C
  H1128    1.0000 0.78410  0.68440  0.63940  Biso   1.000  H
  C1055    1.0000 0.82180  0.72751  0.65892  Biso   1.000  C
  H1129    1.0000 0.82670  0.71590  0.68390  Biso   1.000  H
  C1056    1.0000 0.84001  0.76300  0.64926  Biso   1.000  C
  C1057    1.0000 0.86660  0.78471  0.67819  Biso   1.000  C
  H1130    1.0000 0.86850  0.76940  0.70300  Biso   1.000  H
  H1131    1.0000 0.85480  0.81070  0.68460  Biso   1.000  H
  N76      1.0000 0.90728  0.79076  0.66146  Biso   1.000  N
  H1132    1.0000 0.91750  0.76910  0.65860  Biso   1.000  H
  C1058    1.0000 0.93610  0.81506  0.68495  Biso   1.000  C
  C1059    1.0000 0.94768  0.79628  0.72508  Biso   1.000  C
  H1133    1.0000 0.97350  0.78280  0.72300  Biso   1.000  H
  H1134    1.0000 0.92760  0.77670  0.73340  Biso   1.000  H
  C1060    1.0000 0.94990  0.82980  0.75460  Biso   1.000  C
  H1135    1.0000 0.94600  0.82030  0.78200  Biso   1.000  H
  H1136    1.0000 0.97540  0.84400  0.75280  Biso   1.000  H
  C1061    1.0000 0.91460  0.85660  0.74060  Biso   1.000  C
  H1137    1.0000 0.91680  0.88350  0.75170  Biso   1.000  H
  H1138    1.0000 0.88900  0.84510  0.74860  Biso   1.000  H
  C1062    1.0000 0.91893  0.85703  0.69571  Biso   1.000  C
  H1139    1.0000 0.89300  0.86120  0.68280  Biso   1.000  H
  H1140    1.0000 0.93720  0.87820  0.68730  Biso   1.000  H
  C1063    1.0000 0.97193  0.82233  0.65760  Biso   1.000  C
  O227     1.0000 0.96442  0.82344  0.62002  Biso   1.000  O
  O228     1.0000 0.00497  0.82794  0.67260  Biso   1.000  O
  C1064    1.0000 0.94390  0.86970  0.73220  Biso   1.000  C
  Cu77     1.0000 0.59148  0.81370  0.39316  Biso   1.000  Cu
  O229     1.0000 0.64951  0.81434  0.39764  Biso   1.000  O
  C1065    1.0000 0.66768  0.77989  0.38818  Biso   1.000  C
  C1066    1.0000 0.69311  0.76104  0.41486  Biso   1.000  C
  H1141    1.0000 0.69810  0.77250  0.43990  Biso   1.000  H
  C1067    1.0000 0.71089  0.72565  0.40453  Biso   1.000  C
  H1142    1.0000 0.72810  0.71290  0.42260  Biso   1.000  H
  C1068    1.0000 0.70362  0.70866  0.36764  Biso   1.000  C
  H1143    1.0000 0.71590  0.68440  0.36060  Biso   1.000  H
  C1069    1.0000 0.67820  0.72751  0.34108  Biso   1.000  C
  H1144    1.0000 0.67330  0.71590  0.31610  Biso   1.000  H
  C1070    1.0000 0.65999  0.76300  0.35074  Biso   1.000  C
  C1071    1.0000 0.63340  0.78471  0.32181  Biso   1.000  C
  H1145    1.0000 0.63150  0.76940  0.29700  Biso   1.000  H
  H1146    1.0000 0.64520  0.81070  0.31540  Biso   1.000  H
  N77      1.0000 0.59272  0.79076  0.33854  Biso   1.000  N
  H1147    1.0000 0.58250  0.76910  0.34140  Biso   1.000  H
  C1072    1.0000 0.56390  0.81506  0.31505  Biso   1.000  C
  C1073    1.0000 0.55232  0.79628  0.27492  Biso   1.000  C
  H1148    1.0000 0.52650  0.78280  0.27700  Biso   1.000  H
  H1149    1.0000 0.57240  0.77670  0.26660  Biso   1.000  H
  C1074    1.0000 0.55010  0.82980  0.24540  Biso   1.000  C
  H1150    1.0000 0.55400  0.82030  0.21800  Biso   1.000  H
  H1151    1.0000 0.52460  0.84400  0.24720  Biso   1.000  H
  C1075    1.0000 0.58540  0.85660  0.25940  Biso   1.000  C
  H1152    1.0000 0.58320  0.88350  0.24830  Biso   1.000  H
  H1153    1.0000 0.61100  0.84510  0.25140  Biso   1.000  H
  C1076    1.0000 0.58107  0.85703  0.30429  Biso   1.000  C
  H1154    1.0000 0.60700  0.86120  0.31720  Biso   1.000  H
  H1155    1.0000 0.56280  0.87820  0.31270  Biso   1.000  H
  C1077    1.0000 0.52807  0.82233  0.34240  Biso   1.000  C
  O230     1.0000 0.53558  0.82344  0.37998  Biso   1.000  O
  O231     1.0000 0.49503  0.82794  0.32740  Biso   1.000  O
  C1078    1.0000 0.55610  0.86970  0.26780  Biso   1.000  C
  Cu78     1.0000 0.09148  0.31370  0.89316  Biso   1.000  Cu
  O232     1.0000 0.14951  0.31434  0.89764  Biso   1.000  O
  C1079    1.0000 0.16768  0.27989  0.88818  Biso   1.000  C
  C1080    1.0000 0.19311  0.26104  0.91486  Biso   1.000  C
  H1156    1.0000 0.19810  0.27250  0.93990  Biso   1.000  H
  C1081    1.0000 0.21089  0.22565  0.90453  Biso   1.000  C
  H1157    1.0000 0.22810  0.21290  0.92260  Biso   1.000  H
  C1082    1.0000 0.20362  0.20866  0.86764  Biso   1.000  C
  H1158    1.0000 0.21590  0.18440  0.86060  Biso   1.000  H
  C1083    1.0000 0.17820  0.22751  0.84108  Biso   1.000  C
  H1159    1.0000 0.17330  0.21590  0.81610  Biso   1.000  H
  C1084    1.0000 0.15999  0.26300  0.85074  Biso   1.000  C
  C1085    1.0000 0.13340  0.28471  0.82181  Biso   1.000  C
  H1160    1.0000 0.13150  0.26940  0.79700  Biso   1.000  H
  H1161    1.0000 0.14520  0.31070  0.81540  Biso   1.000  H
  N78      1.0000 0.09272  0.29076  0.83854  Biso   1.000  N
  H1162    1.0000 0.08250  0.26910  0.84140  Biso   1.000  H
  C1086    1.0000 0.06390  0.31506  0.81505  Biso   1.000  C
  C1087    1.0000 0.05232  0.29628  0.77492  Biso   1.000  C
  H1163    1.0000 0.02650  0.28280  0.77700  Biso   1.000  H
  H1164    1.0000 0.07240  0.27670  0.76660  Biso   1.000  H
  C1088    1.0000 0.05010  0.32980  0.74540  Biso   1.000  C
  H1165    1.0000 0.05400  0.32030  0.71800  Biso   1.000  H
  H1166    1.0000 0.02460  0.34400  0.74720  Biso   1.000  H
  C1089    1.0000 0.08540  0.35660  0.75940  Biso   1.000  C
  H1167    1.0000 0.08320  0.38350  0.74830  Biso   1.000  H
  H1168    1.0000 0.11100  0.34510  0.75140  Biso   1.000  H
  C1090    1.0000 0.08107  0.35703  0.80429  Biso   1.000  C
  H1169    1.0000 0.10700  0.36120  0.81720  Biso   1.000  H
  H1170    1.0000 0.06280  0.37820  0.81270  Biso   1.000  H
  C1091    1.0000 0.02807  0.32233  0.84240  Biso   1.000  C
  O233     1.0000 0.03558  0.32344  0.87998  Biso   1.000  O
  O234     1.0000 0.99503  0.32794  0.82740  Biso   1.000  O
  C1092    1.0000 0.05610  0.36970  0.76780  Biso   1.000  C
  Cu79     1.0000 0.90852  0.18630  0.89316  Biso   1.000  Cu
  O235     1.0000 0.85049  0.18566  0.89764  Biso   1.000  O
  C1093    1.0000 0.83232  0.22011  0.88818  Biso   1.000  C
  C1094    1.0000 0.80689  0.23896  0.91486  Biso   1.000  C
  H1171    1.0000 0.80190  0.22750  0.93990  Biso   1.000  H
  C1095    1.0000 0.78911  0.27435  0.90453  Biso   1.000  C
  H1172    1.0000 0.77190  0.28710  0.92260  Biso   1.000  H
  C1096    1.0000 0.79638  0.29134  0.86764  Biso   1.000  C
  H1173    1.0000 0.78410  0.31560  0.86060  Biso   1.000  H
  C1097    1.0000 0.82180  0.27249  0.84108  Biso   1.000  C
  H1174    1.0000 0.82670  0.28410  0.81610  Biso   1.000  H
  C1098    1.0000 0.84001  0.23700  0.85074  Biso   1.000  C
  C1099    1.0000 0.86660  0.21529  0.82181  Biso   1.000  C
  H1175    1.0000 0.86850  0.23060  0.79700  Biso   1.000  H
  H1176    1.0000 0.85480  0.18930  0.81540  Biso   1.000  H
  N79      1.0000 0.90728  0.20924  0.83854  Biso   1.000  N
  H1177    1.0000 0.91750  0.23090  0.84140  Biso   1.000  H
  C1100    1.0000 0.93610  0.18494  0.81505  Biso   1.000  C
  C1101    1.0000 0.94768  0.20372  0.77492  Biso   1.000  C
  H1178    1.0000 0.97350  0.21720  0.77700  Biso   1.000  H
  H1179    1.0000 0.92760  0.22330  0.76660  Biso   1.000  H
  C1102    1.0000 0.94990  0.17020  0.74540  Biso   1.000  C
  H1180    1.0000 0.94600  0.17970  0.71800  Biso   1.000  H
  H1181    1.0000 0.97540  0.15600  0.74720  Biso   1.000  H
  C1103    1.0000 0.91460  0.14340  0.75940  Biso   1.000  C
  H1182    1.0000 0.91680  0.11650  0.74830  Biso   1.000  H
  H1183    1.0000 0.88900  0.15490  0.75140  Biso   1.000  H
  C1104    1.0000 0.91893  0.14297  0.80429  Biso   1.000  C
  H1184    1.0000 0.89300  0.13880  0.81720  Biso   1.000  H
  H1185    1.0000 0.93720  0.12180  0.81270  Biso   1.000  H
  C1105    1.0000 0.97193  0.17767  0.84240  Biso   1.000  C
  O236     1.0000 0.96442  0.17656  0.87998  Biso   1.000  O
  O237     1.0000 0.00497  0.17206  0.82740  Biso   1.000  O
  C1106    1.0000 0.94390  0.13030  0.76780  Biso   1.000  C
  Cu80     1.0000 0.40852  0.68630  0.39316  Biso   1.000  Cu
  O238     1.0000 0.35049  0.68566  0.39764  Biso   1.000  O
  C1107    1.0000 0.33232  0.72011  0.38818  Biso   1.000  C
  C1108    1.0000 0.30689  0.73896  0.41486  Biso   1.000  C
  H1186    1.0000 0.30190  0.72750  0.43990  Biso   1.000  H
  C1109    1.0000 0.28911  0.77435  0.40453  Biso   1.000  C
  H1187    1.0000 0.27190  0.78710  0.42260  Biso   1.000  H
  C1110    1.0000 0.29638  0.79134  0.36764  Biso   1.000  C
  H1188    1.0000 0.28410  0.81560  0.36060  Biso   1.000  H
  C1111    1.0000 0.32180  0.77249  0.34108  Biso   1.000  C
  H1189    1.0000 0.32670  0.78410  0.31610  Biso   1.000  H
  C1112    1.0000 0.34001  0.73700  0.35074  Biso   1.000  C
  C1113    1.0000 0.36660  0.71529  0.32181  Biso   1.000  C
  H1190    1.0000 0.36850  0.73060  0.29700  Biso   1.000  H
  H1191    1.0000 0.35480  0.68930  0.31540  Biso   1.000  H
  N80      1.0000 0.40728  0.70924  0.33854  Biso   1.000  N
  H1192    1.0000 0.41750  0.73090  0.34140  Biso   1.000  H
  C1114    1.0000 0.43610  0.68494  0.31505  Biso   1.000  C
  C1115    1.0000 0.44768  0.70372  0.27492  Biso   1.000  C
  H1193    1.0000 0.47350  0.71720  0.27700  Biso   1.000  H
  H1194    1.0000 0.42760  0.72330  0.26660  Biso   1.000  H
  C1116    1.0000 0.44990  0.67020  0.24540  Biso   1.000  C
  H1195    1.0000 0.44600  0.67970  0.21800  Biso   1.000  H
  H1196    1.0000 0.47540  0.65600  0.24720  Biso   1.000  H
  C1117    1.0000 0.41460  0.64340  0.25940  Biso   1.000  C
  H1197    1.0000 0.41680  0.61650  0.24830  Biso   1.000  H
  H1198    1.0000 0.38900  0.65490  0.25140  Biso   1.000  H
  C1118    1.0000 0.41893  0.64297  0.30429  Biso   1.000  C
  H1199    1.0000 0.39300  0.63880  0.31720  Biso   1.000  H
  H1200    1.0000 0.43720  0.62180  0.31270  Biso   1.000  H
  C1119    1.0000 0.47193  0.67767  0.34240  Biso   1.000  C
  O239     1.0000 0.46442  0.67656  0.37998  Biso   1.000  O
  O240     1.0000 0.50497  0.67206  0.32740  Biso   1.000  O
  C1120    1.0000 0.44390  0.63030  0.26780  Biso   1.000  C
  Cu81     1.0000 0.18630  0.89316  0.90852  Biso   1.000  Cu
  O241     1.0000 0.18566  0.89764  0.85049  Biso   1.000  O
  C1121    1.0000 0.22011  0.88818  0.83232  Biso   1.000  C
  C1122    1.0000 0.23896  0.91486  0.80689  Biso   1.000  C
  H1201    1.0000 0.22750  0.93990  0.80190  Biso   1.000  H
  C1123    1.0000 0.27435  0.90453  0.78911  Biso   1.000  C
  H1202    1.0000 0.28710  0.92260  0.77190  Biso   1.000  H
  C1124    1.0000 0.29134  0.86764  0.79638  Biso   1.000  C
  H1203    1.0000 0.31560  0.86060  0.78410  Biso   1.000  H
  C1125    1.0000 0.27249  0.84108  0.82180  Biso   1.000  C
  H1204    1.0000 0.28410  0.81610  0.82670  Biso   1.000  H
  C1126    1.0000 0.23700  0.85074  0.84001  Biso   1.000  C
  C1127    1.0000 0.21529  0.82181  0.86660  Biso   1.000  C
  H1205    1.0000 0.23060  0.79700  0.86850  Biso   1.000  H
  H1206    1.0000 0.18930  0.81540  0.85480  Biso   1.000  H
  N81      1.0000 0.20924  0.83854  0.90728  Biso   1.000  N
  H1207    1.0000 0.23090  0.84140  0.91750  Biso   1.000  H
  C1128    1.0000 0.18494  0.81505  0.93610  Biso   1.000  C
  C1129    1.0000 0.20372  0.77492  0.94768  Biso   1.000  C
  H1208    1.0000 0.21720  0.77700  0.97350  Biso   1.000  H
  H1209    1.0000 0.22330  0.76660  0.92760  Biso   1.000  H
  C1130    1.0000 0.17020  0.74540  0.94990  Biso   1.000  C
  H1210    1.0000 0.17970  0.71800  0.94600  Biso   1.000  H
  H1211    1.0000 0.15600  0.74720  0.97540  Biso   1.000  H
  C1131    1.0000 0.14340  0.75940  0.91460  Biso   1.000  C
  H1212    1.0000 0.11650  0.74830  0.91680  Biso   1.000  H
  H1213    1.0000 0.15490  0.75140  0.88900  Biso   1.000  H
  C1132    1.0000 0.14297  0.80429  0.91893  Biso   1.000  C
  H1214    1.0000 0.13880  0.81720  0.89300  Biso   1.000  H
  H1215    1.0000 0.12180  0.81270  0.93720  Biso   1.000  H
  C1133    1.0000 0.17767  0.84240  0.97193  Biso   1.000  C
  O242     1.0000 0.17656  0.87998  0.96442  Biso   1.000  O
  O243     1.0000 0.17206  0.82740  0.00497  Biso   1.000  O
  C1134    1.0000 0.13030  0.76780  0.94390  Biso   1.000  C
  Cu82     1.0000 0.68630  0.39316  0.40852  Biso   1.000  Cu
  O244     1.0000 0.68566  0.39764  0.35049  Biso   1.000  O
  C1135    1.0000 0.72011  0.38818  0.33232  Biso   1.000  C
  C1136    1.0000 0.73896  0.41486  0.30689  Biso   1.000  C
  H1216    1.0000 0.72750  0.43990  0.30190  Biso   1.000  H
  C1137    1.0000 0.77435  0.40453  0.28911  Biso   1.000  C
  H1217    1.0000 0.78710  0.42260  0.27190  Biso   1.000  H
  C1138    1.0000 0.79134  0.36764  0.29638  Biso   1.000  C
  H1218    1.0000 0.81560  0.36060  0.28410  Biso   1.000  H
  C1139    1.0000 0.77249  0.34108  0.32180  Biso   1.000  C
  H1219    1.0000 0.78410  0.31610  0.32670  Biso   1.000  H
  C1140    1.0000 0.73700  0.35074  0.34001  Biso   1.000  C
  C1141    1.0000 0.71529  0.32181  0.36660  Biso   1.000  C
  H1220    1.0000 0.73060  0.29700  0.36850  Biso   1.000  H
  H1221    1.0000 0.68930  0.31540  0.35480  Biso   1.000  H
  N82      1.0000 0.70924  0.33854  0.40728  Biso   1.000  N
  H1222    1.0000 0.73090  0.34140  0.41750  Biso   1.000  H
  C1142    1.0000 0.68494  0.31505  0.43610  Biso   1.000  C
  C1143    1.0000 0.70372  0.27492  0.44768  Biso   1.000  C
  H1223    1.0000 0.71720  0.27700  0.47350  Biso   1.000  H
  H1224    1.0000 0.72330  0.26660  0.42760  Biso   1.000  H
  C1144    1.0000 0.67020  0.24540  0.44990  Biso   1.000  C
  H1225    1.0000 0.67970  0.21800  0.44600  Biso   1.000  H
  H1226    1.0000 0.65600  0.24720  0.47540  Biso   1.000  H
  C1145    1.0000 0.64340  0.25940  0.41460  Biso   1.000  C
  H1227    1.0000 0.61650  0.24830  0.41680  Biso   1.000  H
  H1228    1.0000 0.65490  0.25140  0.38900  Biso   1.000  H
  C1146    1.0000 0.64297  0.30429  0.41893  Biso   1.000  C
  H1229    1.0000 0.63880  0.31720  0.39300  Biso   1.000  H
  H1230    1.0000 0.62180  0.31270  0.43720  Biso   1.000  H
  C1147    1.0000 0.67767  0.34240  0.47193  Biso   1.000  C
  O245     1.0000 0.67656  0.37998  0.46442  Biso   1.000  O
  O246     1.0000 0.67206  0.32740  0.50497  Biso   1.000  O
  C1148    1.0000 0.63030  0.26780  0.44390  Biso   1.000  C
  Cu83     1.0000 0.81370  0.39316  0.59148  Biso   1.000  Cu
  O247     1.0000 0.81434  0.39764  0.64951  Biso   1.000  O
  C1149    1.0000 0.77989  0.38818  0.66768  Biso   1.000  C
  C1150    1.0000 0.76104  0.41486  0.69311  Biso   1.000  C
  H1231    1.0000 0.77250  0.43990  0.69810  Biso   1.000  H
  C1151    1.0000 0.72565  0.40453  0.71089  Biso   1.000  C
  H1232    1.0000 0.71290  0.42260  0.72810  Biso   1.000  H
  C1152    1.0000 0.70866  0.36764  0.70362  Biso   1.000  C
  H1233    1.0000 0.68440  0.36060  0.71590  Biso   1.000  H
  C1153    1.0000 0.72751  0.34108  0.67820  Biso   1.000  C
  H1234    1.0000 0.71590  0.31610  0.67330  Biso   1.000  H
  C1154    1.0000 0.76300  0.35074  0.65999  Biso   1.000  C
  C1155    1.0000 0.78471  0.32181  0.63340  Biso   1.000  C
  H1235    1.0000 0.76940  0.29700  0.63150  Biso   1.000  H
  H1236    1.0000 0.81070  0.31540  0.64520  Biso   1.000  H
  N83      1.0000 0.79076  0.33854  0.59272  Biso   1.000  N
  H1237    1.0000 0.76910  0.34140  0.58250  Biso   1.000  H
  C1156    1.0000 0.81506  0.31505  0.56390  Biso   1.000  C
  C1157    1.0000 0.79628  0.27492  0.55232  Biso   1.000  C
  H1238    1.0000 0.78280  0.27700  0.52650  Biso   1.000  H
  H1239    1.0000 0.77670  0.26660  0.57240  Biso   1.000  H
  C1158    1.0000 0.82980  0.24540  0.55010  Biso   1.000  C
  H1240    1.0000 0.82030  0.21800  0.55400  Biso   1.000  H
  H1241    1.0000 0.84400  0.24720  0.52460  Biso   1.000  H
  C1159    1.0000 0.85660  0.25940  0.58540  Biso   1.000  C
  H1242    1.0000 0.88350  0.24830  0.58320  Biso   1.000  H
  H1243    1.0000 0.84510  0.25140  0.61100  Biso   1.000  H
  C1160    1.0000 0.85703  0.30429  0.58107  Biso   1.000  C
  H1244    1.0000 0.86120  0.31720  0.60700  Biso   1.000  H
  H1245    1.0000 0.87820  0.31270  0.56280  Biso   1.000  H
  C1161    1.0000 0.82233  0.34240  0.52807  Biso   1.000  C
  O248     1.0000 0.82344  0.37998  0.53558  Biso   1.000  O
  O249     1.0000 0.82794  0.32740  0.49503  Biso   1.000  O
  C1162    1.0000 0.86970  0.26780  0.55610  Biso   1.000  C
  Cu84     1.0000 0.31370  0.89316  0.09148  Biso   1.000  Cu
  O250     1.0000 0.31434  0.89764  0.14951  Biso   1.000  O
  C1163    1.0000 0.27989  0.88818  0.16768  Biso   1.000  C
  C1164    1.0000 0.26104  0.91486  0.19311  Biso   1.000  C
  H1246    1.0000 0.27250  0.93990  0.19810  Biso   1.000  H
  C1165    1.0000 0.22565  0.90453  0.21089  Biso   1.000  C
  H1247    1.0000 0.21290  0.92260  0.22810  Biso   1.000  H
  C1166    1.0000 0.20866  0.86764  0.20362  Biso   1.000  C
  H1248    1.0000 0.18440  0.86060  0.21590  Biso   1.000  H
  C1167    1.0000 0.22751  0.84108  0.17820  Biso   1.000  C
  H1249    1.0000 0.21590  0.81610  0.17330  Biso   1.000  H
  C1168    1.0000 0.26300  0.85074  0.15999  Biso   1.000  C
  C1169    1.0000 0.28471  0.82181  0.13340  Biso   1.000  C
  H1250    1.0000 0.26940  0.79700  0.13150  Biso   1.000  H
  H1251    1.0000 0.31070  0.81540  0.14520  Biso   1.000  H
  N84      1.0000 0.29076  0.83854  0.09272  Biso   1.000  N
  H1252    1.0000 0.26910  0.84140  0.08250  Biso   1.000  H
  C1170    1.0000 0.31506  0.81505  0.06390  Biso   1.000  C
  C1171    1.0000 0.29628  0.77492  0.05232  Biso   1.000  C
  H1253    1.0000 0.28280  0.77700  0.02650  Biso   1.000  H
  H1254    1.0000 0.27670  0.76660  0.07240  Biso   1.000  H
  C1172    1.0000 0.32980  0.74540  0.05010  Biso   1.000  C
  H1255    1.0000 0.32030  0.71800  0.05400  Biso   1.000  H
  H1256    1.0000 0.34400  0.74720  0.02460  Biso   1.000  H
  C1173    1.0000 0.35660  0.75940  0.08540  Biso   1.000  C
  H1257    1.0000 0.38350  0.74830  0.08320  Biso   1.000  H
  H1258    1.0000 0.34510  0.75140  0.11100  Biso   1.000  H
  C1174    1.0000 0.35703  0.80429  0.08107  Biso   1.000  C
  H1259    1.0000 0.36120  0.81720  0.10700  Biso   1.000  H
  H1260    1.0000 0.37820  0.81270  0.06280  Biso   1.000  H
  C1175    1.0000 0.32233  0.84240  0.02807  Biso   1.000  C
  O251     1.0000 0.32344  0.87998  0.03558  Biso   1.000  O
  O252     1.0000 0.32794  0.82740  0.99503  Biso   1.000  O
  C1176    1.0000 0.36970  0.76780  0.05610  Biso   1.000  C
  Cu85     1.0000 0.31370  0.10684  0.40852  Biso   1.000  Cu
  O253     1.0000 0.31434  0.10236  0.35049  Biso   1.000  O
  C1177    1.0000 0.27989  0.11182  0.33232  Biso   1.000  C
  C1178    1.0000 0.26104  0.08514  0.30689  Biso   1.000  C
  H1261    1.0000 0.27250  0.06010  0.30190  Biso   1.000  H
  C1179    1.0000 0.22565  0.09547  0.28911  Biso   1.000  C
  H1262    1.0000 0.21290  0.07740  0.27190  Biso   1.000  H
  C1180    1.0000 0.20866  0.13236  0.29638  Biso   1.000  C
  H1263    1.0000 0.18440  0.13940  0.28410  Biso   1.000  H
  C1181    1.0000 0.22751  0.15892  0.32180  Biso   1.000  C
  H1264    1.0000 0.21590  0.18390  0.32670  Biso   1.000  H
  C1182    1.0000 0.26300  0.14926  0.34001  Biso   1.000  C
  C1183    1.0000 0.28471  0.17819  0.36660  Biso   1.000  C
  H1265    1.0000 0.26940  0.20300  0.36850  Biso   1.000  H
  H1266    1.0000 0.31070  0.18460  0.35480  Biso   1.000  H
  N85      1.0000 0.29076  0.16146  0.40728  Biso   1.000  N
  H1267    1.0000 0.26910  0.15860  0.41750  Biso   1.000  H
  C1184    1.0000 0.31506  0.18495  0.43610  Biso   1.000  C
  C1185    1.0000 0.29628  0.22508  0.44768  Biso   1.000  C
  H1268    1.0000 0.28280  0.22300  0.47350  Biso   1.000  H
  H1269    1.0000 0.27670  0.23340  0.42760  Biso   1.000  H
  C1186    1.0000 0.32980  0.25460  0.44990  Biso   1.000  C
  H1270    1.0000 0.32030  0.28200  0.44600  Biso   1.000  H
  H1271    1.0000 0.34400  0.25280  0.47540  Biso   1.000  H
  C1187    1.0000 0.35660  0.24060  0.41460  Biso   1.000  C
  H1272    1.0000 0.38350  0.25170  0.41680  Biso   1.000  H
  H1273    1.0000 0.34510  0.24860  0.38900  Biso   1.000  H
  C1188    1.0000 0.35703  0.19571  0.41893  Biso   1.000  C
  H1274    1.0000 0.36120  0.18280  0.39300  Biso   1.000  H
  H1275    1.0000 0.37820  0.18730  0.43720  Biso   1.000  H
  C1189    1.0000 0.32233  0.15760  0.47193  Biso   1.000  C
  O254     1.0000 0.32344  0.12002  0.46442  Biso   1.000  O
  O255     1.0000 0.32794  0.17260  0.50497  Biso   1.000  O
  C1190    1.0000 0.36970  0.23220  0.44390  Biso   1.000  C
  Cu86     1.0000 0.81370  0.60684  0.90852  Biso   1.000  Cu
  O256     1.0000 0.81434  0.60236  0.85049  Biso   1.000  O
  C1191    1.0000 0.77989  0.61182  0.83232  Biso   1.000  C
  C1192    1.0000 0.76104  0.58514  0.80689  Biso   1.000  C
  H1276    1.0000 0.77250  0.56010  0.80190  Biso   1.000  H
  C1193    1.0000 0.72565  0.59547  0.78911  Biso   1.000  C
  H1277    1.0000 0.71290  0.57740  0.77190  Biso   1.000  H
  C1194    1.0000 0.70866  0.63236  0.79638  Biso   1.000  C
  H1278    1.0000 0.68440  0.63940  0.78410  Biso   1.000  H
  C1195    1.0000 0.72751  0.65892  0.82180  Biso   1.000  C
  H1279    1.0000 0.71590  0.68390  0.82670  Biso   1.000  H
  C1196    1.0000 0.76300  0.64926  0.84001  Biso   1.000  C
  C1197    1.0000 0.78471  0.67819  0.86660  Biso   1.000  C
  H1280    1.0000 0.76940  0.70300  0.86850  Biso   1.000  H
  H1281    1.0000 0.81070  0.68460  0.85480  Biso   1.000  H
  N86      1.0000 0.79076  0.66146  0.90728  Biso   1.000  N
  H1282    1.0000 0.76910  0.65860  0.91750  Biso   1.000  H
  C1198    1.0000 0.81506  0.68495  0.93610  Biso   1.000  C
  C1199    1.0000 0.79628  0.72508  0.94768  Biso   1.000  C
  H1283    1.0000 0.78280  0.72300  0.97350  Biso   1.000  H
  H1284    1.0000 0.77670  0.73340  0.92760  Biso   1.000  H
  C1200    1.0000 0.82980  0.75460  0.94990  Biso   1.000  C
  H1285    1.0000 0.82030  0.78200  0.94600  Biso   1.000  H
  H1286    1.0000 0.84400  0.75280  0.97540  Biso   1.000  H
  C1201    1.0000 0.85660  0.74060  0.91460  Biso   1.000  C
  H1287    1.0000 0.88350  0.75170  0.91680  Biso   1.000  H
  H1288    1.0000 0.84510  0.74860  0.88900  Biso   1.000  H
  C1202    1.0000 0.85703  0.69571  0.91893  Biso   1.000  C
  H1289    1.0000 0.86120  0.68280  0.89300  Biso   1.000  H
  H1290    1.0000 0.87820  0.68730  0.93720  Biso   1.000  H
  C1203    1.0000 0.82233  0.65760  0.97193  Biso   1.000  C
  O257     1.0000 0.82344  0.62002  0.96442  Biso   1.000  O
  O258     1.0000 0.82794  0.67260  0.00497  Biso   1.000  O
  C1204    1.0000 0.86970  0.73220  0.94390  Biso   1.000  C
  Cu87     1.0000 0.68630  0.60684  0.09148  Biso   1.000  Cu
  O259     1.0000 0.68566  0.60236  0.14951  Biso   1.000  O
  C1205    1.0000 0.72011  0.61182  0.16768  Biso   1.000  C
  C1206    1.0000 0.73896  0.58514  0.19311  Biso   1.000  C
  H1291    1.0000 0.72750  0.56010  0.19810  Biso   1.000  H
  C1207    1.0000 0.77435  0.59547  0.21089  Biso   1.000  C
  H1292    1.0000 0.78710  0.57740  0.22810  Biso   1.000  H
  C1208    1.0000 0.79134  0.63236  0.20362  Biso   1.000  C
  H1293    1.0000 0.81560  0.63940  0.21590  Biso   1.000  H
  C1209    1.0000 0.77249  0.65892  0.17820  Biso   1.000  C
  H1294    1.0000 0.78410  0.68390  0.17330  Biso   1.000  H
  C1210    1.0000 0.73700  0.64926  0.15999  Biso   1.000  C
  C1211    1.0000 0.71529  0.67819  0.13340  Biso   1.000  C
  H1295    1.0000 0.73060  0.70300  0.13150  Biso   1.000  H
  H1296    1.0000 0.68930  0.68460  0.14520  Biso   1.000  H
  N87      1.0000 0.70924  0.66146  0.09272  Biso   1.000  N
  H1297    1.0000 0.73090  0.65860  0.08250  Biso   1.000  H
  C1212    1.0000 0.68494  0.68495  0.06390  Biso   1.000  C
  C1213    1.0000 0.70372  0.72508  0.05232  Biso   1.000  C
  H1298    1.0000 0.71720  0.72300  0.02650  Biso   1.000  H
  H1299    1.0000 0.72330  0.73340  0.07240  Biso   1.000  H
  C1214    1.0000 0.67020  0.75460  0.05010  Biso   1.000  C
  H1300    1.0000 0.67970  0.78200  0.05400  Biso   1.000  H
  H1301    1.0000 0.65600  0.75280  0.02460  Biso   1.000  H
  C1215    1.0000 0.64340  0.74060  0.08540  Biso   1.000  C
  H1302    1.0000 0.61650  0.75170  0.08320  Biso   1.000  H
  H1303    1.0000 0.65490  0.74860  0.11100  Biso   1.000  H
  C1216    1.0000 0.64297  0.69571  0.08107  Biso   1.000  C
  H1304    1.0000 0.63880  0.68280  0.10700  Biso   1.000  H
  H1305    1.0000 0.62180  0.68730  0.06280  Biso   1.000  H
  C1217    1.0000 0.67767  0.65760  0.02807  Biso   1.000  C
  O260     1.0000 0.67656  0.62002  0.03558  Biso   1.000  O
  O261     1.0000 0.67206  0.67260  0.99503  Biso   1.000  O
  C1218    1.0000 0.63030  0.73220  0.05610  Biso   1.000  C
  Cu88     1.0000 0.18630  0.10684  0.59148  Biso   1.000  Cu
  O262     1.0000 0.18566  0.10236  0.64951  Biso   1.000  O
  C1219    1.0000 0.22011  0.11182  0.66768  Biso   1.000  C
  C1220    1.0000 0.23896  0.08514  0.69311  Biso   1.000  C
  H1306    1.0000 0.22750  0.06010  0.69810  Biso   1.000  H
  C1221    1.0000 0.27435  0.09547  0.71089  Biso   1.000  C
  H1307    1.0000 0.28710  0.07740  0.72810  Biso   1.000  H
  C1222    1.0000 0.29134  0.13236  0.70362  Biso   1.000  C
  H1308    1.0000 0.31560  0.13940  0.71590  Biso   1.000  H
  C1223    1.0000 0.27249  0.15892  0.67820  Biso   1.000  C
  H1309    1.0000 0.28410  0.18390  0.67330  Biso   1.000  H
  C1224    1.0000 0.23700  0.14926  0.65999  Biso   1.000  C
  C1225    1.0000 0.21529  0.17819  0.63340  Biso   1.000  C
  H1310    1.0000 0.23060  0.20300  0.63150  Biso   1.000  H
  H1311    1.0000 0.18930  0.18460  0.64520  Biso   1.000  H
  N88      1.0000 0.20924  0.16146  0.59272  Biso   1.000  N
  H1312    1.0000 0.23090  0.15860  0.58250  Biso   1.000  H
  C1226    1.0000 0.18494  0.18495  0.56390  Biso   1.000  C
  C1227    1.0000 0.20372  0.22508  0.55232  Biso   1.000  C
  H1313    1.0000 0.21720  0.22300  0.52650  Biso   1.000  H
  H1314    1.0000 0.22330  0.23340  0.57240  Biso   1.000  H
  C1228    1.0000 0.17020  0.25460  0.55010  Biso   1.000  C
  H1315    1.0000 0.17970  0.28200  0.55400  Biso   1.000  H
  H1316    1.0000 0.15600  0.25280  0.52460  Biso   1.000  H
  C1229    1.0000 0.14340  0.24060  0.58540  Biso   1.000  C
  H1317    1.0000 0.11650  0.25170  0.58320  Biso   1.000  H
  H1318    1.0000 0.15490  0.24860  0.61100  Biso   1.000  H
  C1230    1.0000 0.14297  0.19571  0.58107  Biso   1.000  C
  H1319    1.0000 0.13880  0.18280  0.60700  Biso   1.000  H
  H1320    1.0000 0.12180  0.18730  0.56280  Biso   1.000  H
  C1231    1.0000 0.17767  0.15760  0.52807  Biso   1.000  C
  O263     1.0000 0.17656  0.12002  0.53558  Biso   1.000  O
  O264     1.0000 0.17206  0.17260  0.49503  Biso   1.000  O
  C1232    1.0000 0.13030  0.23220  0.55610  Biso   1.000  C
  Cu89     1.0000 0.39316  0.59148  0.81370  Biso   1.000  Cu
  O265     1.0000 0.39764  0.64951  0.81434  Biso   1.000  O
  C1233    1.0000 0.38818  0.66768  0.77989  Biso   1.000  C
  C1234    1.0000 0.41486  0.69311  0.76104  Biso   1.000  C
  H1321    1.0000 0.43990  0.69810  0.77250  Biso   1.000  H
  C1235    1.0000 0.40453  0.71089  0.72565  Biso   1.000  C
  H1322    1.0000 0.42260  0.72810  0.71290  Biso   1.000  H
  C1236    1.0000 0.36764  0.70362  0.70866  Biso   1.000  C
  H1323    1.0000 0.36060  0.71590  0.68440  Biso   1.000  H
  C1237    1.0000 0.34108  0.67820  0.72751  Biso   1.000  C
  H1324    1.0000 0.31610  0.67330  0.71590  Biso   1.000  H
  C1238    1.0000 0.35074  0.65999  0.76300  Biso   1.000  C
  C1239    1.0000 0.32181  0.63340  0.78471  Biso   1.000  C
  H1325    1.0000 0.29700  0.63150  0.76940  Biso   1.000  H
  H1326    1.0000 0.31540  0.64520  0.81070  Biso   1.000  H
  N89      1.0000 0.33854  0.59272  0.79076  Biso   1.000  N
  H1327    1.0000 0.34140  0.58250  0.76910  Biso   1.000  H
  C1240    1.0000 0.31505  0.56390  0.81506  Biso   1.000  C
  C1241    1.0000 0.27492  0.55232  0.79628  Biso   1.000  C
  H1328    1.0000 0.27700  0.52650  0.78280  Biso   1.000  H
  H1329    1.0000 0.26660  0.57240  0.77670  Biso   1.000  H
  C1242    1.0000 0.24540  0.55010  0.82980  Biso   1.000  C
  H1330    1.0000 0.21800  0.55400  0.82030  Biso   1.000  H
  H1331    1.0000 0.24720  0.52460  0.84400  Biso   1.000  H
  C1243    1.0000 0.25940  0.58540  0.85660  Biso   1.000  C
  H1332    1.0000 0.24830  0.58320  0.88350  Biso   1.000  H
  H1333    1.0000 0.25140  0.61100  0.84510  Biso   1.000  H
  C1244    1.0000 0.30429  0.58107  0.85703  Biso   1.000  C
  H1334    1.0000 0.31720  0.60700  0.86120  Biso   1.000  H
  H1335    1.0000 0.31270  0.56280  0.87820  Biso   1.000  H
  C1245    1.0000 0.34240  0.52807  0.82233  Biso   1.000  C
  O266     1.0000 0.37998  0.53558  0.82344  Biso   1.000  O
  O267     1.0000 0.32740  0.49503  0.82794  Biso   1.000  O
  C1246    1.0000 0.26780  0.55610  0.86970  Biso   1.000  C
  Cu90     1.0000 0.89316  0.09148  0.31370  Biso   1.000  Cu
  O268     1.0000 0.89764  0.14951  0.31434  Biso   1.000  O
  C1247    1.0000 0.88818  0.16768  0.27989  Biso   1.000  C
  C1248    1.0000 0.91486  0.19311  0.26104  Biso   1.000  C
  H1336    1.0000 0.93990  0.19810  0.27250  Biso   1.000  H
  C1249    1.0000 0.90453  0.21089  0.22565  Biso   1.000  C
  H1337    1.0000 0.92260  0.22810  0.21290  Biso   1.000  H
  C1250    1.0000 0.86764  0.20362  0.20866  Biso   1.000  C
  H1338    1.0000 0.86060  0.21590  0.18440  Biso   1.000  H
  C1251    1.0000 0.84108  0.17820  0.22751  Biso   1.000  C
  H1339    1.0000 0.81610  0.17330  0.21590  Biso   1.000  H
  C1252    1.0000 0.85074  0.15999  0.26300  Biso   1.000  C
  C1253    1.0000 0.82181  0.13340  0.28471  Biso   1.000  C
  H1340    1.0000 0.79700  0.13150  0.26940  Biso   1.000  H
  H1341    1.0000 0.81540  0.14520  0.31070  Biso   1.000  H
  N90      1.0000 0.83854  0.09272  0.29076  Biso   1.000  N
  H1342    1.0000 0.84140  0.08250  0.26910  Biso   1.000  H
  C1254    1.0000 0.81505  0.06390  0.31506  Biso   1.000  C
  C1255    1.0000 0.77492  0.05232  0.29628  Biso   1.000  C
  H1343    1.0000 0.77700  0.02650  0.28280  Biso   1.000  H
  H1344    1.0000 0.76660  0.07240  0.27670  Biso   1.000  H
  C1256    1.0000 0.74540  0.05010  0.32980  Biso   1.000  C
  H1345    1.0000 0.71800  0.05400  0.32030  Biso   1.000  H
  H1346    1.0000 0.74720  0.02460  0.34400  Biso   1.000  H
  C1257    1.0000 0.75940  0.08540  0.35660  Biso   1.000  C
  H1347    1.0000 0.74830  0.08320  0.38350  Biso   1.000  H
  H1348    1.0000 0.75140  0.11100  0.34510  Biso   1.000  H
  C1258    1.0000 0.80429  0.08107  0.35703  Biso   1.000  C
  H1349    1.0000 0.81720  0.10700  0.36120  Biso   1.000  H
  H1350    1.0000 0.81270  0.06280  0.37820  Biso   1.000  H
  C1259    1.0000 0.84240  0.02807  0.32233  Biso   1.000  C
  O269     1.0000 0.87998  0.03558  0.32344  Biso   1.000  O
  O270     1.0000 0.82740  0.99503  0.32794  Biso   1.000  O
  C1260    1.0000 0.76780  0.05610  0.36970  Biso   1.000  C
  Cu91     1.0000 0.89316  0.90852  0.18630  Biso   1.000  Cu
  O271     1.0000 0.89764  0.85049  0.18566  Biso   1.000  O
  C1261    1.0000 0.88818  0.83232  0.22011  Biso   1.000  C
  C1262    1.0000 0.91486  0.80689  0.23896  Biso   1.000  C
  H1351    1.0000 0.93990  0.80190  0.22750  Biso   1.000  H
  C1263    1.0000 0.90453  0.78911  0.27435  Biso   1.000  C
  H1352    1.0000 0.92260  0.77190  0.28710  Biso   1.000  H
  C1264    1.0000 0.86764  0.79638  0.29134  Biso   1.000  C
  H1353    1.0000 0.86060  0.78410  0.31560  Biso   1.000  H
  C1265    1.0000 0.84108  0.82180  0.27249  Biso   1.000  C
  H1354    1.0000 0.81610  0.82670  0.28410  Biso   1.000  H
  C1266    1.0000 0.85074  0.84001  0.23700  Biso   1.000  C
  C1267    1.0000 0.82181  0.86660  0.21529  Biso   1.000  C
  H1355    1.0000 0.79700  0.86850  0.23060  Biso   1.000  H
  H1356    1.0000 0.81540  0.85480  0.18930  Biso   1.000  H
  N91      1.0000 0.83854  0.90728  0.20924  Biso   1.000  N
  H1357    1.0000 0.84140  0.91750  0.23090  Biso   1.000  H
  C1268    1.0000 0.81505  0.93610  0.18494  Biso   1.000  C
  C1269    1.0000 0.77492  0.94768  0.20372  Biso   1.000  C
  H1358    1.0000 0.77700  0.97350  0.21720  Biso   1.000  H
  H1359    1.0000 0.76660  0.92760  0.22330  Biso   1.000  H
  C1270    1.0000 0.74540  0.94990  0.17020  Biso   1.000  C
  H1360    1.0000 0.71800  0.94600  0.17970  Biso   1.000  H
  H1361    1.0000 0.74720  0.97540  0.15600  Biso   1.000  H
  C1271    1.0000 0.75940  0.91460  0.14340  Biso   1.000  C
  H1362    1.0000 0.74830  0.91680  0.11650  Biso   1.000  H
  H1363    1.0000 0.75140  0.88900  0.15490  Biso   1.000  H
  C1272    1.0000 0.80429  0.91893  0.14297  Biso   1.000  C
  H1364    1.0000 0.81720  0.89300  0.13880  Biso   1.000  H
  H1365    1.0000 0.81270  0.93720  0.12180  Biso   1.000  H
  C1273    1.0000 0.84240  0.97193  0.17767  Biso   1.000  C
  O272     1.0000 0.87998  0.96442  0.17656  Biso   1.000  O
  O273     1.0000 0.82740  0.00497  0.17206  Biso   1.000  O
  C1274    1.0000 0.76780  0.94390  0.13030  Biso   1.000  C
  Cu92     1.0000 0.39316  0.40852  0.68630  Biso   1.000  Cu
  O274     1.0000 0.39764  0.35049  0.68566  Biso   1.000  O
  C1275    1.0000 0.38818  0.33232  0.72011  Biso   1.000  C
  C1276    1.0000 0.41486  0.30689  0.73896  Biso   1.000  C
  H1366    1.0000 0.43990  0.30190  0.72750  Biso   1.000  H
  C1277    1.0000 0.40453  0.28911  0.77435  Biso   1.000  C
  H1367    1.0000 0.42260  0.27190  0.78710  Biso   1.000  H
  C1278    1.0000 0.36764  0.29638  0.79134  Biso   1.000  C
  H1368    1.0000 0.36060  0.28410  0.81560  Biso   1.000  H
  C1279    1.0000 0.34108  0.32180  0.77249  Biso   1.000  C
  H1369    1.0000 0.31610  0.32670  0.78410  Biso   1.000  H
  C1280    1.0000 0.35074  0.34001  0.73700  Biso   1.000  C
  C1281    1.0000 0.32181  0.36660  0.71529  Biso   1.000  C
  H1370    1.0000 0.29700  0.36850  0.73060  Biso   1.000  H
  H1371    1.0000 0.31540  0.35480  0.68930  Biso   1.000  H
  N92      1.0000 0.33854  0.40728  0.70924  Biso   1.000  N
  H1372    1.0000 0.34140  0.41750  0.73090  Biso   1.000  H
  C1282    1.0000 0.31505  0.43610  0.68494  Biso   1.000  C
  C1283    1.0000 0.27492  0.44768  0.70372  Biso   1.000  C
  H1373    1.0000 0.27700  0.47350  0.71720  Biso   1.000  H
  H1374    1.0000 0.26660  0.42760  0.72330  Biso   1.000  H
  C1284    1.0000 0.24540  0.44990  0.67020  Biso   1.000  C
  H1375    1.0000 0.21800  0.44600  0.67970  Biso   1.000  H
  H1376    1.0000 0.24720  0.47540  0.65600  Biso   1.000  H
  C1285    1.0000 0.25940  0.41460  0.64340  Biso   1.000  C
  H1377    1.0000 0.24830  0.41680  0.61650  Biso   1.000  H
  H1378    1.0000 0.25140  0.38900  0.65490  Biso   1.000  H
  C1286    1.0000 0.30429  0.41893  0.64297  Biso   1.000  C
  H1379    1.0000 0.31720  0.39300  0.63880  Biso   1.000  H
  H1380    1.0000 0.31270  0.43720  0.62180  Biso   1.000  H
  C1287    1.0000 0.34240  0.47193  0.67767  Biso   1.000  C
  O275     1.0000 0.37998  0.46442  0.67656  Biso   1.000  O
  O276     1.0000 0.32740  0.50497  0.67206  Biso   1.000  O
  C1288    1.0000 0.26780  0.44390  0.63030  Biso   1.000  C
  Cu93     1.0000 0.60684  0.09148  0.68630  Biso   1.000  Cu
  O277     1.0000 0.60236  0.14951  0.68566  Biso   1.000  O
  C1289    1.0000 0.61182  0.16768  0.72011  Biso   1.000  C
  C1290    1.0000 0.58514  0.19311  0.73896  Biso   1.000  C
  H1381    1.0000 0.56010  0.19810  0.72750  Biso   1.000  H
  C1291    1.0000 0.59547  0.21089  0.77435  Biso   1.000  C
  H1382    1.0000 0.57740  0.22810  0.78710  Biso   1.000  H
  C1292    1.0000 0.63236  0.20362  0.79134  Biso   1.000  C
  H1383    1.0000 0.63940  0.21590  0.81560  Biso   1.000  H
  C1293    1.0000 0.65892  0.17820  0.77249  Biso   1.000  C
  H1384    1.0000 0.68390  0.17330  0.78410  Biso   1.000  H
  C1294    1.0000 0.64926  0.15999  0.73700  Biso   1.000  C
  C1295    1.0000 0.67819  0.13340  0.71529  Biso   1.000  C
  H1385    1.0000 0.70300  0.13150  0.73060  Biso   1.000  H
  H1386    1.0000 0.68460  0.14520  0.68930  Biso   1.000  H
  N93      1.0000 0.66146  0.09272  0.70924  Biso   1.000  N
  H1387    1.0000 0.65860  0.08250  0.73090  Biso   1.000  H
  C1296    1.0000 0.68495  0.06390  0.68494  Biso   1.000  C
  C1297    1.0000 0.72508  0.05232  0.70372  Biso   1.000  C
  H1388    1.0000 0.72300  0.02650  0.71720  Biso   1.000  H
  H1389    1.0000 0.73340  0.07240  0.72330  Biso   1.000  H
  C1298    1.0000 0.75460  0.05010  0.67020  Biso   1.000  C
  H1390    1.0000 0.78200  0.05400  0.67970  Biso   1.000  H
  H1391    1.0000 0.75280  0.02460  0.65600  Biso   1.000  H
  C1299    1.0000 0.74060  0.08540  0.64340  Biso   1.000  C
  H1392    1.0000 0.75170  0.08320  0.61650  Biso   1.000  H
  H1393    1.0000 0.74860  0.11100  0.65490  Biso   1.000  H
  C1300    1.0000 0.69571  0.08107  0.64297  Biso   1.000  C
  H1394    1.0000 0.68280  0.10700  0.63880  Biso   1.000  H
  H1395    1.0000 0.68730  0.06280  0.62180  Biso   1.000  H
  C1301    1.0000 0.65760  0.02807  0.67767  Biso   1.000  C
  O278     1.0000 0.62002  0.03558  0.67656  Biso   1.000  O
  O279     1.0000 0.67260  0.99503  0.67206  Biso   1.000  O
  C1302    1.0000 0.73220  0.05610  0.63030  Biso   1.000  C
  Cu94     1.0000 0.10684  0.59148  0.18630  Biso   1.000  Cu
  O280     1.0000 0.10236  0.64951  0.18566  Biso   1.000  O
  C1303    1.0000 0.11182  0.66768  0.22011  Biso   1.000  C
  C1304    1.0000 0.08514  0.69311  0.23896  Biso   1.000  C
  H1396    1.0000 0.06010  0.69810  0.22750  Biso   1.000  H
  C1305    1.0000 0.09547  0.71089  0.27435  Biso   1.000  C
  H1397    1.0000 0.07740  0.72810  0.28710  Biso   1.000  H
  C1306    1.0000 0.13236  0.70362  0.29134  Biso   1.000  C
  H1398    1.0000 0.13940  0.71590  0.31560  Biso   1.000  H
  C1307    1.0000 0.15892  0.67820  0.27249  Biso   1.000  C
  H1399    1.0000 0.18390  0.67330  0.28410  Biso   1.000  H
  C1308    1.0000 0.14926  0.65999  0.23700  Biso   1.000  C
  C1309    1.0000 0.17819  0.63340  0.21529  Biso   1.000  C
  H1400    1.0000 0.20300  0.63150  0.23060  Biso   1.000  H
  H1401    1.0000 0.18460  0.64520  0.18930  Biso   1.000  H
  N94      1.0000 0.16146  0.59272  0.20924  Biso   1.000  N
  H1402    1.0000 0.15860  0.58250  0.23090  Biso   1.000  H
  C1310    1.0000 0.18495  0.56390  0.18494  Biso   1.000  C
  C1311    1.0000 0.22508  0.55232  0.20372  Biso   1.000  C
  H1403    1.0000 0.22300  0.52650  0.21720  Biso   1.000  H
  H1404    1.0000 0.23340  0.57240  0.22330  Biso   1.000  H
  C1312    1.0000 0.25460  0.55010  0.17020  Biso   1.000  C
  H1405    1.0000 0.28200  0.55400  0.17970  Biso   1.000  H
  H1406    1.0000 0.25280  0.52460  0.15600  Biso   1.000  H
  C1313    1.0000 0.24060  0.58540  0.14340  Biso   1.000  C
  H1407    1.0000 0.25170  0.58320  0.11650  Biso   1.000  H
  H1408    1.0000 0.24860  0.61100  0.15490  Biso   1.000  H
  C1314    1.0000 0.19571  0.58107  0.14297  Biso   1.000  C
  H1409    1.0000 0.18280  0.60700  0.13880  Biso   1.000  H
  H1410    1.0000 0.18730  0.56280  0.12180  Biso   1.000  H
  C1315    1.0000 0.15760  0.52807  0.17767  Biso   1.000  C
  O281     1.0000 0.12002  0.53558  0.17656  Biso   1.000  O
  O282     1.0000 0.17260  0.49503  0.17206  Biso   1.000  O
  C1316    1.0000 0.23220  0.55610  0.13030  Biso   1.000  C
  Cu95     1.0000 0.10684  0.40852  0.31370  Biso   1.000  Cu
  O283     1.0000 0.10236  0.35049  0.31434  Biso   1.000  O
  C1317    1.0000 0.11182  0.33232  0.27989  Biso   1.000  C
  C1318    1.0000 0.08514  0.30689  0.26104  Biso   1.000  C
  H1411    1.0000 0.06010  0.30190  0.27250  Biso   1.000  H
  C1319    1.0000 0.09547  0.28911  0.22565  Biso   1.000  C
  H1412    1.0000 0.07740  0.27190  0.21290  Biso   1.000  H
  C1320    1.0000 0.13236  0.29638  0.20866  Biso   1.000  C
  H1413    1.0000 0.13940  0.28410  0.18440  Biso   1.000  H
  C1321    1.0000 0.15892  0.32180  0.22751  Biso   1.000  C
  H1414    1.0000 0.18390  0.32670  0.21590  Biso   1.000  H
  C1322    1.0000 0.14926  0.34001  0.26300  Biso   1.000  C
  C1323    1.0000 0.17819  0.36660  0.28471  Biso   1.000  C
  H1415    1.0000 0.20300  0.36850  0.26940  Biso   1.000  H
  H1416    1.0000 0.18460  0.35480  0.31070  Biso   1.000  H
  N95      1.0000 0.16146  0.40728  0.29076  Biso   1.000  N
  H1417    1.0000 0.15860  0.41750  0.26910  Biso   1.000  H
  C1324    1.0000 0.18495  0.43610  0.31506  Biso   1.000  C
  C1325    1.0000 0.22508  0.44768  0.29628  Biso   1.000  C
  H1418    1.0000 0.22300  0.47350  0.28280  Biso   1.000  H
  H1419    1.0000 0.23340  0.42760  0.27670  Biso   1.000  H
  C1326    1.0000 0.25460  0.44990  0.32980  Biso   1.000  C
  H1420    1.0000 0.28200  0.44600  0.32030  Biso   1.000  H
  H1421    1.0000 0.25280  0.47540  0.34400  Biso   1.000  H
  C1327    1.0000 0.24060  0.41460  0.35660  Biso   1.000  C
  H1422    1.0000 0.25170  0.41680  0.38350  Biso   1.000  H
  H1423    1.0000 0.24860  0.38900  0.34510  Biso   1.000  H
  C1328    1.0000 0.19571  0.41893  0.35703  Biso   1.000  C
  H1424    1.0000 0.18280  0.39300  0.36120  Biso   1.000  H
  H1425    1.0000 0.18730  0.43720  0.37820  Biso   1.000  H
  C1329    1.0000 0.15760  0.47193  0.32233  Biso   1.000  C
  O284     1.0000 0.12002  0.46442  0.32344  Biso   1.000  O
  O285     1.0000 0.17260  0.50497  0.32794  Biso   1.000  O
  C1330    1.0000 0.23220  0.44390  0.36970  Biso   1.000  C
  Cu96     1.0000 0.60684  0.90852  0.81370  Biso   1.000  Cu
  O286     1.0000 0.60236  0.85049  0.81434  Biso   1.000  O
  C1331    1.0000 0.61182  0.83232  0.77989  Biso   1.000  C
  C1332    1.0000 0.58514  0.80689  0.76104  Biso   1.000  C
  H1426    1.0000 0.56010  0.80190  0.77250  Biso   1.000  H
  C1333    1.0000 0.59547  0.78911  0.72565  Biso   1.000  C
  H1427    1.0000 0.57740  0.77190  0.71290  Biso   1.000  H
  C1334    1.0000 0.63236  0.79638  0.70866  Biso   1.000  C
  H1428    1.0000 0.63940  0.78410  0.68440  Biso   1.000  H
  C1335    1.0000 0.65892  0.82180  0.72751  Biso   1.000  C
  H1429    1.0000 0.68390  0.82670  0.71590  Biso   1.000  H
  C1336    1.0000 0.64926  0.84001  0.76300  Biso   1.000  C
  C1337    1.0000 0.67819  0.86660  0.78471  Biso   1.000  C
  H1430    1.0000 0.70300  0.86850  0.76940  Biso   1.000  H
  H1431    1.0000 0.68460  0.85480  0.81070  Biso   1.000  H
  N96      1.0000 0.66146  0.90728  0.79076  Biso   1.000  N
  H1432    1.0000 0.65860  0.91750  0.76910  Biso   1.000  H
  C1338    1.0000 0.68495  0.93610  0.81506  Biso   1.000  C
  C1339    1.0000 0.72508  0.94768  0.79628  Biso   1.000  C
  H1433    1.0000 0.72300  0.97350  0.78280  Biso   1.000  H
  H1434    1.0000 0.73340  0.92760  0.77670  Biso   1.000  H
  C1340    1.0000 0.75460  0.94990  0.82980  Biso   1.000  C
  H1435    1.0000 0.78200  0.94600  0.82030  Biso   1.000  H
  H1436    1.0000 0.75280  0.97540  0.84400  Biso   1.000  H
  C1341    1.0000 0.74060  0.91460  0.85660  Biso   1.000  C
  H1437    1.0000 0.75170  0.91680  0.88350  Biso   1.000  H
  H1438    1.0000 0.74860  0.88900  0.84510  Biso   1.000  H
  C1342    1.0000 0.69571  0.91893  0.85703  Biso   1.000  C
  H1439    1.0000 0.68280  0.89300  0.86120  Biso   1.000  H
  H1440    1.0000 0.68730  0.93720  0.87820  Biso   1.000  H
  C1343    1.0000 0.65760  0.97193  0.82233  Biso   1.000  C
  O287     1.0000 0.62002  0.96442  0.82344  Biso   1.000  O
  O288     1.0000 0.67260  0.00497  0.82794  Biso   1.000  O
  C1344    1.0000 0.73220  0.94390  0.86970  Biso   1.000  C
