data_image0
_cell_length_a       35.2654
_cell_length_b       15.1124
_cell_length_c       30.914
_cell_angle_alpha    90
_cell_angle_beta     102.128
_cell_angle_gamma    90

_symmetry_space_group_name_H-M    "P 1"
_symmetry_int_tables_number       1

loop_
  _symmetry_equiv_pos_as_xyz
  'x, y, z'

loop_
  _atom_site_label
  _atom_site_occupancy
  _atom_site_fract_x
  _atom_site_fract_y
  _atom_site_fract_z
  _atom_site_thermal_displace_type
  _atom_site_B_iso_or_equiv
  _atom_site_type_symbol
  I1       1.0000 0.73988  0.22634  0.30832  Biso   1.000  I
  I2       1.0000 0.52579  0.64800  0.63668  Biso   1.000  I
  I3       1.0000 0.63349  0.17496  0.20499  Biso   1.000  I
  I4       1.0000 0.61545  0.73778  0.56152  Biso   1.000  I
  I5       1.0000 0.89697  0.72878  0.90258  Biso   1.000  I
  I6       1.0000 0.85488  0.58585  0.01048  Biso   1.000  I
  Zn1      1.0000 0.57967  0.62016  0.59511  Biso   1.000  Zn
  Zn2      1.0000 0.67741  0.14121  0.28001  Biso   1.000  Zn
  Zn3      1.0000 0.87524  0.58939  0.93649  Biso   1.000  Zn
  N1       1.0000 0.68862  0.99300  0.78040  Biso   1.000  N
  N2       1.0000 0.83237  0.52840  0.89065  Biso   1.000  N
  N3       1.0000 0.64314  0.15920  0.32600  Biso   1.000  N
  N4       1.0000 0.68222  0.31760  0.74830  Biso   1.000  N
  N5       1.0000 0.41978  0.00020  0.43940  Biso   1.000  N
  N6       1.0000 0.61968  0.54830  0.64072  Biso   1.000  N
  N7       1.0000 0.53693  0.15550  0.41065  Biso   1.000  N
  N8       1.0000 0.71942  0.44480  0.77143  Biso   1.000  N
  N9       1.0000 0.57371  0.28320  0.43847  Biso   1.000  N
  N10      1.0000 0.52077  0.23760  0.46997  Biso   1.000  N
  N11      1.0000 0.56438  0.52170  0.54870  Biso   1.000  N
  N12      1.0000 0.73709  0.30720  0.80700  Biso   1.000  N
  C1       1.0000 0.66592  0.45360  0.70890  Biso   1.000  C
  C2       1.0000 0.51527  0.17230  0.44042  Biso   1.000  C
  C3       1.0000 0.80980  0.57130  0.85750  Biso   1.000  C
  H1       1.0000 0.81420  0.63120  0.85380  Biso   1.000  H
  C4       1.0000 0.69006  0.40250  0.74520  Biso   1.000  C
  C5       1.0000 0.54942  0.29290  0.46636  Biso   1.000  C
  C6       1.0000 0.59322  0.19410  0.38200  Biso   1.000  C
  C7       1.0000 0.77353  0.44030  0.83330  Biso   1.000  C
  C8       1.0000 0.56640  0.21200  0.41207  Biso   1.000  C
  C9       1.0000 0.65380  0.21200  0.36100  Biso   1.000  C
  H2       1.0000 0.67850  0.23670  0.36640  Biso   1.000  H
  C10      1.0000 0.55443  0.37340  0.49467  Biso   1.000  C
  C11      1.0000 0.67240  0.54260  0.70190  Biso   1.000  C
  H3       1.0000 0.69240  0.57240  0.72050  Biso   1.000  H
  C12      1.0000 0.48233  0.11220  0.44050  Biso   1.000  C
  C13      1.0000 0.79760  0.39570  0.86720  Biso   1.000  C
  H4       1.0000 0.79460  0.33530  0.87110  Biso   1.000  H
  C14      1.0000 0.70703  0.27260  0.77870  Biso   1.000  C
  C15      1.0000 0.52907  0.39120  0.52230  Biso   1.000  C
  H5       1.0000 0.50840  0.35350  0.52310  Biso   1.000  H
  C16      1.0000 0.43790  0.03840  0.47660  Biso   1.000  C
  H6       1.0000 0.42940  0.02620  0.50250  Biso   1.000  H
  C17      1.0000 0.72770  0.11950  0.80520  Biso   1.000  C
  H7       1.0000 0.75040  0.14230  0.82260  Biso   1.000  H
  C18      1.0000 0.53514  0.46610  0.54870  Biso   1.000  C
  H8       1.0000 0.51810  0.47800  0.56710  Biso   1.000  H
  C19      1.0000 0.60770  0.12300  0.31900  Biso   1.000  C
  H9       1.0000 0.60010  0.08610  0.29460  Biso   1.000  H
  C20      1.0000 0.74155  0.39440  0.80220  Biso   1.000  C
  C21      1.0000 0.70070  0.17520  0.77980  Biso   1.000  C
  C22      1.0000 0.78020  0.53030  0.82830  Biso   1.000  C
  H10      1.0000 0.76470  0.56230  0.80540  Biso   1.000  H
  C23      1.0000 0.58220  0.13770  0.34610  Biso   1.000  C
  H11      1.0000 0.55800  0.11050  0.34060  Biso   1.000  H
  C24      1.0000 0.66190  0.04770  0.75630  Biso   1.000  C
  H12      1.0000 0.63920  0.02360  0.73970  Biso   1.000  H
  C25      1.0000 0.64910  0.58660  0.66740  Biso   1.000  C
  H13      1.0000 0.65430  0.64570  0.66260  Biso   1.000  H
  C26      1.0000 0.82630  0.44180  0.89500  Biso   1.000  C
  H14      1.0000 0.84220  0.41150  0.91810  Biso   1.000  H
  C27      1.0000 0.66730  0.13780  0.75550  Biso   1.000  C
  H15      1.0000 0.64830  0.17360  0.73850  Biso   1.000  H
  C28      1.0000 0.58370  0.43170  0.49340  Biso   1.000  C
  H16      1.0000 0.60060  0.42200  0.47450  Biso   1.000  H
  C29      1.0000 0.58810  0.50560  0.52060  Biso   1.000  C
  H17      1.0000 0.60810  0.54520  0.51950  Biso   1.000  H
  C30      1.0000 0.62970  0.23160  0.38960  Biso   1.000  C
  H18      1.0000 0.63790  0.26930  0.41360  Biso   1.000  H
  C31      1.0000 0.43180  0.01830  0.40190  Biso   1.000  C
  H19      1.0000 0.41900  0.99210  0.37560  Biso   1.000  H
  C32      1.0000 0.46870  0.09510  0.47870  Biso   1.000  C
  H20      1.0000 0.48020  0.12170  0.50530  Biso   1.000  H
  C33      1.0000 0.63490  0.41400  0.68160  Biso   1.000  C
  H21      1.0000 0.62880  0.35510  0.68570  Biso   1.000  H
  C34      1.0000 0.61290  0.46330  0.64790  Biso   1.000  C
  H22      1.0000 0.59220  0.43570  0.62910  Biso   1.000  H
  C35      1.0000 0.72050  0.02880  0.80430  Biso   1.000  C
  H23      1.0000 0.73890  0.99180  0.82130  Biso   1.000  H
  C36      1.0000 0.46250  0.07420  0.40100  Biso   1.000  C
  H24      1.0000 0.46980  0.08650  0.37450  Biso   1.000  H
  I7       1.0000 0.23988  0.72634  0.30832  Biso   1.000  I
  I8       1.0000 0.02579  0.14800  0.63668  Biso   1.000  I
  I9       1.0000 0.13349  0.67496  0.20499  Biso   1.000  I
  I10      1.0000 0.11545  0.23778  0.56152  Biso   1.000  I
  I11      1.0000 0.39697  0.22878  0.90258  Biso   1.000  I
  I12      1.0000 0.35488  0.08585  0.01048  Biso   1.000  I
  Zn4      1.0000 0.07967  0.12016  0.59511  Biso   1.000  Zn
  Zn5      1.0000 0.17741  0.64121  0.28001  Biso   1.000  Zn
  Zn6      1.0000 0.37524  0.08939  0.93649  Biso   1.000  Zn
  N13      1.0000 0.18862  0.49300  0.78040  Biso   1.000  N
  N14      1.0000 0.33237  0.02840  0.89065  Biso   1.000  N
  N15      1.0000 0.14314  0.65920  0.32600  Biso   1.000  N
  N16      1.0000 0.18222  0.81760  0.74830  Biso   1.000  N
  N17      1.0000 0.91978  0.50020  0.43940  Biso   1.000  N
  N18      1.0000 0.11968  0.04830  0.64072  Biso   1.000  N
  N19      1.0000 0.03693  0.65550  0.41065  Biso   1.000  N
  N20      1.0000 0.21942  0.94480  0.77143  Biso   1.000  N
  N21      1.0000 0.07371  0.78320  0.43847  Biso   1.000  N
  N22      1.0000 0.02077  0.73760  0.46997  Biso   1.000  N
  N23      1.0000 0.06438  0.02170  0.54870  Biso   1.000  N
  N24      1.0000 0.23709  0.80720  0.80700  Biso   1.000  N
  C37      1.0000 0.16592  0.95360  0.70890  Biso   1.000  C
  C38      1.0000 0.01527  0.67230  0.44042  Biso   1.000  C
  C39      1.0000 0.30980  0.07130  0.85750  Biso   1.000  C
  H25      1.0000 0.31420  0.13120  0.85380  Biso   1.000  H
  C40      1.0000 0.19006  0.90250  0.74520  Biso   1.000  C
  C41      1.0000 0.04942  0.79290  0.46636  Biso   1.000  C
  C42      1.0000 0.09322  0.69410  0.38200  Biso   1.000  C
  C43      1.0000 0.27353  0.94030  0.83330  Biso   1.000  C
  C44      1.0000 0.06640  0.71200  0.41207  Biso   1.000  C
  C45      1.0000 0.15380  0.71200  0.36100  Biso   1.000  C
  H26      1.0000 0.17850  0.73670  0.36640  Biso   1.000  H
  C46      1.0000 0.05443  0.87340  0.49467  Biso   1.000  C
  C47      1.0000 0.17240  0.04260  0.70190  Biso   1.000  C
  H27      1.0000 0.19240  0.07240  0.72050  Biso   1.000  H
  C48      1.0000 0.98233  0.61220  0.44050  Biso   1.000  C
  C49      1.0000 0.29760  0.89570  0.86720  Biso   1.000  C
  H28      1.0000 0.29460  0.83530  0.87110  Biso   1.000  H
  C50      1.0000 0.20703  0.77260  0.77870  Biso   1.000  C
  C51      1.0000 0.02907  0.89120  0.52230  Biso   1.000  C
  H29      1.0000 0.00840  0.85350  0.52310  Biso   1.000  H
  C52      1.0000 0.93790  0.53840  0.47660  Biso   1.000  C
  H30      1.0000 0.92940  0.52620  0.50250  Biso   1.000  H
  C53      1.0000 0.22770  0.61950  0.80520  Biso   1.000  C
  H31      1.0000 0.25040  0.64230  0.82260  Biso   1.000  H
  C54      1.0000 0.03514  0.96610  0.54870  Biso   1.000  C
  H32      1.0000 0.01810  0.97800  0.56710  Biso   1.000  H
  C55      1.0000 0.10770  0.62300  0.31900  Biso   1.000  C
  H33      1.0000 0.10010  0.58610  0.29460  Biso   1.000  H
  C56      1.0000 0.24155  0.89440  0.80220  Biso   1.000  C
  C57      1.0000 0.20070  0.67520  0.77980  Biso   1.000  C
  C58      1.0000 0.28020  0.03030  0.82830  Biso   1.000  C
  H34      1.0000 0.26470  0.06230  0.80540  Biso   1.000  H
  C59      1.0000 0.08220  0.63770  0.34610  Biso   1.000  C
  H35      1.0000 0.05800  0.61050  0.34060  Biso   1.000  H
  C60      1.0000 0.16190  0.54770  0.75630  Biso   1.000  C
  H36      1.0000 0.13920  0.52360  0.73970  Biso   1.000  H
  C61      1.0000 0.14910  0.08660  0.66740  Biso   1.000  C
  H37      1.0000 0.15430  0.14570  0.66260  Biso   1.000  H
  C62      1.0000 0.32630  0.94180  0.89500  Biso   1.000  C
  H38      1.0000 0.34220  0.91150  0.91810  Biso   1.000  H
  C63      1.0000 0.16730  0.63780  0.75550  Biso   1.000  C
  H39      1.0000 0.14830  0.67360  0.73850  Biso   1.000  H
  C64      1.0000 0.08370  0.93170  0.49340  Biso   1.000  C
  H40      1.0000 0.10060  0.92200  0.47450  Biso   1.000  H
  C65      1.0000 0.08810  0.00560  0.52060  Biso   1.000  C
  H41      1.0000 0.10810  0.04520  0.51950  Biso   1.000  H
  C66      1.0000 0.12970  0.73160  0.38960  Biso   1.000  C
  H42      1.0000 0.13790  0.76930  0.41360  Biso   1.000  H
  C67      1.0000 0.93180  0.51830  0.40190  Biso   1.000  C
  H43      1.0000 0.91900  0.49210  0.37560  Biso   1.000  H
  C68      1.0000 0.96870  0.59510  0.47870  Biso   1.000  C
  H44      1.0000 0.98020  0.62170  0.50530  Biso   1.000  H
  C69      1.0000 0.13490  0.91400  0.68160  Biso   1.000  C
  H45      1.0000 0.12880  0.85510  0.68570  Biso   1.000  H
  C70      1.0000 0.11290  0.96330  0.64790  Biso   1.000  C
  H46      1.0000 0.09220  0.93570  0.62910  Biso   1.000  H
  C71      1.0000 0.22050  0.52880  0.80430  Biso   1.000  C
  H47      1.0000 0.23890  0.49180  0.82130  Biso   1.000  H
  C72      1.0000 0.96250  0.57420  0.40100  Biso   1.000  C
  H48      1.0000 0.96980  0.58650  0.37450  Biso   1.000  H
  I13      1.0000 0.73988  0.77366  0.80832  Biso   1.000  I
  I14      1.0000 0.52579  0.35200  0.13668  Biso   1.000  I
  I15      1.0000 0.63349  0.82504  0.70499  Biso   1.000  I
  I16      1.0000 0.61545  0.26222  0.06152  Biso   1.000  I
  I17      1.0000 0.89697  0.27122  0.40258  Biso   1.000  I
  I18      1.0000 0.85488  0.41415  0.51048  Biso   1.000  I
  Zn7      1.0000 0.57967  0.37984  0.09511  Biso   1.000  Zn
  Zn8      1.0000 0.67741  0.85879  0.78001  Biso   1.000  Zn
  Zn9      1.0000 0.87524  0.41061  0.43649  Biso   1.000  Zn
  N25      1.0000 0.68862  0.00700  0.28040  Biso   1.000  N
  N26      1.0000 0.83237  0.47160  0.39065  Biso   1.000  N
  N27      1.0000 0.64314  0.84080  0.82600  Biso   1.000  N
  N28      1.0000 0.68222  0.68240  0.24830  Biso   1.000  N
  N29      1.0000 0.41978  0.99980  0.93940  Biso   1.000  N
  N30      1.0000 0.61968  0.45170  0.14072  Biso   1.000  N
  N31      1.0000 0.53693  0.84450  0.91065  Biso   1.000  N
  N32      1.0000 0.71942  0.55520  0.27143  Biso   1.000  N
  N33      1.0000 0.57371  0.71680  0.93847  Biso   1.000  N
  N34      1.0000 0.52077  0.76240  0.96997  Biso   1.000  N
  N35      1.0000 0.56438  0.47830  0.04870  Biso   1.000  N
  N36      1.0000 0.73709  0.69280  0.30700  Biso   1.000  N
  C73      1.0000 0.66592  0.54640  0.20890  Biso   1.000  C
  C74      1.0000 0.51527  0.82770  0.94042  Biso   1.000  C
  C75      1.0000 0.80980  0.42870  0.35750  Biso   1.000  C
  H49      1.0000 0.81420  0.36880  0.35380  Biso   1.000  H
  C76      1.0000 0.69006  0.59750  0.24520  Biso   1.000  C
  C77      1.0000 0.54942  0.70710  0.96636  Biso   1.000  C
  C78      1.0000 0.59322  0.80590  0.88200  Biso   1.000  C
  C79      1.0000 0.77353  0.55970  0.33330  Biso   1.000  C
  C80      1.0000 0.56640  0.78800  0.91207  Biso   1.000  C
  C81      1.0000 0.65380  0.78800  0.86100  Biso   1.000  C
  H50      1.0000 0.67850  0.76330  0.86640  Biso   1.000  H
  C82      1.0000 0.55443  0.62660  0.99467  Biso   1.000  C
  C83      1.0000 0.67240  0.45740  0.20190  Biso   1.000  C
  H51      1.0000 0.69240  0.42760  0.22050  Biso   1.000  H
  C84      1.0000 0.48233  0.88780  0.94050  Biso   1.000  C
  C85      1.0000 0.79760  0.60430  0.36720  Biso   1.000  C
  H52      1.0000 0.79460  0.66470  0.37110  Biso   1.000  H
  C86      1.0000 0.70703  0.72740  0.27870  Biso   1.000  C
  C87      1.0000 0.52907  0.60880  0.02230  Biso   1.000  C
  H53      1.0000 0.50840  0.64650  0.02310  Biso   1.000  H
  C88      1.0000 0.43790  0.96160  0.97660  Biso   1.000  C
  H54      1.0000 0.42940  0.97380  0.00250  Biso   1.000  H
  C89      1.0000 0.72770  0.88050  0.30520  Biso   1.000  C
  H55      1.0000 0.75040  0.85770  0.32260  Biso   1.000  H
  C90      1.0000 0.53514  0.53390  0.04870  Biso   1.000  C
  H56      1.0000 0.51810  0.52200  0.06710  Biso   1.000  H
  C91      1.0000 0.60770  0.87700  0.81900  Biso   1.000  C
  H57      1.0000 0.60010  0.91390  0.79460  Biso   1.000  H
  C92      1.0000 0.74155  0.60560  0.30220  Biso   1.000  C
  C93      1.0000 0.70070  0.82480  0.27980  Biso   1.000  C
  C94      1.0000 0.78020  0.46970  0.32830  Biso   1.000  C
  H58      1.0000 0.76470  0.43770  0.30540  Biso   1.000  H
  C95      1.0000 0.58220  0.86230  0.84610  Biso   1.000  C
  H59      1.0000 0.55800  0.88950  0.84060  Biso   1.000  H
  C96      1.0000 0.66190  0.95230  0.25630  Biso   1.000  C
  H60      1.0000 0.63920  0.97640  0.23970  Biso   1.000  H
  C97      1.0000 0.64910  0.41340  0.16740  Biso   1.000  C
  H61      1.0000 0.65430  0.35430  0.16260  Biso   1.000  H
  C98      1.0000 0.82630  0.55820  0.39500  Biso   1.000  C
  H62      1.0000 0.84220  0.58850  0.41810  Biso   1.000  H
  C99      1.0000 0.66730  0.86220  0.25550  Biso   1.000  C
  H63      1.0000 0.64830  0.82640  0.23850  Biso   1.000  H
  C100     1.0000 0.58370  0.56830  0.99340  Biso   1.000  C
  H64      1.0000 0.60060  0.57800  0.97450  Biso   1.000  H
  C101     1.0000 0.58810  0.49440  0.02060  Biso   1.000  C
  H65      1.0000 0.60810  0.45480  0.01950  Biso   1.000  H
  C102     1.0000 0.62970  0.76840  0.88960  Biso   1.000  C
  H66      1.0000 0.63790  0.73070  0.91360  Biso   1.000  H
  C103     1.0000 0.43180  0.98170  0.90190  Biso   1.000  C
  H67      1.0000 0.41900  0.00790  0.87560  Biso   1.000  H
  C104     1.0000 0.46870  0.90490  0.97870  Biso   1.000  C
  H68      1.0000 0.48020  0.87830  0.00530  Biso   1.000  H
  C105     1.0000 0.63490  0.58600  0.18160  Biso   1.000  C
  H69      1.0000 0.62880  0.64490  0.18570  Biso   1.000  H
  C106     1.0000 0.61290  0.53670  0.14790  Biso   1.000  C
  H70      1.0000 0.59220  0.56430  0.12910  Biso   1.000  H
  C107     1.0000 0.72050  0.97120  0.30430  Biso   1.000  C
  H71      1.0000 0.73890  0.00820  0.32130  Biso   1.000  H
  C108     1.0000 0.46250  0.92580  0.90100  Biso   1.000  C
  H72      1.0000 0.46980  0.91350  0.87450  Biso   1.000  H
  I19      1.0000 0.23988  0.27366  0.80832  Biso   1.000  I
  I20      1.0000 0.02579  0.85200  0.13668  Biso   1.000  I
  I21      1.0000 0.13349  0.32504  0.70499  Biso   1.000  I
  I22      1.0000 0.11545  0.76222  0.06152  Biso   1.000  I
  I23      1.0000 0.39697  0.77122  0.40258  Biso   1.000  I
  I24      1.0000 0.35488  0.91415  0.51048  Biso   1.000  I
  Zn10     1.0000 0.07967  0.87984  0.09511  Biso   1.000  Zn
  Zn11     1.0000 0.17741  0.35879  0.78001  Biso   1.000  Zn
  Zn12     1.0000 0.37524  0.91061  0.43649  Biso   1.000  Zn
  N37      1.0000 0.18862  0.50700  0.28040  Biso   1.000  N
  N38      1.0000 0.33237  0.97160  0.39065  Biso   1.000  N
  N39      1.0000 0.14314  0.34080  0.82600  Biso   1.000  N
  N40      1.0000 0.18222  0.18240  0.24830  Biso   1.000  N
  N41      1.0000 0.91978  0.49980  0.93940  Biso   1.000  N
  N42      1.0000 0.11968  0.95170  0.14072  Biso   1.000  N
  N43      1.0000 0.03693  0.34450  0.91065  Biso   1.000  N
  N44      1.0000 0.21942  0.05520  0.27143  Biso   1.000  N
  N45      1.0000 0.07371  0.21680  0.93847  Biso   1.000  N
  N46      1.0000 0.02077  0.26240  0.96997  Biso   1.000  N
  N47      1.0000 0.06438  0.97830  0.04870  Biso   1.000  N
  N48      1.0000 0.23709  0.19280  0.30700  Biso   1.000  N
  C109     1.0000 0.16592  0.04640  0.20890  Biso   1.000  C
  C110     1.0000 0.01527  0.32770  0.94042  Biso   1.000  C
  C111     1.0000 0.30980  0.92870  0.35750  Biso   1.000  C
  H73      1.0000 0.31420  0.86880  0.35380  Biso   1.000  H
  C112     1.0000 0.19006  0.09750  0.24520  Biso   1.000  C
  C113     1.0000 0.04942  0.20710  0.96636  Biso   1.000  C
  C114     1.0000 0.09322  0.30590  0.88200  Biso   1.000  C
  C115     1.0000 0.27353  0.05970  0.33330  Biso   1.000  C
  C116     1.0000 0.06640  0.28800  0.91207  Biso   1.000  C
  C117     1.0000 0.15380  0.28800  0.86100  Biso   1.000  C
  H74      1.0000 0.17850  0.26330  0.86640  Biso   1.000  H
  C118     1.0000 0.05443  0.12660  0.99467  Biso   1.000  C
  C119     1.0000 0.17240  0.95740  0.20190  Biso   1.000  C
  H75      1.0000 0.19240  0.92760  0.22050  Biso   1.000  H
  C120     1.0000 0.98233  0.38780  0.94050  Biso   1.000  C
  C121     1.0000 0.29760  0.10430  0.36720  Biso   1.000  C
  H76      1.0000 0.29460  0.16470  0.37110  Biso   1.000  H
  C122     1.0000 0.20703  0.22740  0.27870  Biso   1.000  C
  C123     1.0000 0.02907  0.10880  0.02230  Biso   1.000  C
  H77      1.0000 0.00840  0.14650  0.02310  Biso   1.000  H
  C124     1.0000 0.93790  0.46160  0.97660  Biso   1.000  C
  H78      1.0000 0.92940  0.47380  0.00250  Biso   1.000  H
  C125     1.0000 0.22770  0.38050  0.30520  Biso   1.000  C
  H79      1.0000 0.25040  0.35770  0.32260  Biso   1.000  H
  C126     1.0000 0.03514  0.03390  0.04870  Biso   1.000  C
  H80      1.0000 0.01810  0.02200  0.06710  Biso   1.000  H
  C127     1.0000 0.10770  0.37700  0.81900  Biso   1.000  C
  H81      1.0000 0.10010  0.41390  0.79460  Biso   1.000  H
  C128     1.0000 0.24155  0.10560  0.30220  Biso   1.000  C
  C129     1.0000 0.20070  0.32480  0.27980  Biso   1.000  C
  C130     1.0000 0.28020  0.96970  0.32830  Biso   1.000  C
  H82      1.0000 0.26470  0.93770  0.30540  Biso   1.000  H
  C131     1.0000 0.08220  0.36230  0.84610  Biso   1.000  C
  H83      1.0000 0.05800  0.38950  0.84060  Biso   1.000  H
  C132     1.0000 0.16190  0.45230  0.25630  Biso   1.000  C
  H84      1.0000 0.13920  0.47640  0.23970  Biso   1.000  H
  C133     1.0000 0.14910  0.91340  0.16740  Biso   1.000  C
  H85      1.0000 0.15430  0.85430  0.16260  Biso   1.000  H
  C134     1.0000 0.32630  0.05820  0.39500  Biso   1.000  C
  H86      1.0000 0.34220  0.08850  0.41810  Biso   1.000  H
  C135     1.0000 0.16730  0.36220  0.25550  Biso   1.000  C
  H87      1.0000 0.14830  0.32640  0.23850  Biso   1.000  H
  C136     1.0000 0.08370  0.06830  0.99340  Biso   1.000  C
  H88      1.0000 0.10060  0.07800  0.97450  Biso   1.000  H
  C137     1.0000 0.08810  0.99440  0.02060  Biso   1.000  C
  H89      1.0000 0.10810  0.95480  0.01950  Biso   1.000  H
  C138     1.0000 0.12970  0.26840  0.88960  Biso   1.000  C
  H90      1.0000 0.13790  0.23070  0.91360  Biso   1.000  H
  C139     1.0000 0.93180  0.48170  0.90190  Biso   1.000  C
  H91      1.0000 0.91900  0.50790  0.87560  Biso   1.000  H
  C140     1.0000 0.96870  0.40490  0.97870  Biso   1.000  C
  H92      1.0000 0.98020  0.37830  0.00530  Biso   1.000  H
  C141     1.0000 0.13490  0.08600  0.18160  Biso   1.000  C
  H93      1.0000 0.12880  0.14490  0.18570  Biso   1.000  H
  C142     1.0000 0.11290  0.03670  0.14790  Biso   1.000  C
  H94      1.0000 0.09220  0.06430  0.12910  Biso   1.000  H
  C143     1.0000 0.22050  0.47120  0.30430  Biso   1.000  C
  H95      1.0000 0.23890  0.50820  0.32130  Biso   1.000  H
  C144     1.0000 0.96250  0.42580  0.90100  Biso   1.000  C
  H96      1.0000 0.96980  0.41350  0.87450  Biso   1.000  H
  I25      1.0000 0.26012  0.22634  0.19168  Biso   1.000  I
  I26      1.0000 0.47421  0.64800  0.86332  Biso   1.000  I
  I27      1.0000 0.36651  0.17496  0.29501  Biso   1.000  I
  I28      1.0000 0.38455  0.73778  0.93848  Biso   1.000  I
  I29      1.0000 0.10303  0.72878  0.59742  Biso   1.000  I
  I30      1.0000 0.14512  0.58585  0.48952  Biso   1.000  I
  Zn13     1.0000 0.42033  0.62016  0.90489  Biso   1.000  Zn
  Zn14     1.0000 0.32259  0.14121  0.21999  Biso   1.000  Zn
  Zn15     1.0000 0.12476  0.58939  0.56351  Biso   1.000  Zn
  N49      1.0000 0.31138  0.99300  0.71960  Biso   1.000  N
  N50      1.0000 0.16763  0.52840  0.60935  Biso   1.000  N
  N51      1.0000 0.35686  0.15920  0.17400  Biso   1.000  N
  N52      1.0000 0.31778  0.31760  0.75170  Biso   1.000  N
  N53      1.0000 0.58022  0.00020  0.06060  Biso   1.000  N
  N54      1.0000 0.38032  0.54830  0.85928  Biso   1.000  N
  N55      1.0000 0.46307  0.15550  0.08935  Biso   1.000  N
  N56      1.0000 0.28058  0.44480  0.72857  Biso   1.000  N
  N57      1.0000 0.42629  0.28320  0.06153  Biso   1.000  N
  N58      1.0000 0.47923  0.23760  0.03003  Biso   1.000  N
  N59      1.0000 0.43562  0.52170  0.95130  Biso   1.000  N
  N60      1.0000 0.26291  0.30720  0.69300  Biso   1.000  N
  C145     1.0000 0.33408  0.45360  0.79110  Biso   1.000  C
  C146     1.0000 0.48473  0.17230  0.05958  Biso   1.000  C
  C147     1.0000 0.19020  0.57130  0.64250  Biso   1.000  C
  H97      1.0000 0.18580  0.63120  0.64620  Biso   1.000  H
  C148     1.0000 0.30994  0.40250  0.75480  Biso   1.000  C
  C149     1.0000 0.45058  0.29290  0.03364  Biso   1.000  C
  C150     1.0000 0.40678  0.19410  0.11800  Biso   1.000  C
  C151     1.0000 0.22647  0.44030  0.66670  Biso   1.000  C
  C152     1.0000 0.43360  0.21200  0.08793  Biso   1.000  C
  C153     1.0000 0.34620  0.21200  0.13900  Biso   1.000  C
  H98      1.0000 0.32150  0.23670  0.13360  Biso   1.000  H
  C154     1.0000 0.44557  0.37340  0.00533  Biso   1.000  C
  C155     1.0000 0.32760  0.54260  0.79810  Biso   1.000  C
  H99      1.0000 0.30760  0.57240  0.77950  Biso   1.000  H
  C156     1.0000 0.51767  0.11220  0.05950  Biso   1.000  C
  C157     1.0000 0.20240  0.39570  0.63280  Biso   1.000  C
  H100     1.0000 0.20540  0.33530  0.62890  Biso   1.000  H
  C158     1.0000 0.29297  0.27260  0.72130  Biso   1.000  C
  C159     1.0000 0.47093  0.39120  0.97770  Biso   1.000  C
  H101     1.0000 0.49160  0.35350  0.97690  Biso   1.000  H
  C160     1.0000 0.56210  0.03840  0.02340  Biso   1.000  C
  H102     1.0000 0.57060  0.02620  0.99750  Biso   1.000  H
  C161     1.0000 0.27230  0.11950  0.69480  Biso   1.000  C
  H103     1.0000 0.24960  0.14230  0.67740  Biso   1.000  H
  C162     1.0000 0.46486  0.46610  0.95130  Biso   1.000  C
  H104     1.0000 0.48190  0.47800  0.93290  Biso   1.000  H
  C163     1.0000 0.39230  0.12300  0.18100  Biso   1.000  C
  H105     1.0000 0.39990  0.08610  0.20540  Biso   1.000  H
  C164     1.0000 0.25845  0.39440  0.69780  Biso   1.000  C
  C165     1.0000 0.29930  0.17520  0.72020  Biso   1.000  C
  C166     1.0000 0.21980  0.53030  0.67170  Biso   1.000  C
  H106     1.0000 0.23530  0.56230  0.69460  Biso   1.000  H
  C167     1.0000 0.41780  0.13770  0.15390  Biso   1.000  C
  H107     1.0000 0.44200  0.11050  0.15940  Biso   1.000  H
  C168     1.0000 0.33810  0.04770  0.74370  Biso   1.000  C
  H108     1.0000 0.36080  0.02360  0.76030  Biso   1.000  H
  C169     1.0000 0.35090  0.58660  0.83260  Biso   1.000  C
  H109     1.0000 0.34570  0.64570  0.83740  Biso   1.000  H
  C170     1.0000 0.17370  0.44180  0.60500  Biso   1.000  C
  H110     1.0000 0.15780  0.41150  0.58190  Biso   1.000  H
  C171     1.0000 0.33270  0.13780  0.74450  Biso   1.000  C
  H111     1.0000 0.35170  0.17360  0.76150  Biso   1.000  H
  C172     1.0000 0.41630  0.43170  0.00660  Biso   1.000  C
  H112     1.0000 0.39940  0.42200  0.02550  Biso   1.000  H
  C173     1.0000 0.41190  0.50560  0.97940  Biso   1.000  C
  H113     1.0000 0.39190  0.54520  0.98050  Biso   1.000  H
  C174     1.0000 0.37030  0.23160  0.11040  Biso   1.000  C
  H114     1.0000 0.36210  0.26930  0.08640  Biso   1.000  H
  C175     1.0000 0.56820  0.01830  0.09810  Biso   1.000  C
  H115     1.0000 0.58100  0.99210  0.12440  Biso   1.000  H
  C176     1.0000 0.53130  0.09510  0.02130  Biso   1.000  C
  H116     1.0000 0.51980  0.12170  0.99470  Biso   1.000  H
  C177     1.0000 0.36510  0.41400  0.81840  Biso   1.000  C
  H117     1.0000 0.37120  0.35510  0.81430  Biso   1.000  H
  C178     1.0000 0.38710  0.46330  0.85210  Biso   1.000  C
  H118     1.0000 0.40780  0.43570  0.87090  Biso   1.000  H
  C179     1.0000 0.27950  0.02880  0.69570  Biso   1.000  C
  H119     1.0000 0.26110  0.99180  0.67870  Biso   1.000  H
  C180     1.0000 0.53750  0.07420  0.09900  Biso   1.000  C
  H120     1.0000 0.53020  0.08650  0.12550  Biso   1.000  H
  I31      1.0000 0.76012  0.72634  0.19168  Biso   1.000  I
  I32      1.0000 0.97421  0.14800  0.86332  Biso   1.000  I
  I33      1.0000 0.86651  0.67496  0.29501  Biso   1.000  I
  I34      1.0000 0.88455  0.23778  0.93848  Biso   1.000  I
  I35      1.0000 0.60303  0.22878  0.59742  Biso   1.000  I
  I36      1.0000 0.64512  0.08585  0.48952  Biso   1.000  I
  Zn16     1.0000 0.92033  0.12016  0.90489  Biso   1.000  Zn
  Zn17     1.0000 0.82259  0.64121  0.21999  Biso   1.000  Zn
  Zn18     1.0000 0.62476  0.08939  0.56351  Biso   1.000  Zn
  N61      1.0000 0.81138  0.49300  0.71960  Biso   1.000  N
  N62      1.0000 0.66763  0.02840  0.60935  Biso   1.000  N
  N63      1.0000 0.85686  0.65920  0.17400  Biso   1.000  N
  N64      1.0000 0.81778  0.81760  0.75170  Biso   1.000  N
  N65      1.0000 0.08022  0.50020  0.06060  Biso   1.000  N
  N66      1.0000 0.88032  0.04830  0.85928  Biso   1.000  N
  N67      1.0000 0.96307  0.65550  0.08935  Biso   1.000  N
  N68      1.0000 0.78058  0.94480  0.72857  Biso   1.000  N
  N69      1.0000 0.92629  0.78320  0.06153  Biso   1.000  N
  N70      1.0000 0.97923  0.73760  0.03003  Biso   1.000  N
  N71      1.0000 0.93562  0.02170  0.95130  Biso   1.000  N
  N72      1.0000 0.76291  0.80720  0.69300  Biso   1.000  N
  C181     1.0000 0.83408  0.95360  0.79110  Biso   1.000  C
  C182     1.0000 0.98473  0.67230  0.05958  Biso   1.000  C
  C183     1.0000 0.69020  0.07130  0.64250  Biso   1.000  C
  H121     1.0000 0.68580  0.13120  0.64620  Biso   1.000  H
  C184     1.0000 0.80994  0.90250  0.75480  Biso   1.000  C
  C185     1.0000 0.95058  0.79290  0.03364  Biso   1.000  C
  C186     1.0000 0.90678  0.69410  0.11800  Biso   1.000  C
  C187     1.0000 0.72647  0.94030  0.66670  Biso   1.000  C
  C188     1.0000 0.93360  0.71200  0.08793  Biso   1.000  C
  C189     1.0000 0.84620  0.71200  0.13900  Biso   1.000  C
  H122     1.0000 0.82150  0.73670  0.13360  Biso   1.000  H
  C190     1.0000 0.94557  0.87340  0.00533  Biso   1.000  C
  C191     1.0000 0.82760  0.04260  0.79810  Biso   1.000  C
  H123     1.0000 0.80760  0.07240  0.77950  Biso   1.000  H
  C192     1.0000 0.01767  0.61220  0.05950  Biso   1.000  C
  C193     1.0000 0.70240  0.89570  0.63280  Biso   1.000  C
  H124     1.0000 0.70540  0.83530  0.62890  Biso   1.000  H
  C194     1.0000 0.79297  0.77260  0.72130  Biso   1.000  C
  C195     1.0000 0.97093  0.89120  0.97770  Biso   1.000  C
  H125     1.0000 0.99160  0.85350  0.97690  Biso   1.000  H
  C196     1.0000 0.06210  0.53840  0.02340  Biso   1.000  C
  H126     1.0000 0.07060  0.52620  0.99750  Biso   1.000  H
  C197     1.0000 0.77230  0.61950  0.69480  Biso   1.000  C
  H127     1.0000 0.74960  0.64230  0.67740  Biso   1.000  H
  C198     1.0000 0.96486  0.96610  0.95130  Biso   1.000  C
  H128     1.0000 0.98190  0.97800  0.93290  Biso   1.000  H
  C199     1.0000 0.89230  0.62300  0.18100  Biso   1.000  C
  H129     1.0000 0.89990  0.58610  0.20540  Biso   1.000  H
  C200     1.0000 0.75845  0.89440  0.69780  Biso   1.000  C
  C201     1.0000 0.79930  0.67520  0.72020  Biso   1.000  C
  C202     1.0000 0.71980  0.03030  0.67170  Biso   1.000  C
  H130     1.0000 0.73530  0.06230  0.69460  Biso   1.000  H
  C203     1.0000 0.91780  0.63770  0.15390  Biso   1.000  C
  H131     1.0000 0.94200  0.61050  0.15940  Biso   1.000  H
  C204     1.0000 0.83810  0.54770  0.74370  Biso   1.000  C
  H132     1.0000 0.86080  0.52360  0.76030  Biso   1.000  H
  C205     1.0000 0.85090  0.08660  0.83260  Biso   1.000  C
  H133     1.0000 0.84570  0.14570  0.83740  Biso   1.000  H
  C206     1.0000 0.67370  0.94180  0.60500  Biso   1.000  C
  H134     1.0000 0.65780  0.91150  0.58190  Biso   1.000  H
  C207     1.0000 0.83270  0.63780  0.74450  Biso   1.000  C
  H135     1.0000 0.85170  0.67360  0.76150  Biso   1.000  H
  C208     1.0000 0.91630  0.93170  0.00660  Biso   1.000  C
  H136     1.0000 0.89940  0.92200  0.02550  Biso   1.000  H
  C209     1.0000 0.91190  0.00560  0.97940  Biso   1.000  C
  H137     1.0000 0.89190  0.04520  0.98050  Biso   1.000  H
  C210     1.0000 0.87030  0.73160  0.11040  Biso   1.000  C
  H138     1.0000 0.86210  0.76930  0.08640  Biso   1.000  H
  C211     1.0000 0.06820  0.51830  0.09810  Biso   1.000  C
  H139     1.0000 0.08100  0.49210  0.12440  Biso   1.000  H
  C212     1.0000 0.03130  0.59510  0.02130  Biso   1.000  C
  H140     1.0000 0.01980  0.62170  0.99470  Biso   1.000  H
  C213     1.0000 0.86510  0.91400  0.81840  Biso   1.000  C
  H141     1.0000 0.87120  0.85510  0.81430  Biso   1.000  H
  C214     1.0000 0.88710  0.96330  0.85210  Biso   1.000  C
  H142     1.0000 0.90780  0.93570  0.87090  Biso   1.000  H
  C215     1.0000 0.77950  0.52880  0.69570  Biso   1.000  C
  H143     1.0000 0.76110  0.49180  0.67870  Biso   1.000  H
  C216     1.0000 0.03750  0.57420  0.09900  Biso   1.000  C
  H144     1.0000 0.03020  0.58650  0.12550  Biso   1.000  H
  I37      1.0000 0.26012  0.77366  0.69168  Biso   1.000  I
  I38      1.0000 0.47421  0.35200  0.36332  Biso   1.000  I
  I39      1.0000 0.36651  0.82504  0.79501  Biso   1.000  I
  I40      1.0000 0.38455  0.26222  0.43848  Biso   1.000  I
  I41      1.0000 0.10303  0.27122  0.09742  Biso   1.000  I
  I42      1.0000 0.14512  0.41415  0.98952  Biso   1.000  I
  Zn19     1.0000 0.42033  0.37984  0.40489  Biso   1.000  Zn
  Zn20     1.0000 0.32259  0.85879  0.71999  Biso   1.000  Zn
  Zn21     1.0000 0.12476  0.41061  0.06351  Biso   1.000  Zn
  N73      1.0000 0.31138  0.00700  0.21960  Biso   1.000  N
  N74      1.0000 0.16763  0.47160  0.10935  Biso   1.000  N
  N75      1.0000 0.35686  0.84080  0.67400  Biso   1.000  N
  N76      1.0000 0.31778  0.68240  0.25170  Biso   1.000  N
  N77      1.0000 0.58022  0.99980  0.56060  Biso   1.000  N
  N78      1.0000 0.38032  0.45170  0.35928  Biso   1.000  N
  N79      1.0000 0.46307  0.84450  0.58935  Biso   1.000  N
  N80      1.0000 0.28058  0.55520  0.22857  Biso   1.000  N
  N81      1.0000 0.42629  0.71680  0.56153  Biso   1.000  N
  N82      1.0000 0.47923  0.76240  0.53003  Biso   1.000  N
  N83      1.0000 0.43562  0.47830  0.45130  Biso   1.000  N
  N84      1.0000 0.26291  0.69280  0.19300  Biso   1.000  N
  C217     1.0000 0.33408  0.54640  0.29110  Biso   1.000  C
  C218     1.0000 0.48473  0.82770  0.55958  Biso   1.000  C
  C219     1.0000 0.19020  0.42870  0.14250  Biso   1.000  C
  H145     1.0000 0.18580  0.36880  0.14620  Biso   1.000  H
  C220     1.0000 0.30994  0.59750  0.25480  Biso   1.000  C
  C221     1.0000 0.45058  0.70710  0.53364  Biso   1.000  C
  C222     1.0000 0.40678  0.80590  0.61800  Biso   1.000  C
  C223     1.0000 0.22647  0.55970  0.16670  Biso   1.000  C
  C224     1.0000 0.43360  0.78800  0.58793  Biso   1.000  C
  C225     1.0000 0.34620  0.78800  0.63900  Biso   1.000  C
  H146     1.0000 0.32150  0.76330  0.63360  Biso   1.000  H
  C226     1.0000 0.44557  0.62660  0.50533  Biso   1.000  C
  C227     1.0000 0.32760  0.45740  0.29810  Biso   1.000  C
  H147     1.0000 0.30760  0.42760  0.27950  Biso   1.000  H
  C228     1.0000 0.51767  0.88780  0.55950  Biso   1.000  C
  C229     1.0000 0.20240  0.60430  0.13280  Biso   1.000  C
  H148     1.0000 0.20540  0.66470  0.12890  Biso   1.000  H
  C230     1.0000 0.29297  0.72740  0.22130  Biso   1.000  C
  C231     1.0000 0.47093  0.60880  0.47770  Biso   1.000  C
  H149     1.0000 0.49160  0.64650  0.47690  Biso   1.000  H
  C232     1.0000 0.56210  0.96160  0.52340  Biso   1.000  C
  H150     1.0000 0.57060  0.97380  0.49750  Biso   1.000  H
  C233     1.0000 0.27230  0.88050  0.19480  Biso   1.000  C
  H151     1.0000 0.24960  0.85770  0.17740  Biso   1.000  H
  C234     1.0000 0.46486  0.53390  0.45130  Biso   1.000  C
  H152     1.0000 0.48190  0.52200  0.43290  Biso   1.000  H
  C235     1.0000 0.39230  0.87700  0.68100  Biso   1.000  C
  H153     1.0000 0.39990  0.91390  0.70540  Biso   1.000  H
  C236     1.0000 0.25845  0.60560  0.19780  Biso   1.000  C
  C237     1.0000 0.29930  0.82480  0.22020  Biso   1.000  C
  C238     1.0000 0.21980  0.46970  0.17170  Biso   1.000  C
  H154     1.0000 0.23530  0.43770  0.19460  Biso   1.000  H
  C239     1.0000 0.41780  0.86230  0.65390  Biso   1.000  C
  H155     1.0000 0.44200  0.88950  0.65940  Biso   1.000  H
  C240     1.0000 0.33810  0.95230  0.24370  Biso   1.000  C
  H156     1.0000 0.36080  0.97640  0.26030  Biso   1.000  H
  C241     1.0000 0.35090  0.41340  0.33260  Biso   1.000  C
  H157     1.0000 0.34570  0.35430  0.33740  Biso   1.000  H
  C242     1.0000 0.17370  0.55820  0.10500  Biso   1.000  C
  H158     1.0000 0.15780  0.58850  0.08190  Biso   1.000  H
  C243     1.0000 0.33270  0.86220  0.24450  Biso   1.000  C
  H159     1.0000 0.35170  0.82640  0.26150  Biso   1.000  H
  C244     1.0000 0.41630  0.56830  0.50660  Biso   1.000  C
  H160     1.0000 0.39940  0.57800  0.52550  Biso   1.000  H
  C245     1.0000 0.41190  0.49440  0.47940  Biso   1.000  C
  H161     1.0000 0.39190  0.45480  0.48050  Biso   1.000  H
  C246     1.0000 0.37030  0.76840  0.61040  Biso   1.000  C
  H162     1.0000 0.36210  0.73070  0.58640  Biso   1.000  H
  C247     1.0000 0.56820  0.98170  0.59810  Biso   1.000  C
  H163     1.0000 0.58100  0.00790  0.62440  Biso   1.000  H
  C248     1.0000 0.53130  0.90490  0.52130  Biso   1.000  C
  H164     1.0000 0.51980  0.87830  0.49470  Biso   1.000  H
  C249     1.0000 0.36510  0.58600  0.31840  Biso   1.000  C
  H165     1.0000 0.37120  0.64490  0.31430  Biso   1.000  H
  C250     1.0000 0.38710  0.53670  0.35210  Biso   1.000  C
  H166     1.0000 0.40780  0.56430  0.37090  Biso   1.000  H
  C251     1.0000 0.27950  0.97120  0.19570  Biso   1.000  C
  H167     1.0000 0.26110  0.00820  0.17870  Biso   1.000  H
  C252     1.0000 0.53750  0.92580  0.59900  Biso   1.000  C
  H168     1.0000 0.53020  0.91350  0.62550  Biso   1.000  H
  I43      1.0000 0.76012  0.27366  0.69168  Biso   1.000  I
  I44      1.0000 0.97421  0.85200  0.36332  Biso   1.000  I
  I45      1.0000 0.86651  0.32504  0.79501  Biso   1.000  I
  I46      1.0000 0.88455  0.76222  0.43848  Biso   1.000  I
  I47      1.0000 0.60303  0.77122  0.09742  Biso   1.000  I
  I48      1.0000 0.64512  0.91415  0.98952  Biso   1.000  I
  Zn22     1.0000 0.92033  0.87984  0.40489  Biso   1.000  Zn
  Zn23     1.0000 0.82259  0.35879  0.71999  Biso   1.000  Zn
  Zn24     1.0000 0.62476  0.91061  0.06351  Biso   1.000  Zn
  N85      1.0000 0.81138  0.50700  0.21960  Biso   1.000  N
  N86      1.0000 0.66763  0.97160  0.10935  Biso   1.000  N
  N87      1.0000 0.85686  0.34080  0.67400  Biso   1.000  N
  N88      1.0000 0.81778  0.18240  0.25170  Biso   1.000  N
  N89      1.0000 0.08022  0.49980  0.56060  Biso   1.000  N
  N90      1.0000 0.88032  0.95170  0.35928  Biso   1.000  N
  N91      1.0000 0.96307  0.34450  0.58935  Biso   1.000  N
  N92      1.0000 0.78058  0.05520  0.22857  Biso   1.000  N
  N93      1.0000 0.92629  0.21680  0.56153  Biso   1.000  N
  N94      1.0000 0.97923  0.26240  0.53003  Biso   1.000  N
  N95      1.0000 0.93562  0.97830  0.45130  Biso   1.000  N
  N96      1.0000 0.76291  0.19280  0.19300  Biso   1.000  N
  C253     1.0000 0.83408  0.04640  0.29110  Biso   1.000  C
  C254     1.0000 0.98473  0.32770  0.55958  Biso   1.000  C
  C255     1.0000 0.69020  0.92870  0.14250  Biso   1.000  C
  H169     1.0000 0.68580  0.86880  0.14620  Biso   1.000  H
  C256     1.0000 0.80994  0.09750  0.25480  Biso   1.000  C
  C257     1.0000 0.95058  0.20710  0.53364  Biso   1.000  C
  C258     1.0000 0.90678  0.30590  0.61800  Biso   1.000  C
  C259     1.0000 0.72647  0.05970  0.16670  Biso   1.000  C
  C260     1.0000 0.93360  0.28800  0.58793  Biso   1.000  C
  C261     1.0000 0.84620  0.28800  0.63900  Biso   1.000  C
  H170     1.0000 0.82150  0.26330  0.63360  Biso   1.000  H
  C262     1.0000 0.94557  0.12660  0.50533  Biso   1.000  C
  C263     1.0000 0.82760  0.95740  0.29810  Biso   1.000  C
  H171     1.0000 0.80760  0.92760  0.27950  Biso   1.000  H
  C264     1.0000 0.01767  0.38780  0.55950  Biso   1.000  C
  C265     1.0000 0.70240  0.10430  0.13280  Biso   1.000  C
  H172     1.0000 0.70540  0.16470  0.12890  Biso   1.000  H
  C266     1.0000 0.79297  0.22740  0.22130  Biso   1.000  C
  C267     1.0000 0.97093  0.10880  0.47770  Biso   1.000  C
  H173     1.0000 0.99160  0.14650  0.47690  Biso   1.000  H
  C268     1.0000 0.06210  0.46160  0.52340  Biso   1.000  C
  H174     1.0000 0.07060  0.47380  0.49750  Biso   1.000  H
  C269     1.0000 0.77230  0.38050  0.19480  Biso   1.000  C
  H175     1.0000 0.74960  0.35770  0.17740  Biso   1.000  H
  C270     1.0000 0.96486  0.03390  0.45130  Biso   1.000  C
  H176     1.0000 0.98190  0.02200  0.43290  Biso   1.000  H
  C271     1.0000 0.89230  0.37700  0.68100  Biso   1.000  C
  H177     1.0000 0.89990  0.41390  0.70540  Biso   1.000  H
  C272     1.0000 0.75845  0.10560  0.19780  Biso   1.000  C
  C273     1.0000 0.79930  0.32480  0.22020  Biso   1.000  C
  C274     1.0000 0.71980  0.96970  0.17170  Biso   1.000  C
  H178     1.0000 0.73530  0.93770  0.19460  Biso   1.000  H
  C275     1.0000 0.91780  0.36230  0.65390  Biso   1.000  C
  H179     1.0000 0.94200  0.38950  0.65940  Biso   1.000  H
  C276     1.0000 0.83810  0.45230  0.24370  Biso   1.000  C
  H180     1.0000 0.86080  0.47640  0.26030  Biso   1.000  H
  C277     1.0000 0.85090  0.91340  0.33260  Biso   1.000  C
  H181     1.0000 0.84570  0.85430  0.33740  Biso   1.000  H
  C278     1.0000 0.67370  0.05820  0.10500  Biso   1.000  C
  H182     1.0000 0.65780  0.08850  0.08190  Biso   1.000  H
  C279     1.0000 0.83270  0.36220  0.24450  Biso   1.000  C
  H183     1.0000 0.85170  0.32640  0.26150  Biso   1.000  H
  C280     1.0000 0.91630  0.06830  0.50660  Biso   1.000  C
  H184     1.0000 0.89940  0.07800  0.52550  Biso   1.000  H
  C281     1.0000 0.91190  0.99440  0.47940  Biso   1.000  C
  H185     1.0000 0.89190  0.95480  0.48050  Biso   1.000  H
  C282     1.0000 0.87030  0.26840  0.61040  Biso   1.000  C
  H186     1.0000 0.86210  0.23070  0.58640  Biso   1.000  H
  C283     1.0000 0.06820  0.48170  0.59810  Biso   1.000  C
  H187     1.0000 0.08100  0.50790  0.62440  Biso   1.000  H
  C284     1.0000 0.03130  0.40490  0.52130  Biso   1.000  C
  H188     1.0000 0.01980  0.37830  0.49470  Biso   1.000  H
  C285     1.0000 0.86510  0.08600  0.31840  Biso   1.000  C
  H189     1.0000 0.87120  0.14490  0.31430  Biso   1.000  H
  C286     1.0000 0.88710  0.03670  0.35210  Biso   1.000  C
  H190     1.0000 0.90780  0.06430  0.37090  Biso   1.000  H
  C287     1.0000 0.77950  0.47120  0.19570  Biso   1.000  C
  H191     1.0000 0.76110  0.50820  0.17870  Biso   1.000  H
  C288     1.0000 0.03750  0.42580  0.59900  Biso   1.000  C
  H192     1.0000 0.03020  0.41350  0.62550  Biso   1.000  H
