data_image0
_cell_length_a       35.2547
_cell_length_b       14.7628
_cell_length_c       31.0405
_cell_angle_alpha    90
_cell_angle_beta     101.841
_cell_angle_gamma    90

_symmetry_space_group_name_H-M    "P 1"
_symmetry_int_tables_number       1

loop_
  _symmetry_equiv_pos_as_xyz
  'x, y, z'

loop_
  _atom_site_label
  _atom_site_occupancy
  _atom_site_fract_x
  _atom_site_fract_y
  _atom_site_fract_z
  _atom_site_thermal_displace_type
  _atom_site_B_iso_or_equiv
  _atom_site_type_symbol
  I1       1.0000 0.52356  0.85047  0.63271  Biso   1.000  I
  I2       1.0000 0.73416  0.26022  0.29670  Biso   1.000  I
  I3       1.0000 0.61628  0.75781  0.56048  Biso   1.000  I
  I4       1.0000 0.62872  0.33050  0.19743  Biso   1.000  I
  I5       1.0000 0.88980  0.24163  0.40066  Biso   1.000  I
  I6       1.0000 0.85267  0.09115  0.51025  Biso   1.000  I
  Zn1      1.0000 0.58058  0.87541  0.59557  Biso   1.000  Zn
  Zn2      1.0000 0.87375  0.09653  0.43672  Biso   1.000  Zn
  Zn3      1.0000 0.67233  0.35097  0.27300  Biso   1.000  Zn
  N1       1.0000 0.68380  0.48890  0.27870  Biso   1.000  N
  N2       1.0000 0.83210  0.03000  0.39200  Biso   1.000  N
  N3       1.0000 0.72070  0.94680  0.27160  Biso   1.000  N
  N4       1.0000 0.68070  0.81960  0.25050  Biso   1.000  N
  N5       1.0000 0.61950  0.05580  0.14300  Biso   1.000  N
  N6       1.0000 0.63950  0.33420  0.32010  Biso   1.000  N
  N7       1.0000 0.56740  0.97970  0.55010  Biso   1.000  N
  N8       1.0000 0.52230  0.27050  0.47150  Biso   1.000  N
  N9       1.0000 0.73420  0.80840  0.31040  Biso   1.000  N
  N10      1.0000 0.42040  0.51110  0.44060  Biso   1.000  N
  N11      1.0000 0.53810  0.35250  0.41190  Biso   1.000  N
  N12      1.0000 0.57420  0.22060  0.43850  Biso   1.000  N
  C1       1.0000 0.55670  0.13220  0.49600  Biso   1.000  C
  C2       1.0000 0.61060  0.97230  0.15390  Biso   1.000  C
  H1       1.0000 0.58790  0.94680  0.13810  Biso   1.000  H
  C3       1.0000 0.77330  0.94130  0.33460  Biso   1.000  C
  C4       1.0000 0.66600  0.95830  0.21040  Biso   1.000  C
  C5       1.0000 0.69070  0.90590  0.24650  Biso   1.000  C
  C6       1.0000 0.55130  0.21210  0.46650  Biso   1.000  C
  C7       1.0000 0.74120  0.89610  0.30390  Biso   1.000  C
  C8       1.0000 0.51720  0.33640  0.44190  Biso   1.000  C
  C9       1.0000 0.67620  0.04640  0.20000  Biso   1.000  C
  H2       1.0000 0.69860  0.07370  0.21560  Biso   1.000  H
  C10      1.0000 0.70440  0.77350  0.28140  Biso   1.000  C
  C11      1.0000 0.64990  0.27960  0.35530  Biso   1.000  C
  H3       1.0000 0.67390  0.25090  0.35930  Biso   1.000  H
  C12      1.0000 0.63270  0.92110  0.18690  Biso   1.000  C
  H4       1.0000 0.62520  0.86290  0.19290  Biso   1.000  H
  C13      1.0000 0.65210  0.09150  0.16590  Biso   1.000  C
  H5       1.0000 0.65910  0.14950  0.15870  Biso   1.000  H
  C14      1.0000 0.65890  0.54680  0.25390  Biso   1.000  C
  H6       1.0000 0.63710  0.52340  0.23510  Biso   1.000  H
  C15      1.0000 0.59170  0.30800  0.38060  Biso   1.000  C
  C16      1.0000 0.56690  0.29300  0.41210  Biso   1.000  C
  C17      1.0000 0.71520  0.52350  0.30530  Biso   1.000  C
  H7       1.0000 0.73280  0.48410  0.32220  Biso   1.000  H
  C18      1.0000 0.43740  0.46610  0.47690  Biso   1.000  C
  H8       1.0000 0.42770  0.47400  0.50230  Biso   1.000  H
  C19      1.0000 0.69670  0.67480  0.28280  Biso   1.000  C
  C20      1.0000 0.58760  0.07310  0.49710  Biso   1.000  C
  H9       1.0000 0.60530  0.08400  0.47930  Biso   1.000  H
  C21      1.0000 0.48390  0.39820  0.44210  Biso   1.000  C
  C22      1.0000 0.78430  0.02740  0.32650  Biso   1.000  C
  H10      1.0000 0.77160  0.05750  0.30130  Biso   1.000  H
  C23      1.0000 0.58110  0.36480  0.34450  Biso   1.000  C
  H11      1.0000 0.55760  0.39540  0.33990  Biso   1.000  H
  C24      1.0000 0.79190  0.89970  0.37290  Biso   1.000  C
  H12      1.0000 0.78490  0.84170  0.38000  Biso   1.000  H
  C25      1.0000 0.81340  0.06930  0.35460  Biso   1.000  C
  H13      1.0000 0.82070  0.12730  0.34790  Biso   1.000  H
  C26      1.0000 0.53060  0.11090  0.52250  Biso   1.000  C
  H14      1.0000 0.50920  0.14780  0.52250  Biso   1.000  H
  C27      1.0000 0.82160  0.94630  0.40070  Biso   1.000  C
  H15      1.0000 0.83450  0.91800  0.42630  Biso   1.000  H
  C28      1.0000 0.66440  0.63790  0.25510  Biso   1.000  C
  H16      1.0000 0.64650  0.67560  0.23740  Biso   1.000  H
  C29      1.0000 0.53650  0.03520  0.54860  Biso   1.000  C
  H17      1.0000 0.51870  0.02150  0.56600  Biso   1.000  H
  C30      1.0000 0.62760  0.26440  0.38490  Biso   1.000  C
  H18      1.0000 0.63610  0.22490  0.40820  Biso   1.000  H
  C31      1.0000 0.72230  0.61460  0.30850  Biso   1.000  C
  H19      1.0000 0.74420  0.63640  0.32780  Biso   1.000  H
  C32      1.0000 0.60520  0.37570  0.31600  Biso   1.000  C
  H20      1.0000 0.59740  0.41440  0.29220  Biso   1.000  H
  C33      1.0000 0.59220  0.99910  0.52420  Biso   1.000  C
  H21      1.0000 0.61330  0.96120  0.52460  Biso   1.000  H
  C34      1.0000 0.46810  0.40950  0.47870  Biso   1.000  C
  H22      1.0000 0.47830  0.37850  0.50450  Biso   1.000  H
  C35      1.0000 0.43530  0.49950  0.40530  Biso   1.000  C
  H23      1.0000 0.42440  0.53130  0.37990  Biso   1.000  H
  C36      1.0000 0.46630  0.44250  0.40390  Biso   1.000  C
  H24      1.0000 0.47520  0.43430  0.37790  Biso   1.000  H
  I7       1.0000 0.02356  0.35047  0.63271  Biso   1.000  I
  I8       1.0000 0.23416  0.76022  0.29670  Biso   1.000  I
  I9       1.0000 0.11628  0.25781  0.56048  Biso   1.000  I
  I10      1.0000 0.12872  0.83050  0.19743  Biso   1.000  I
  I11      1.0000 0.38980  0.74163  0.40066  Biso   1.000  I
  I12      1.0000 0.35267  0.59115  0.51025  Biso   1.000  I
  Zn4      1.0000 0.08058  0.37541  0.59557  Biso   1.000  Zn
  Zn5      1.0000 0.37375  0.59653  0.43672  Biso   1.000  Zn
  Zn6      1.0000 0.17233  0.85097  0.27300  Biso   1.000  Zn
  N13      1.0000 0.18380  0.98890  0.27870  Biso   1.000  N
  N14      1.0000 0.33210  0.53000  0.39200  Biso   1.000  N
  N15      1.0000 0.22070  0.44680  0.27160  Biso   1.000  N
  N16      1.0000 0.18070  0.31960  0.25050  Biso   1.000  N
  N17      1.0000 0.11950  0.55580  0.14300  Biso   1.000  N
  N18      1.0000 0.13950  0.83420  0.32010  Biso   1.000  N
  N19      1.0000 0.06740  0.47970  0.55010  Biso   1.000  N
  N20      1.0000 0.02230  0.77050  0.47150  Biso   1.000  N
  N21      1.0000 0.23420  0.30840  0.31040  Biso   1.000  N
  N22      1.0000 0.92040  0.01110  0.44060  Biso   1.000  N
  N23      1.0000 0.03810  0.85250  0.41190  Biso   1.000  N
  N24      1.0000 0.07420  0.72060  0.43850  Biso   1.000  N
  C37      1.0000 0.05670  0.63220  0.49600  Biso   1.000  C
  C38      1.0000 0.11060  0.47230  0.15390  Biso   1.000  C
  H25      1.0000 0.08790  0.44680  0.13810  Biso   1.000  H
  C39      1.0000 0.27330  0.44130  0.33460  Biso   1.000  C
  C40      1.0000 0.16600  0.45830  0.21040  Biso   1.000  C
  C41      1.0000 0.19070  0.40590  0.24650  Biso   1.000  C
  C42      1.0000 0.05130  0.71210  0.46650  Biso   1.000  C
  C43      1.0000 0.24120  0.39610  0.30390  Biso   1.000  C
  C44      1.0000 0.01720  0.83640  0.44190  Biso   1.000  C
  C45      1.0000 0.17620  0.54640  0.20000  Biso   1.000  C
  H26      1.0000 0.19860  0.57370  0.21560  Biso   1.000  H
  C46      1.0000 0.20440  0.27350  0.28140  Biso   1.000  C
  C47      1.0000 0.14990  0.77960  0.35530  Biso   1.000  C
  H27      1.0000 0.17390  0.75090  0.35930  Biso   1.000  H
  C48      1.0000 0.13270  0.42110  0.18690  Biso   1.000  C
  H28      1.0000 0.12520  0.36290  0.19290  Biso   1.000  H
  C49      1.0000 0.15210  0.59150  0.16590  Biso   1.000  C
  H29      1.0000 0.15910  0.64950  0.15870  Biso   1.000  H
  C50      1.0000 0.15890  0.04680  0.25390  Biso   1.000  C
  H30      1.0000 0.13710  0.02340  0.23510  Biso   1.000  H
  C51      1.0000 0.09170  0.80800  0.38060  Biso   1.000  C
  C52      1.0000 0.06690  0.79300  0.41210  Biso   1.000  C
  C53      1.0000 0.21520  0.02350  0.30530  Biso   1.000  C
  H31      1.0000 0.23280  0.98410  0.32220  Biso   1.000  H
  C54      1.0000 0.93740  0.96610  0.47690  Biso   1.000  C
  H32      1.0000 0.92770  0.97400  0.50230  Biso   1.000  H
  C55      1.0000 0.19670  0.17480  0.28280  Biso   1.000  C
  C56      1.0000 0.08760  0.57310  0.49710  Biso   1.000  C
  H33      1.0000 0.10530  0.58400  0.47930  Biso   1.000  H
  C57      1.0000 0.98390  0.89820  0.44210  Biso   1.000  C
  C58      1.0000 0.28430  0.52740  0.32650  Biso   1.000  C
  H34      1.0000 0.27160  0.55750  0.30130  Biso   1.000  H
  C59      1.0000 0.08110  0.86480  0.34450  Biso   1.000  C
  H35      1.0000 0.05760  0.89540  0.33990  Biso   1.000  H
  C60      1.0000 0.29190  0.39970  0.37290  Biso   1.000  C
  H36      1.0000 0.28490  0.34170  0.38000  Biso   1.000  H
  C61      1.0000 0.31340  0.56930  0.35460  Biso   1.000  C
  H37      1.0000 0.32070  0.62730  0.34790  Biso   1.000  H
  C62      1.0000 0.03060  0.61090  0.52250  Biso   1.000  C
  H38      1.0000 0.00920  0.64780  0.52250  Biso   1.000  H
  C63      1.0000 0.32160  0.44630  0.40070  Biso   1.000  C
  H39      1.0000 0.33450  0.41800  0.42630  Biso   1.000  H
  C64      1.0000 0.16440  0.13790  0.25510  Biso   1.000  C
  H40      1.0000 0.14650  0.17560  0.23740  Biso   1.000  H
  C65      1.0000 0.03650  0.53520  0.54860  Biso   1.000  C
  H41      1.0000 0.01870  0.52150  0.56600  Biso   1.000  H
  C66      1.0000 0.12760  0.76440  0.38490  Biso   1.000  C
  H42      1.0000 0.13610  0.72490  0.40820  Biso   1.000  H
  C67      1.0000 0.22230  0.11460  0.30850  Biso   1.000  C
  H43      1.0000 0.24420  0.13640  0.32780  Biso   1.000  H
  C68      1.0000 0.10520  0.87570  0.31600  Biso   1.000  C
  H44      1.0000 0.09740  0.91440  0.29220  Biso   1.000  H
  C69      1.0000 0.09220  0.49910  0.52420  Biso   1.000  C
  H45      1.0000 0.11330  0.46120  0.52460  Biso   1.000  H
  C70      1.0000 0.96810  0.90950  0.47870  Biso   1.000  C
  H46      1.0000 0.97830  0.87850  0.50450  Biso   1.000  H
  C71      1.0000 0.93530  0.99950  0.40530  Biso   1.000  C
  H47      1.0000 0.92440  0.03130  0.37990  Biso   1.000  H
  C72      1.0000 0.96630  0.94250  0.40390  Biso   1.000  C
  H48      1.0000 0.97520  0.93430  0.37790  Biso   1.000  H
  I13      1.0000 0.52356  0.14953  0.13271  Biso   1.000  I
  I14      1.0000 0.73416  0.73978  0.79670  Biso   1.000  I
  I15      1.0000 0.61628  0.24219  0.06048  Biso   1.000  I
  I16      1.0000 0.62872  0.66950  0.69743  Biso   1.000  I
  I17      1.0000 0.88980  0.75837  0.90066  Biso   1.000  I
  I18      1.0000 0.85267  0.90885  0.01025  Biso   1.000  I
  Zn7      1.0000 0.58058  0.12459  0.09557  Biso   1.000  Zn
  Zn8      1.0000 0.87375  0.90347  0.93672  Biso   1.000  Zn
  Zn9      1.0000 0.67233  0.64903  0.77300  Biso   1.000  Zn
  N25      1.0000 0.68380  0.51110  0.77870  Biso   1.000  N
  N26      1.0000 0.83210  0.97000  0.89200  Biso   1.000  N
  N27      1.0000 0.72070  0.05320  0.77160  Biso   1.000  N
  N28      1.0000 0.68070  0.18040  0.75050  Biso   1.000  N
  N29      1.0000 0.61950  0.94420  0.64300  Biso   1.000  N
  N30      1.0000 0.63950  0.66580  0.82010  Biso   1.000  N
  N31      1.0000 0.56740  0.02030  0.05010  Biso   1.000  N
  N32      1.0000 0.52230  0.72950  0.97150  Biso   1.000  N
  N33      1.0000 0.73420  0.19160  0.81040  Biso   1.000  N
  N34      1.0000 0.42040  0.48890  0.94060  Biso   1.000  N
  N35      1.0000 0.53810  0.64750  0.91190  Biso   1.000  N
  N36      1.0000 0.57420  0.77940  0.93850  Biso   1.000  N
  C73      1.0000 0.55670  0.86780  0.99600  Biso   1.000  C
  C74      1.0000 0.61060  0.02770  0.65390  Biso   1.000  C
  H49      1.0000 0.58790  0.05320  0.63810  Biso   1.000  H
  C75      1.0000 0.77330  0.05870  0.83460  Biso   1.000  C
  C76      1.0000 0.66600  0.04170  0.71040  Biso   1.000  C
  C77      1.0000 0.69070  0.09410  0.74650  Biso   1.000  C
  C78      1.0000 0.55130  0.78790  0.96650  Biso   1.000  C
  C79      1.0000 0.74120  0.10390  0.80390  Biso   1.000  C
  C80      1.0000 0.51720  0.66360  0.94190  Biso   1.000  C
  C81      1.0000 0.67620  0.95360  0.70000  Biso   1.000  C
  H50      1.0000 0.69860  0.92630  0.71560  Biso   1.000  H
  C82      1.0000 0.70440  0.22650  0.78140  Biso   1.000  C
  C83      1.0000 0.64990  0.72040  0.85530  Biso   1.000  C
  H51      1.0000 0.67390  0.74910  0.85930  Biso   1.000  H
  C84      1.0000 0.63270  0.07890  0.68690  Biso   1.000  C
  H52      1.0000 0.62520  0.13710  0.69290  Biso   1.000  H
  C85      1.0000 0.65210  0.90850  0.66590  Biso   1.000  C
  H53      1.0000 0.65910  0.85050  0.65870  Biso   1.000  H
  C86      1.0000 0.65890  0.45320  0.75390  Biso   1.000  C
  H54      1.0000 0.63710  0.47660  0.73510  Biso   1.000  H
  C87      1.0000 0.59170  0.69200  0.88060  Biso   1.000  C
  C88      1.0000 0.56690  0.70700  0.91210  Biso   1.000  C
  C89      1.0000 0.71520  0.47650  0.80530  Biso   1.000  C
  H55      1.0000 0.73280  0.51590  0.82220  Biso   1.000  H
  C90      1.0000 0.43740  0.53390  0.97690  Biso   1.000  C
  H56      1.0000 0.42770  0.52600  0.00230  Biso   1.000  H
  C91      1.0000 0.69670  0.32520  0.78280  Biso   1.000  C
  C92      1.0000 0.58760  0.92690  0.99710  Biso   1.000  C
  H57      1.0000 0.60530  0.91600  0.97930  Biso   1.000  H
  C93      1.0000 0.48390  0.60180  0.94210  Biso   1.000  C
  C94      1.0000 0.78430  0.97260  0.82650  Biso   1.000  C
  H58      1.0000 0.77160  0.94250  0.80130  Biso   1.000  H
  C95      1.0000 0.58110  0.63520  0.84450  Biso   1.000  C
  H59      1.0000 0.55760  0.60460  0.83990  Biso   1.000  H
  C96      1.0000 0.79190  0.10030  0.87290  Biso   1.000  C
  H60      1.0000 0.78490  0.15830  0.88000  Biso   1.000  H
  C97      1.0000 0.81340  0.93070  0.85460  Biso   1.000  C
  H61      1.0000 0.82070  0.87270  0.84790  Biso   1.000  H
  C98      1.0000 0.53060  0.88910  0.02250  Biso   1.000  C
  H62      1.0000 0.50920  0.85220  0.02250  Biso   1.000  H
  C99      1.0000 0.82160  0.05370  0.90070  Biso   1.000  C
  H63      1.0000 0.83450  0.08200  0.92630  Biso   1.000  H
  C100     1.0000 0.66440  0.36210  0.75510  Biso   1.000  C
  H64      1.0000 0.64650  0.32440  0.73740  Biso   1.000  H
  C101     1.0000 0.53650  0.96480  0.04860  Biso   1.000  C
  H65      1.0000 0.51870  0.97850  0.06600  Biso   1.000  H
  C102     1.0000 0.62760  0.73560  0.88490  Biso   1.000  C
  H66      1.0000 0.63610  0.77510  0.90820  Biso   1.000  H
  C103     1.0000 0.72230  0.38540  0.80850  Biso   1.000  C
  H67      1.0000 0.74420  0.36360  0.82780  Biso   1.000  H
  C104     1.0000 0.60520  0.62430  0.81600  Biso   1.000  C
  H68      1.0000 0.59740  0.58560  0.79220  Biso   1.000  H
  C105     1.0000 0.59220  0.00090  0.02420  Biso   1.000  C
  H69      1.0000 0.61330  0.03880  0.02460  Biso   1.000  H
  C106     1.0000 0.46810  0.59050  0.97870  Biso   1.000  C
  H70      1.0000 0.47830  0.62150  0.00450  Biso   1.000  H
  C107     1.0000 0.43530  0.50050  0.90530  Biso   1.000  C
  H71      1.0000 0.42440  0.46870  0.87990  Biso   1.000  H
  C108     1.0000 0.46630  0.55750  0.90390  Biso   1.000  C
  H72      1.0000 0.47520  0.56570  0.87790  Biso   1.000  H
  I19      1.0000 0.02356  0.64953  0.13271  Biso   1.000  I
  I20      1.0000 0.23416  0.23978  0.79670  Biso   1.000  I
  I21      1.0000 0.11628  0.74219  0.06048  Biso   1.000  I
  I22      1.0000 0.12872  0.16950  0.69743  Biso   1.000  I
  I23      1.0000 0.38980  0.25837  0.90066  Biso   1.000  I
  I24      1.0000 0.35267  0.40885  0.01025  Biso   1.000  I
  Zn10     1.0000 0.08058  0.62459  0.09557  Biso   1.000  Zn
  Zn11     1.0000 0.37375  0.40347  0.93672  Biso   1.000  Zn
  Zn12     1.0000 0.17233  0.14903  0.77300  Biso   1.000  Zn
  N37      1.0000 0.18380  0.01110  0.77870  Biso   1.000  N
  N38      1.0000 0.33210  0.47000  0.89200  Biso   1.000  N
  N39      1.0000 0.22070  0.55320  0.77160  Biso   1.000  N
  N40      1.0000 0.18070  0.68040  0.75050  Biso   1.000  N
  N41      1.0000 0.11950  0.44420  0.64300  Biso   1.000  N
  N42      1.0000 0.13950  0.16580  0.82010  Biso   1.000  N
  N43      1.0000 0.06740  0.52030  0.05010  Biso   1.000  N
  N44      1.0000 0.02230  0.22950  0.97150  Biso   1.000  N
  N45      1.0000 0.23420  0.69160  0.81040  Biso   1.000  N
  N46      1.0000 0.92040  0.98890  0.94060  Biso   1.000  N
  N47      1.0000 0.03810  0.14750  0.91190  Biso   1.000  N
  N48      1.0000 0.07420  0.27940  0.93850  Biso   1.000  N
  C109     1.0000 0.05670  0.36780  0.99600  Biso   1.000  C
  C110     1.0000 0.11060  0.52770  0.65390  Biso   1.000  C
  H73      1.0000 0.08790  0.55320  0.63810  Biso   1.000  H
  C111     1.0000 0.27330  0.55870  0.83460  Biso   1.000  C
  C112     1.0000 0.16600  0.54170  0.71040  Biso   1.000  C
  C113     1.0000 0.19070  0.59410  0.74650  Biso   1.000  C
  C114     1.0000 0.05130  0.28790  0.96650  Biso   1.000  C
  C115     1.0000 0.24120  0.60390  0.80390  Biso   1.000  C
  C116     1.0000 0.01720  0.16360  0.94190  Biso   1.000  C
  C117     1.0000 0.17620  0.45360  0.70000  Biso   1.000  C
  H74      1.0000 0.19860  0.42630  0.71560  Biso   1.000  H
  C118     1.0000 0.20440  0.72650  0.78140  Biso   1.000  C
  C119     1.0000 0.14990  0.22040  0.85530  Biso   1.000  C
  H75      1.0000 0.17390  0.24910  0.85930  Biso   1.000  H
  C120     1.0000 0.13270  0.57890  0.68690  Biso   1.000  C
  H76      1.0000 0.12520  0.63710  0.69290  Biso   1.000  H
  C121     1.0000 0.15210  0.40850  0.66590  Biso   1.000  C
  H77      1.0000 0.15910  0.35050  0.65870  Biso   1.000  H
  C122     1.0000 0.15890  0.95320  0.75390  Biso   1.000  C
  H78      1.0000 0.13710  0.97660  0.73510  Biso   1.000  H
  C123     1.0000 0.09170  0.19200  0.88060  Biso   1.000  C
  C124     1.0000 0.06690  0.20700  0.91210  Biso   1.000  C
  C125     1.0000 0.21520  0.97650  0.80530  Biso   1.000  C
  H79      1.0000 0.23280  0.01590  0.82220  Biso   1.000  H
  C126     1.0000 0.93740  0.03390  0.97690  Biso   1.000  C
  H80      1.0000 0.92770  0.02600  0.00230  Biso   1.000  H
  C127     1.0000 0.19670  0.82520  0.78280  Biso   1.000  C
  C128     1.0000 0.08760  0.42690  0.99710  Biso   1.000  C
  H81      1.0000 0.10530  0.41600  0.97930  Biso   1.000  H
  C129     1.0000 0.98390  0.10180  0.94210  Biso   1.000  C
  C130     1.0000 0.28430  0.47260  0.82650  Biso   1.000  C
  H82      1.0000 0.27160  0.44250  0.80130  Biso   1.000  H
  C131     1.0000 0.08110  0.13520  0.84450  Biso   1.000  C
  H83      1.0000 0.05760  0.10460  0.83990  Biso   1.000  H
  C132     1.0000 0.29190  0.60030  0.87290  Biso   1.000  C
  H84      1.0000 0.28490  0.65830  0.88000  Biso   1.000  H
  C133     1.0000 0.31340  0.43070  0.85460  Biso   1.000  C
  H85      1.0000 0.32070  0.37270  0.84790  Biso   1.000  H
  C134     1.0000 0.03060  0.38910  0.02250  Biso   1.000  C
  H86      1.0000 0.00920  0.35220  0.02250  Biso   1.000  H
  C135     1.0000 0.32160  0.55370  0.90070  Biso   1.000  C
  H87      1.0000 0.33450  0.58200  0.92630  Biso   1.000  H
  C136     1.0000 0.16440  0.86210  0.75510  Biso   1.000  C
  H88      1.0000 0.14650  0.82440  0.73740  Biso   1.000  H
  C137     1.0000 0.03650  0.46480  0.04860  Biso   1.000  C
  H89      1.0000 0.01870  0.47850  0.06600  Biso   1.000  H
  C138     1.0000 0.12760  0.23560  0.88490  Biso   1.000  C
  H90      1.0000 0.13610  0.27510  0.90820  Biso   1.000  H
  C139     1.0000 0.22230  0.88540  0.80850  Biso   1.000  C
  H91      1.0000 0.24420  0.86360  0.82780  Biso   1.000  H
  C140     1.0000 0.10520  0.12430  0.81600  Biso   1.000  C
  H92      1.0000 0.09740  0.08560  0.79220  Biso   1.000  H
  C141     1.0000 0.09220  0.50090  0.02420  Biso   1.000  C
  H93      1.0000 0.11330  0.53880  0.02460  Biso   1.000  H
  C142     1.0000 0.96810  0.09050  0.97870  Biso   1.000  C
  H94      1.0000 0.97830  0.12150  0.00450  Biso   1.000  H
  C143     1.0000 0.93530  0.00050  0.90530  Biso   1.000  C
  H95      1.0000 0.92440  0.96870  0.87990  Biso   1.000  H
  C144     1.0000 0.96630  0.05750  0.90390  Biso   1.000  C
  H96      1.0000 0.97520  0.06570  0.87790  Biso   1.000  H
  I25      1.0000 0.47644  0.85047  0.86729  Biso   1.000  I
  I26      1.0000 0.26584  0.26022  0.20330  Biso   1.000  I
  I27      1.0000 0.38372  0.75781  0.93952  Biso   1.000  I
  I28      1.0000 0.37128  0.33050  0.30257  Biso   1.000  I
  I29      1.0000 0.11020  0.24163  0.09934  Biso   1.000  I
  I30      1.0000 0.14733  0.09115  0.98975  Biso   1.000  I
  Zn13     1.0000 0.41942  0.87541  0.90443  Biso   1.000  Zn
  Zn14     1.0000 0.12625  0.09653  0.06328  Biso   1.000  Zn
  Zn15     1.0000 0.32767  0.35097  0.22700  Biso   1.000  Zn
  N49      1.0000 0.31620  0.48890  0.22130  Biso   1.000  N
  N50      1.0000 0.16790  0.03000  0.10800  Biso   1.000  N
  N51      1.0000 0.27930  0.94680  0.22840  Biso   1.000  N
  N52      1.0000 0.31930  0.81960  0.24950  Biso   1.000  N
  N53      1.0000 0.38050  0.05580  0.35700  Biso   1.000  N
  N54      1.0000 0.36050  0.33420  0.17990  Biso   1.000  N
  N55      1.0000 0.43260  0.97970  0.94990  Biso   1.000  N
  N56      1.0000 0.47770  0.27050  0.02850  Biso   1.000  N
  N57      1.0000 0.26580  0.80840  0.18960  Biso   1.000  N
  N58      1.0000 0.57960  0.51110  0.05940  Biso   1.000  N
  N59      1.0000 0.46190  0.35250  0.08810  Biso   1.000  N
  N60      1.0000 0.42580  0.22060  0.06150  Biso   1.000  N
  C145     1.0000 0.44330  0.13220  0.00400  Biso   1.000  C
  C146     1.0000 0.38940  0.97230  0.34610  Biso   1.000  C
  H97      1.0000 0.41210  0.94680  0.36190  Biso   1.000  H
  C147     1.0000 0.22670  0.94130  0.16540  Biso   1.000  C
  C148     1.0000 0.33400  0.95830  0.28960  Biso   1.000  C
  C149     1.0000 0.30930  0.90590  0.25350  Biso   1.000  C
  C150     1.0000 0.44870  0.21210  0.03350  Biso   1.000  C
  C151     1.0000 0.25880  0.89610  0.19610  Biso   1.000  C
  C152     1.0000 0.48280  0.33640  0.05810  Biso   1.000  C
  C153     1.0000 0.32380  0.04640  0.30000  Biso   1.000  C
  H98      1.0000 0.30140  0.07370  0.28440  Biso   1.000  H
  C154     1.0000 0.29560  0.77350  0.21860  Biso   1.000  C
  C155     1.0000 0.35010  0.27960  0.14470  Biso   1.000  C
  H99      1.0000 0.32610  0.25090  0.14070  Biso   1.000  H
  C156     1.0000 0.36730  0.92110  0.31310  Biso   1.000  C
  H100     1.0000 0.37480  0.86290  0.30710  Biso   1.000  H
  C157     1.0000 0.34790  0.09150  0.33410  Biso   1.000  C
  H101     1.0000 0.34090  0.14950  0.34130  Biso   1.000  H
  C158     1.0000 0.34110  0.54680  0.24610  Biso   1.000  C
  H102     1.0000 0.36290  0.52340  0.26490  Biso   1.000  H
  C159     1.0000 0.40830  0.30800  0.11940  Biso   1.000  C
  C160     1.0000 0.43310  0.29300  0.08790  Biso   1.000  C
  C161     1.0000 0.28480  0.52350  0.19470  Biso   1.000  C
  H103     1.0000 0.26720  0.48410  0.17780  Biso   1.000  H
  C162     1.0000 0.56260  0.46610  0.02310  Biso   1.000  C
  H104     1.0000 0.57230  0.47400  0.99770  Biso   1.000  H
  C163     1.0000 0.30330  0.67480  0.21720  Biso   1.000  C
  C164     1.0000 0.41240  0.07310  0.00290  Biso   1.000  C
  H105     1.0000 0.39470  0.08400  0.02070  Biso   1.000  H
  C165     1.0000 0.51610  0.39820  0.05790  Biso   1.000  C
  C166     1.0000 0.21570  0.02740  0.17350  Biso   1.000  C
  H106     1.0000 0.22840  0.05750  0.19870  Biso   1.000  H
  C167     1.0000 0.41890  0.36480  0.15550  Biso   1.000  C
  H107     1.0000 0.44240  0.39540  0.16010  Biso   1.000  H
  C168     1.0000 0.20810  0.89970  0.12710  Biso   1.000  C
  H108     1.0000 0.21510  0.84170  0.12000  Biso   1.000  H
  C169     1.0000 0.18660  0.06930  0.14540  Biso   1.000  C
  H109     1.0000 0.17930  0.12730  0.15210  Biso   1.000  H
  C170     1.0000 0.46940  0.11090  0.97750  Biso   1.000  C
  H110     1.0000 0.49080  0.14780  0.97750  Biso   1.000  H
  C171     1.0000 0.17840  0.94630  0.09930  Biso   1.000  C
  H111     1.0000 0.16550  0.91800  0.07370  Biso   1.000  H
  C172     1.0000 0.33560  0.63790  0.24490  Biso   1.000  C
  H112     1.0000 0.35350  0.67560  0.26260  Biso   1.000  H
  C173     1.0000 0.46350  0.03520  0.95140  Biso   1.000  C
  H113     1.0000 0.48130  0.02150  0.93400  Biso   1.000  H
  C174     1.0000 0.37240  0.26440  0.11510  Biso   1.000  C
  H114     1.0000 0.36390  0.22490  0.09180  Biso   1.000  H
  C175     1.0000 0.27770  0.61460  0.19150  Biso   1.000  C
  H115     1.0000 0.25580  0.63640  0.17220  Biso   1.000  H
  C176     1.0000 0.39480  0.37570  0.18400  Biso   1.000  C
  H116     1.0000 0.40260  0.41440  0.20780  Biso   1.000  H
  C177     1.0000 0.40780  0.99910  0.97580  Biso   1.000  C
  H117     1.0000 0.38670  0.96120  0.97540  Biso   1.000  H
  C178     1.0000 0.53190  0.40950  0.02130  Biso   1.000  C
  H118     1.0000 0.52170  0.37850  0.99550  Biso   1.000  H
  C179     1.0000 0.56470  0.49950  0.09470  Biso   1.000  C
  H119     1.0000 0.57560  0.53130  0.12010  Biso   1.000  H
  C180     1.0000 0.53370  0.44250  0.09610  Biso   1.000  C
  H120     1.0000 0.52480  0.43430  0.12210  Biso   1.000  H
  I31      1.0000 0.97644  0.35047  0.86729  Biso   1.000  I
  I32      1.0000 0.76584  0.76022  0.20330  Biso   1.000  I
  I33      1.0000 0.88372  0.25781  0.93952  Biso   1.000  I
  I34      1.0000 0.87128  0.83050  0.30257  Biso   1.000  I
  I35      1.0000 0.61020  0.74163  0.09934  Biso   1.000  I
  I36      1.0000 0.64733  0.59115  0.98975  Biso   1.000  I
  Zn16     1.0000 0.91942  0.37541  0.90443  Biso   1.000  Zn
  Zn17     1.0000 0.62625  0.59653  0.06328  Biso   1.000  Zn
  Zn18     1.0000 0.82767  0.85097  0.22700  Biso   1.000  Zn
  N61      1.0000 0.81620  0.98890  0.22130  Biso   1.000  N
  N62      1.0000 0.66790  0.53000  0.10800  Biso   1.000  N
  N63      1.0000 0.77930  0.44680  0.22840  Biso   1.000  N
  N64      1.0000 0.81930  0.31960  0.24950  Biso   1.000  N
  N65      1.0000 0.88050  0.55580  0.35700  Biso   1.000  N
  N66      1.0000 0.86050  0.83420  0.17990  Biso   1.000  N
  N67      1.0000 0.93260  0.47970  0.94990  Biso   1.000  N
  N68      1.0000 0.97770  0.77050  0.02850  Biso   1.000  N
  N69      1.0000 0.76580  0.30840  0.18960  Biso   1.000  N
  N70      1.0000 0.07960  0.01110  0.05940  Biso   1.000  N
  N71      1.0000 0.96190  0.85250  0.08810  Biso   1.000  N
  N72      1.0000 0.92580  0.72060  0.06150  Biso   1.000  N
  C181     1.0000 0.94330  0.63220  0.00400  Biso   1.000  C
  C182     1.0000 0.88940  0.47230  0.34610  Biso   1.000  C
  H121     1.0000 0.91210  0.44680  0.36190  Biso   1.000  H
  C183     1.0000 0.72670  0.44130  0.16540  Biso   1.000  C
  C184     1.0000 0.83400  0.45830  0.28960  Biso   1.000  C
  C185     1.0000 0.80930  0.40590  0.25350  Biso   1.000  C
  C186     1.0000 0.94870  0.71210  0.03350  Biso   1.000  C
  C187     1.0000 0.75880  0.39610  0.19610  Biso   1.000  C
  C188     1.0000 0.98280  0.83640  0.05810  Biso   1.000  C
  C189     1.0000 0.82380  0.54640  0.30000  Biso   1.000  C
  H122     1.0000 0.80140  0.57370  0.28440  Biso   1.000  H
  C190     1.0000 0.79560  0.27350  0.21860  Biso   1.000  C
  C191     1.0000 0.85010  0.77960  0.14470  Biso   1.000  C
  H123     1.0000 0.82610  0.75090  0.14070  Biso   1.000  H
  C192     1.0000 0.86730  0.42110  0.31310  Biso   1.000  C
  H124     1.0000 0.87480  0.36290  0.30710  Biso   1.000  H
  C193     1.0000 0.84790  0.59150  0.33410  Biso   1.000  C
  H125     1.0000 0.84090  0.64950  0.34130  Biso   1.000  H
  C194     1.0000 0.84110  0.04680  0.24610  Biso   1.000  C
  H126     1.0000 0.86290  0.02340  0.26490  Biso   1.000  H
  C195     1.0000 0.90830  0.80800  0.11940  Biso   1.000  C
  C196     1.0000 0.93310  0.79300  0.08790  Biso   1.000  C
  C197     1.0000 0.78480  0.02350  0.19470  Biso   1.000  C
  H127     1.0000 0.76720  0.98410  0.17780  Biso   1.000  H
  C198     1.0000 0.06260  0.96610  0.02310  Biso   1.000  C
  H128     1.0000 0.07230  0.97400  0.99770  Biso   1.000  H
  C199     1.0000 0.80330  0.17480  0.21720  Biso   1.000  C
  C200     1.0000 0.91240  0.57310  0.00290  Biso   1.000  C
  H129     1.0000 0.89470  0.58400  0.02070  Biso   1.000  H
  C201     1.0000 0.01610  0.89820  0.05790  Biso   1.000  C
  C202     1.0000 0.71570  0.52740  0.17350  Biso   1.000  C
  H130     1.0000 0.72840  0.55750  0.19870  Biso   1.000  H
  C203     1.0000 0.91890  0.86480  0.15550  Biso   1.000  C
  H131     1.0000 0.94240  0.89540  0.16010  Biso   1.000  H
  C204     1.0000 0.70810  0.39970  0.12710  Biso   1.000  C
  H132     1.0000 0.71510  0.34170  0.12000  Biso   1.000  H
  C205     1.0000 0.68660  0.56930  0.14540  Biso   1.000  C
  H133     1.0000 0.67930  0.62730  0.15210  Biso   1.000  H
  C206     1.0000 0.96940  0.61090  0.97750  Biso   1.000  C
  H134     1.0000 0.99080  0.64780  0.97750  Biso   1.000  H
  C207     1.0000 0.67840  0.44630  0.09930  Biso   1.000  C
  H135     1.0000 0.66550  0.41800  0.07370  Biso   1.000  H
  C208     1.0000 0.83560  0.13790  0.24490  Biso   1.000  C
  H136     1.0000 0.85350  0.17560  0.26260  Biso   1.000  H
  C209     1.0000 0.96350  0.53520  0.95140  Biso   1.000  C
  H137     1.0000 0.98130  0.52150  0.93400  Biso   1.000  H
  C210     1.0000 0.87240  0.76440  0.11510  Biso   1.000  C
  H138     1.0000 0.86390  0.72490  0.09180  Biso   1.000  H
  C211     1.0000 0.77770  0.11460  0.19150  Biso   1.000  C
  H139     1.0000 0.75580  0.13640  0.17220  Biso   1.000  H
  C212     1.0000 0.89480  0.87570  0.18400  Biso   1.000  C
  H140     1.0000 0.90260  0.91440  0.20780  Biso   1.000  H
  C213     1.0000 0.90780  0.49910  0.97580  Biso   1.000  C
  H141     1.0000 0.88670  0.46120  0.97540  Biso   1.000  H
  C214     1.0000 0.03190  0.90950  0.02130  Biso   1.000  C
  H142     1.0000 0.02170  0.87850  0.99550  Biso   1.000  H
  C215     1.0000 0.06470  0.99950  0.09470  Biso   1.000  C
  H143     1.0000 0.07560  0.03130  0.12010  Biso   1.000  H
  C216     1.0000 0.03370  0.94250  0.09610  Biso   1.000  C
  H144     1.0000 0.02480  0.93430  0.12210  Biso   1.000  H
  I37      1.0000 0.47644  0.14953  0.36729  Biso   1.000  I
  I38      1.0000 0.26584  0.73978  0.70330  Biso   1.000  I
  I39      1.0000 0.38372  0.24219  0.43952  Biso   1.000  I
  I40      1.0000 0.37128  0.66950  0.80257  Biso   1.000  I
  I41      1.0000 0.11020  0.75837  0.59934  Biso   1.000  I
  I42      1.0000 0.14733  0.90885  0.48975  Biso   1.000  I
  Zn19     1.0000 0.41942  0.12459  0.40443  Biso   1.000  Zn
  Zn20     1.0000 0.12625  0.90347  0.56328  Biso   1.000  Zn
  Zn21     1.0000 0.32767  0.64903  0.72700  Biso   1.000  Zn
  N73      1.0000 0.31620  0.51110  0.72130  Biso   1.000  N
  N74      1.0000 0.16790  0.97000  0.60800  Biso   1.000  N
  N75      1.0000 0.27930  0.05320  0.72840  Biso   1.000  N
  N76      1.0000 0.31930  0.18040  0.74950  Biso   1.000  N
  N77      1.0000 0.38050  0.94420  0.85700  Biso   1.000  N
  N78      1.0000 0.36050  0.66580  0.67990  Biso   1.000  N
  N79      1.0000 0.43260  0.02030  0.44990  Biso   1.000  N
  N80      1.0000 0.47770  0.72950  0.52850  Biso   1.000  N
  N81      1.0000 0.26580  0.19160  0.68960  Biso   1.000  N
  N82      1.0000 0.57960  0.48890  0.55940  Biso   1.000  N
  N83      1.0000 0.46190  0.64750  0.58810  Biso   1.000  N
  N84      1.0000 0.42580  0.77940  0.56150  Biso   1.000  N
  C217     1.0000 0.44330  0.86780  0.50400  Biso   1.000  C
  C218     1.0000 0.38940  0.02770  0.84610  Biso   1.000  C
  H145     1.0000 0.41210  0.05320  0.86190  Biso   1.000  H
  C219     1.0000 0.22670  0.05870  0.66540  Biso   1.000  C
  C220     1.0000 0.33400  0.04170  0.78960  Biso   1.000  C
  C221     1.0000 0.30930  0.09410  0.75350  Biso   1.000  C
  C222     1.0000 0.44870  0.78790  0.53350  Biso   1.000  C
  C223     1.0000 0.25880  0.10390  0.69610  Biso   1.000  C
  C224     1.0000 0.48280  0.66360  0.55810  Biso   1.000  C
  C225     1.0000 0.32380  0.95360  0.80000  Biso   1.000  C
  H146     1.0000 0.30140  0.92630  0.78440  Biso   1.000  H
  C226     1.0000 0.29560  0.22650  0.71860  Biso   1.000  C
  C227     1.0000 0.35010  0.72040  0.64470  Biso   1.000  C
  H147     1.0000 0.32610  0.74910  0.64070  Biso   1.000  H
  C228     1.0000 0.36730  0.07890  0.81310  Biso   1.000  C
  H148     1.0000 0.37480  0.13710  0.80710  Biso   1.000  H
  C229     1.0000 0.34790  0.90850  0.83410  Biso   1.000  C
  H149     1.0000 0.34090  0.85050  0.84130  Biso   1.000  H
  C230     1.0000 0.34110  0.45320  0.74610  Biso   1.000  C
  H150     1.0000 0.36290  0.47660  0.76490  Biso   1.000  H
  C231     1.0000 0.40830  0.69200  0.61940  Biso   1.000  C
  C232     1.0000 0.43310  0.70700  0.58790  Biso   1.000  C
  C233     1.0000 0.28480  0.47650  0.69470  Biso   1.000  C
  H151     1.0000 0.26720  0.51590  0.67780  Biso   1.000  H
  C234     1.0000 0.56260  0.53390  0.52310  Biso   1.000  C
  H152     1.0000 0.57230  0.52600  0.49770  Biso   1.000  H
  C235     1.0000 0.30330  0.32520  0.71720  Biso   1.000  C
  C236     1.0000 0.41240  0.92690  0.50290  Biso   1.000  C
  H153     1.0000 0.39470  0.91600  0.52070  Biso   1.000  H
  C237     1.0000 0.51610  0.60180  0.55790  Biso   1.000  C
  C238     1.0000 0.21570  0.97260  0.67350  Biso   1.000  C
  H154     1.0000 0.22840  0.94250  0.69870  Biso   1.000  H
  C239     1.0000 0.41890  0.63520  0.65550  Biso   1.000  C
  H155     1.0000 0.44240  0.60460  0.66010  Biso   1.000  H
  C240     1.0000 0.20810  0.10030  0.62710  Biso   1.000  C
  H156     1.0000 0.21510  0.15830  0.62000  Biso   1.000  H
  C241     1.0000 0.18660  0.93070  0.64540  Biso   1.000  C
  H157     1.0000 0.17930  0.87270  0.65210  Biso   1.000  H
  C242     1.0000 0.46940  0.88910  0.47750  Biso   1.000  C
  H158     1.0000 0.49080  0.85220  0.47750  Biso   1.000  H
  C243     1.0000 0.17840  0.05370  0.59930  Biso   1.000  C
  H159     1.0000 0.16550  0.08200  0.57370  Biso   1.000  H
  C244     1.0000 0.33560  0.36210  0.74490  Biso   1.000  C
  H160     1.0000 0.35350  0.32440  0.76260  Biso   1.000  H
  C245     1.0000 0.46350  0.96480  0.45140  Biso   1.000  C
  H161     1.0000 0.48130  0.97850  0.43400  Biso   1.000  H
  C246     1.0000 0.37240  0.73560  0.61510  Biso   1.000  C
  H162     1.0000 0.36390  0.77510  0.59180  Biso   1.000  H
  C247     1.0000 0.27770  0.38540  0.69150  Biso   1.000  C
  H163     1.0000 0.25580  0.36360  0.67220  Biso   1.000  H
  C248     1.0000 0.39480  0.62430  0.68400  Biso   1.000  C
  H164     1.0000 0.40260  0.58560  0.70780  Biso   1.000  H
  C249     1.0000 0.40780  0.00090  0.47580  Biso   1.000  C
  H165     1.0000 0.38670  0.03880  0.47540  Biso   1.000  H
  C250     1.0000 0.53190  0.59050  0.52130  Biso   1.000  C
  H166     1.0000 0.52170  0.62150  0.49550  Biso   1.000  H
  C251     1.0000 0.56470  0.50050  0.59470  Biso   1.000  C
  H167     1.0000 0.57560  0.46870  0.62010  Biso   1.000  H
  C252     1.0000 0.53370  0.55750  0.59610  Biso   1.000  C
  H168     1.0000 0.52480  0.56570  0.62210  Biso   1.000  H
  I43      1.0000 0.97644  0.64953  0.36729  Biso   1.000  I
  I44      1.0000 0.76584  0.23978  0.70330  Biso   1.000  I
  I45      1.0000 0.88372  0.74219  0.43952  Biso   1.000  I
  I46      1.0000 0.87128  0.16950  0.80257  Biso   1.000  I
  I47      1.0000 0.61020  0.25837  0.59934  Biso   1.000  I
  I48      1.0000 0.64733  0.40885  0.48975  Biso   1.000  I
  Zn22     1.0000 0.91942  0.62459  0.40443  Biso   1.000  Zn
  Zn23     1.0000 0.62625  0.40347  0.56328  Biso   1.000  Zn
  Zn24     1.0000 0.82767  0.14903  0.72700  Biso   1.000  Zn
  N85      1.0000 0.81620  0.01110  0.72130  Biso   1.000  N
  N86      1.0000 0.66790  0.47000  0.60800  Biso   1.000  N
  N87      1.0000 0.77930  0.55320  0.72840  Biso   1.000  N
  N88      1.0000 0.81930  0.68040  0.74950  Biso   1.000  N
  N89      1.0000 0.88050  0.44420  0.85700  Biso   1.000  N
  N90      1.0000 0.86050  0.16580  0.67990  Biso   1.000  N
  N91      1.0000 0.93260  0.52030  0.44990  Biso   1.000  N
  N92      1.0000 0.97770  0.22950  0.52850  Biso   1.000  N
  N93      1.0000 0.76580  0.69160  0.68960  Biso   1.000  N
  N94      1.0000 0.07960  0.98890  0.55940  Biso   1.000  N
  N95      1.0000 0.96190  0.14750  0.58810  Biso   1.000  N
  N96      1.0000 0.92580  0.27940  0.56150  Biso   1.000  N
  C253     1.0000 0.94330  0.36780  0.50400  Biso   1.000  C
  C254     1.0000 0.88940  0.52770  0.84610  Biso   1.000  C
  H169     1.0000 0.91210  0.55320  0.86190  Biso   1.000  H
  C255     1.0000 0.72670  0.55870  0.66540  Biso   1.000  C
  C256     1.0000 0.83400  0.54170  0.78960  Biso   1.000  C
  C257     1.0000 0.80930  0.59410  0.75350  Biso   1.000  C
  C258     1.0000 0.94870  0.28790  0.53350  Biso   1.000  C
  C259     1.0000 0.75880  0.60390  0.69610  Biso   1.000  C
  C260     1.0000 0.98280  0.16360  0.55810  Biso   1.000  C
  C261     1.0000 0.82380  0.45360  0.80000  Biso   1.000  C
  H170     1.0000 0.80140  0.42630  0.78440  Biso   1.000  H
  C262     1.0000 0.79560  0.72650  0.71860  Biso   1.000  C
  C263     1.0000 0.85010  0.22040  0.64470  Biso   1.000  C
  H171     1.0000 0.82610  0.24910  0.64070  Biso   1.000  H
  C264     1.0000 0.86730  0.57890  0.81310  Biso   1.000  C
  H172     1.0000 0.87480  0.63710  0.80710  Biso   1.000  H
  C265     1.0000 0.84790  0.40850  0.83410  Biso   1.000  C
  H173     1.0000 0.84090  0.35050  0.84130  Biso   1.000  H
  C266     1.0000 0.84110  0.95320  0.74610  Biso   1.000  C
  H174     1.0000 0.86290  0.97660  0.76490  Biso   1.000  H
  C267     1.0000 0.90830  0.19200  0.61940  Biso   1.000  C
  C268     1.0000 0.93310  0.20700  0.58790  Biso   1.000  C
  C269     1.0000 0.78480  0.97650  0.69470  Biso   1.000  C
  H175     1.0000 0.76720  0.01590  0.67780  Biso   1.000  H
  C270     1.0000 0.06260  0.03390  0.52310  Biso   1.000  C
  H176     1.0000 0.07230  0.02600  0.49770  Biso   1.000  H
  C271     1.0000 0.80330  0.82520  0.71720  Biso   1.000  C
  C272     1.0000 0.91240  0.42690  0.50290  Biso   1.000  C
  H177     1.0000 0.89470  0.41600  0.52070  Biso   1.000  H
  C273     1.0000 0.01610  0.10180  0.55790  Biso   1.000  C
  C274     1.0000 0.71570  0.47260  0.67350  Biso   1.000  C
  H178     1.0000 0.72840  0.44250  0.69870  Biso   1.000  H
  C275     1.0000 0.91890  0.13520  0.65550  Biso   1.000  C
  H179     1.0000 0.94240  0.10460  0.66010  Biso   1.000  H
  C276     1.0000 0.70810  0.60030  0.62710  Biso   1.000  C
  H180     1.0000 0.71510  0.65830  0.62000  Biso   1.000  H
  C277     1.0000 0.68660  0.43070  0.64540  Biso   1.000  C
  H181     1.0000 0.67930  0.37270  0.65210  Biso   1.000  H
  C278     1.0000 0.96940  0.38910  0.47750  Biso   1.000  C
  H182     1.0000 0.99080  0.35220  0.47750  Biso   1.000  H
  C279     1.0000 0.67840  0.55370  0.59930  Biso   1.000  C
  H183     1.0000 0.66550  0.58200  0.57370  Biso   1.000  H
  C280     1.0000 0.83560  0.86210  0.74490  Biso   1.000  C
  H184     1.0000 0.85350  0.82440  0.76260  Biso   1.000  H
  C281     1.0000 0.96350  0.46480  0.45140  Biso   1.000  C
  H185     1.0000 0.98130  0.47850  0.43400  Biso   1.000  H
  C282     1.0000 0.87240  0.23560  0.61510  Biso   1.000  C
  H186     1.0000 0.86390  0.27510  0.59180  Biso   1.000  H
  C283     1.0000 0.77770  0.88540  0.69150  Biso   1.000  C
  H187     1.0000 0.75580  0.86360  0.67220  Biso   1.000  H
  C284     1.0000 0.89480  0.12430  0.68400  Biso   1.000  C
  H188     1.0000 0.90260  0.08560  0.70780  Biso   1.000  H
  C285     1.0000 0.90780  0.50090  0.47580  Biso   1.000  C
  H189     1.0000 0.88670  0.53880  0.47540  Biso   1.000  H
  C286     1.0000 0.03190  0.09050  0.52130  Biso   1.000  C
  H190     1.0000 0.02170  0.12150  0.49550  Biso   1.000  H
  C287     1.0000 0.06470  0.00050  0.59470  Biso   1.000  C
  H191     1.0000 0.07560  0.96870  0.62010  Biso   1.000  H
  C288     1.0000 0.03370  0.05750  0.59610  Biso   1.000  C
  H192     1.0000 0.02480  0.06570  0.62210  Biso   1.000  H
