data_image0
_cell_length_a       35.1502
_cell_length_b       14.6139
_cell_length_c       31.0655
_cell_angle_alpha    90
_cell_angle_beta     101.3
_cell_angle_gamma    90

_symmetry_space_group_name_H-M    "P 1"
_symmetry_int_tables_number       1

loop_
  _symmetry_equiv_pos_as_xyz
  'x, y, z'

loop_
  _atom_site_label
  _atom_site_occupancy
  _atom_site_fract_x
  _atom_site_fract_y
  _atom_site_fract_z
  _atom_site_thermal_displace_type
  _atom_site_B_iso_or_equiv
  _atom_site_type_symbol
  I1       1.0000 0.26873  0.74622  0.20922  Biso   1.000  I
  I2       1.0000 0.38024  0.75745  0.44071  Biso   1.000  I
  I3       1.0000 0.37546  0.66382  0.30399  Biso   1.000  I
  I4       1.0000 0.47586  0.83608  0.36847  Biso   1.000  I
  I5       1.0000 0.64983  0.60216  0.49265  Biso   1.000  I
  I6       1.0000 0.60799  0.74170  0.60394  Biso   1.000  I
  Zn1      1.0000 0.41743  0.86936  0.40257  Biso   1.000  Zn
  Zn2      1.0000 0.33034  0.65213  0.22906  Biso   1.000  Zn
  Zn3      1.0000 0.62618  0.60104  0.56437  Biso   1.000  Zn
  N1       1.0000 0.36268  0.32750  0.68090  Biso   1.000  N
  N2       1.0000 0.31860  0.51370  0.21990  Biso   1.000  N
  N3       1.0000 0.27930  0.05190  0.22660  Biso   1.000  N
  N4       1.0000 0.43044  0.97910  0.44560  Biso   1.000  N
  N5       1.0000 0.37934  0.93960  0.35380  Biso   1.000  N
  N6       1.0000 0.26675  0.19190  0.18740  Biso   1.000  N
  N7       1.0000 0.57929  0.51330  0.55820  Biso   1.000  N
  N8       1.0000 0.32022  0.17910  0.24730  Biso   1.000  N
  N9       1.0000 0.16773  0.96770  0.10900  Biso   1.000  N
  C1       1.0000 0.34400  0.45480  0.24280  Biso   1.000  C
  H1       1.0000 0.36640  0.47780  0.26050  Biso   1.000  H
  N10      1.0000 0.46025  0.35400  0.58450  Biso   1.000  N
  N11      1.0000 0.42479  0.22110  0.55810  Biso   1.000  N
  C2       1.0000 0.48170  0.33850  0.55410  Biso   1.000  C
  C3       1.0000 0.25960  0.10400  0.19470  Biso   1.000  C
  N12      1.0000 0.47634  0.27140  0.52450  Biso   1.000  N
  C4       1.0000 0.34660  0.90350  0.33110  Biso   1.000  C
  H2       1.0000 0.33930  0.84510  0.33820  Biso   1.000  H
  C5       1.0000 0.22660  0.05850  0.16490  Biso   1.000  C
  C6       1.0000 0.33370  0.03810  0.28710  Biso   1.000  C
  C7       1.0000 0.46300  0.02900  0.44980  Biso   1.000  C
  H3       1.0000 0.48190  0.01100  0.43430  Biso   1.000  H
  C8       1.0000 0.30980  0.09330  0.25160  Biso   1.000  C
  C9       1.0000 0.56430  0.46740  0.52200  Biso   1.000  C
  H4       1.0000 0.57540  0.47460  0.49740  Biso   1.000  H
  C10      1.0000 0.29690  0.22670  0.21600  Biso   1.000  C
  C11      1.0000 0.30490  0.32630  0.21490  Biso   1.000  C
  C12      1.0000 0.32330  0.95070  0.29720  Biso   1.000  C
  H5       1.0000 0.30090  0.92390  0.28140  Biso   1.000  H
  C13      1.0000 0.51540  0.40030  0.55470  Biso   1.000  C
  C14      1.0000 0.40820  0.08170  0.49570  Biso   1.000  C
  H6       1.0000 0.38900  0.09870  0.51090  Biso   1.000  H
  C15      1.0000 0.35070  0.27500  0.64610  Biso   1.000  C
  H7       1.0000 0.32660  0.24680  0.64310  Biso   1.000  H
  C16      1.0000 0.33820  0.36090  0.24130  Biso   1.000  C
  H8       1.0000 0.35630  0.32190  0.25770  Biso   1.000  H
  C17      1.0000 0.56290  0.50190  0.59320  Biso   1.000  C
  H9       1.0000 0.57320  0.53310  0.61890  Biso   1.000  H
  C18      1.0000 0.44790  0.21290  0.52870  Biso   1.000  C
  C19      1.0000 0.53280  0.40950  0.51920  Biso   1.000  C
  H10      1.0000 0.52360  0.37710  0.49350  Biso   1.000  H
  C20      1.0000 0.43180  0.29290  0.58480  Biso   1.000  C
  C21      1.0000 0.28700  0.47940  0.19390  Biso   1.000  C
  H11      1.0000 0.26940  0.51980  0.17770  Biso   1.000  H
  C22      1.0000 0.40340  0.00540  0.46850  Biso   1.000  C
  H12      1.0000 0.38080  0.97110  0.46600  Biso   1.000  H
  C23      1.0000 0.21380  0.97480  0.17590  Biso   1.000  C
  H13      1.0000 0.22500  0.94730  0.20230  Biso   1.000  H
  C24      1.0000 0.38970  0.02340  0.34350  Biso   1.000  C
  H14      1.0000 0.41270  0.04790  0.35910  Biso   1.000  H
  C25      1.0000 0.44220  0.13210  0.49960  Biso   1.000  C
  C26      1.0000 0.17980  0.05020  0.09880  Biso   1.000  C
  H15      1.0000 0.16790  0.07630  0.07230  Biso   1.000  H
  C27      1.0000 0.20880  0.09860  0.12550  Biso   1.000  C
  H16      1.0000 0.21620  0.15620  0.11740  Biso   1.000  H
  C28      1.0000 0.40770  0.30460  0.61810  Biso   1.000  C
  C29      1.0000 0.46980  0.10550  0.47590  Biso   1.000  C
  H17      1.0000 0.49260  0.13870  0.47760  Biso   1.000  H
  C30      1.0000 0.37240  0.26030  0.61410  Biso   1.000  C
  H18      1.0000 0.36350  0.22160  0.59050  Biso   1.000  H
  C31      1.0000 0.36770  0.07510  0.31090  Biso   1.000  C
  H19      1.0000 0.37550  0.13380  0.30500  Biso   1.000  H
  C32      1.0000 0.18440  0.93160  0.14770  Biso   1.000  C
  H20      1.0000 0.17570  0.87530  0.15580  Biso   1.000  H
  C33      1.0000 0.41980  0.35890  0.65420  Biso   1.000  C
  H21      1.0000 0.44350  0.38930  0.65770  Biso   1.000  H
  C34      1.0000 0.39700  0.36830  0.68540  Biso   1.000  C
  H22      1.0000 0.40580  0.40410  0.71010  Biso   1.000  H
  C35      1.0000 0.27930  0.38730  0.19020  Biso   1.000  C
  H23      1.0000 0.25720  0.36610  0.17130  Biso   1.000  H
  C36      1.0000 0.53130  0.44580  0.59270  Biso   1.000  C
  H24      1.0000 0.52090  0.43880  0.61780  Biso   1.000  H
  I7       1.0000 0.76873  0.24622  0.20922  Biso   1.000  I
  I8       1.0000 0.88024  0.25745  0.44071  Biso   1.000  I
  I9       1.0000 0.87546  0.16382  0.30399  Biso   1.000  I
  I10      1.0000 0.97586  0.33608  0.36847  Biso   1.000  I
  I11      1.0000 0.14983  0.10216  0.49265  Biso   1.000  I
  I12      1.0000 0.10799  0.24170  0.60394  Biso   1.000  I
  Zn4      1.0000 0.91743  0.36936  0.40257  Biso   1.000  Zn
  Zn5      1.0000 0.83034  0.15213  0.22906  Biso   1.000  Zn
  Zn6      1.0000 0.12618  0.10104  0.56437  Biso   1.000  Zn
  N13      1.0000 0.86268  0.82750  0.68090  Biso   1.000  N
  N14      1.0000 0.81860  0.01370  0.21990  Biso   1.000  N
  N15      1.0000 0.77930  0.55190  0.22660  Biso   1.000  N
  N16      1.0000 0.93044  0.47910  0.44560  Biso   1.000  N
  N17      1.0000 0.87934  0.43960  0.35380  Biso   1.000  N
  N18      1.0000 0.76675  0.69190  0.18740  Biso   1.000  N
  N19      1.0000 0.07929  0.01330  0.55820  Biso   1.000  N
  N20      1.0000 0.82022  0.67910  0.24730  Biso   1.000  N
  N21      1.0000 0.66773  0.46770  0.10900  Biso   1.000  N
  C37      1.0000 0.84400  0.95480  0.24280  Biso   1.000  C
  H25      1.0000 0.86640  0.97780  0.26050  Biso   1.000  H
  N22      1.0000 0.96025  0.85400  0.58450  Biso   1.000  N
  N23      1.0000 0.92479  0.72110  0.55810  Biso   1.000  N
  C38      1.0000 0.98170  0.83850  0.55410  Biso   1.000  C
  C39      1.0000 0.75960  0.60400  0.19470  Biso   1.000  C
  N24      1.0000 0.97634  0.77140  0.52450  Biso   1.000  N
  C40      1.0000 0.84660  0.40350  0.33110  Biso   1.000  C
  H26      1.0000 0.83930  0.34510  0.33820  Biso   1.000  H
  C41      1.0000 0.72660  0.55850  0.16490  Biso   1.000  C
  C42      1.0000 0.83370  0.53810  0.28710  Biso   1.000  C
  C43      1.0000 0.96300  0.52900  0.44980  Biso   1.000  C
  H27      1.0000 0.98190  0.51100  0.43430  Biso   1.000  H
  C44      1.0000 0.80980  0.59330  0.25160  Biso   1.000  C
  C45      1.0000 0.06430  0.96740  0.52200  Biso   1.000  C
  H28      1.0000 0.07540  0.97460  0.49740  Biso   1.000  H
  C46      1.0000 0.79690  0.72670  0.21600  Biso   1.000  C
  C47      1.0000 0.80490  0.82630  0.21490  Biso   1.000  C
  C48      1.0000 0.82330  0.45070  0.29720  Biso   1.000  C
  H29      1.0000 0.80090  0.42390  0.28140  Biso   1.000  H
  C49      1.0000 0.01540  0.90030  0.55470  Biso   1.000  C
  C50      1.0000 0.90820  0.58170  0.49570  Biso   1.000  C
  H30      1.0000 0.88900  0.59870  0.51090  Biso   1.000  H
  C51      1.0000 0.85070  0.77500  0.64610  Biso   1.000  C
  H31      1.0000 0.82660  0.74680  0.64310  Biso   1.000  H
  C52      1.0000 0.83820  0.86090  0.24130  Biso   1.000  C
  H32      1.0000 0.85630  0.82190  0.25770  Biso   1.000  H
  C53      1.0000 0.06290  0.00190  0.59320  Biso   1.000  C
  H33      1.0000 0.07320  0.03310  0.61890  Biso   1.000  H
  C54      1.0000 0.94790  0.71290  0.52870  Biso   1.000  C
  C55      1.0000 0.03280  0.90950  0.51920  Biso   1.000  C
  H34      1.0000 0.02360  0.87710  0.49350  Biso   1.000  H
  C56      1.0000 0.93180  0.79290  0.58480  Biso   1.000  C
  C57      1.0000 0.78700  0.97940  0.19390  Biso   1.000  C
  H35      1.0000 0.76940  0.01980  0.17770  Biso   1.000  H
  C58      1.0000 0.90340  0.50540  0.46850  Biso   1.000  C
  H36      1.0000 0.88080  0.47110  0.46600  Biso   1.000  H
  C59      1.0000 0.71380  0.47480  0.17590  Biso   1.000  C
  H37      1.0000 0.72500  0.44730  0.20230  Biso   1.000  H
  C60      1.0000 0.88970  0.52340  0.34350  Biso   1.000  C
  H38      1.0000 0.91270  0.54790  0.35910  Biso   1.000  H
  C61      1.0000 0.94220  0.63210  0.49960  Biso   1.000  C
  C62      1.0000 0.67980  0.55020  0.09880  Biso   1.000  C
  H39      1.0000 0.66790  0.57630  0.07230  Biso   1.000  H
  C63      1.0000 0.70880  0.59860  0.12550  Biso   1.000  C
  H40      1.0000 0.71620  0.65620  0.11740  Biso   1.000  H
  C64      1.0000 0.90770  0.80460  0.61810  Biso   1.000  C
  C65      1.0000 0.96980  0.60550  0.47590  Biso   1.000  C
  H41      1.0000 0.99260  0.63870  0.47760  Biso   1.000  H
  C66      1.0000 0.87240  0.76030  0.61410  Biso   1.000  C
  H42      1.0000 0.86350  0.72160  0.59050  Biso   1.000  H
  C67      1.0000 0.86770  0.57510  0.31090  Biso   1.000  C
  H43      1.0000 0.87550  0.63380  0.30500  Biso   1.000  H
  C68      1.0000 0.68440  0.43160  0.14770  Biso   1.000  C
  H44      1.0000 0.67570  0.37530  0.15580  Biso   1.000  H
  C69      1.0000 0.91980  0.85890  0.65420  Biso   1.000  C
  H45      1.0000 0.94350  0.88930  0.65770  Biso   1.000  H
  C70      1.0000 0.89700  0.86830  0.68540  Biso   1.000  C
  H46      1.0000 0.90580  0.90410  0.71010  Biso   1.000  H
  C71      1.0000 0.77930  0.88730  0.19020  Biso   1.000  C
  H47      1.0000 0.75720  0.86610  0.17130  Biso   1.000  H
  C72      1.0000 0.03130  0.94580  0.59270  Biso   1.000  C
  H48      1.0000 0.02090  0.93880  0.61780  Biso   1.000  H
  I13      1.0000 0.26873  0.25378  0.70922  Biso   1.000  I
  I14      1.0000 0.38024  0.24255  0.94071  Biso   1.000  I
  I15      1.0000 0.37546  0.33618  0.80399  Biso   1.000  I
  I16      1.0000 0.47586  0.16392  0.86847  Biso   1.000  I
  I17      1.0000 0.64983  0.39784  0.99265  Biso   1.000  I
  I18      1.0000 0.60799  0.25830  0.10394  Biso   1.000  I
  Zn7      1.0000 0.41743  0.13064  0.90257  Biso   1.000  Zn
  Zn8      1.0000 0.33034  0.34787  0.72906  Biso   1.000  Zn
  Zn9      1.0000 0.62618  0.39896  0.06437  Biso   1.000  Zn
  N25      1.0000 0.36268  0.67250  0.18090  Biso   1.000  N
  N26      1.0000 0.31860  0.48630  0.71990  Biso   1.000  N
  N27      1.0000 0.27930  0.94810  0.72660  Biso   1.000  N
  N28      1.0000 0.43044  0.02090  0.94560  Biso   1.000  N
  N29      1.0000 0.37934  0.06040  0.85380  Biso   1.000  N
  N30      1.0000 0.26675  0.80810  0.68740  Biso   1.000  N
  N31      1.0000 0.57929  0.48670  0.05820  Biso   1.000  N
  N32      1.0000 0.32022  0.82090  0.74730  Biso   1.000  N
  N33      1.0000 0.16773  0.03230  0.60900  Biso   1.000  N
  C73      1.0000 0.34400  0.54520  0.74280  Biso   1.000  C
  H49      1.0000 0.36640  0.52220  0.76050  Biso   1.000  H
  N34      1.0000 0.46025  0.64600  0.08450  Biso   1.000  N
  N35      1.0000 0.42479  0.77890  0.05810  Biso   1.000  N
  C74      1.0000 0.48170  0.66150  0.05410  Biso   1.000  C
  C75      1.0000 0.25960  0.89600  0.69470  Biso   1.000  C
  N36      1.0000 0.47634  0.72860  0.02450  Biso   1.000  N
  C76      1.0000 0.34660  0.09650  0.83110  Biso   1.000  C
  H50      1.0000 0.33930  0.15490  0.83820  Biso   1.000  H
  C77      1.0000 0.22660  0.94150  0.66490  Biso   1.000  C
  C78      1.0000 0.33370  0.96190  0.78710  Biso   1.000  C
  C79      1.0000 0.46300  0.97100  0.94980  Biso   1.000  C
  H51      1.0000 0.48190  0.98900  0.93430  Biso   1.000  H
  C80      1.0000 0.30980  0.90670  0.75160  Biso   1.000  C
  C81      1.0000 0.56430  0.53260  0.02200  Biso   1.000  C
  H52      1.0000 0.57540  0.52540  0.99740  Biso   1.000  H
  C82      1.0000 0.29690  0.77330  0.71600  Biso   1.000  C
  C83      1.0000 0.30490  0.67370  0.71490  Biso   1.000  C
  C84      1.0000 0.32330  0.04930  0.79720  Biso   1.000  C
  H53      1.0000 0.30090  0.07610  0.78140  Biso   1.000  H
  C85      1.0000 0.51540  0.59970  0.05470  Biso   1.000  C
  C86      1.0000 0.40820  0.91830  0.99570  Biso   1.000  C
  H54      1.0000 0.38900  0.90130  0.01090  Biso   1.000  H
  C87      1.0000 0.35070  0.72500  0.14610  Biso   1.000  C
  H55      1.0000 0.32660  0.75320  0.14310  Biso   1.000  H
  C88      1.0000 0.33820  0.63910  0.74130  Biso   1.000  C
  H56      1.0000 0.35630  0.67810  0.75770  Biso   1.000  H
  C89      1.0000 0.56290  0.49810  0.09320  Biso   1.000  C
  H57      1.0000 0.57320  0.46690  0.11890  Biso   1.000  H
  C90      1.0000 0.44790  0.78710  0.02870  Biso   1.000  C
  C91      1.0000 0.53280  0.59050  0.01920  Biso   1.000  C
  H58      1.0000 0.52360  0.62290  0.99350  Biso   1.000  H
  C92      1.0000 0.43180  0.70710  0.08480  Biso   1.000  C
  C93      1.0000 0.28700  0.52060  0.69390  Biso   1.000  C
  H59      1.0000 0.26940  0.48020  0.67770  Biso   1.000  H
  C94      1.0000 0.40340  0.99460  0.96850  Biso   1.000  C
  H60      1.0000 0.38080  0.02890  0.96600  Biso   1.000  H
  C95      1.0000 0.21380  0.02520  0.67590  Biso   1.000  C
  H61      1.0000 0.22500  0.05270  0.70230  Biso   1.000  H
  C96      1.0000 0.38970  0.97660  0.84350  Biso   1.000  C
  H62      1.0000 0.41270  0.95210  0.85910  Biso   1.000  H
  C97      1.0000 0.44220  0.86790  0.99960  Biso   1.000  C
  C98      1.0000 0.17980  0.94980  0.59880  Biso   1.000  C
  H63      1.0000 0.16790  0.92370  0.57230  Biso   1.000  H
  C99      1.0000 0.20880  0.90140  0.62550  Biso   1.000  C
  H64      1.0000 0.21620  0.84380  0.61740  Biso   1.000  H
  C100     1.0000 0.40770  0.69540  0.11810  Biso   1.000  C
  C101     1.0000 0.46980  0.89450  0.97590  Biso   1.000  C
  H65      1.0000 0.49260  0.86130  0.97760  Biso   1.000  H
  C102     1.0000 0.37240  0.73970  0.11410  Biso   1.000  C
  H66      1.0000 0.36350  0.77840  0.09050  Biso   1.000  H
  C103     1.0000 0.36770  0.92490  0.81090  Biso   1.000  C
  H67      1.0000 0.37550  0.86620  0.80500  Biso   1.000  H
  C104     1.0000 0.18440  0.06840  0.64770  Biso   1.000  C
  H68      1.0000 0.17570  0.12470  0.65580  Biso   1.000  H
  C105     1.0000 0.41980  0.64110  0.15420  Biso   1.000  C
  H69      1.0000 0.44350  0.61070  0.15770  Biso   1.000  H
  C106     1.0000 0.39700  0.63170  0.18540  Biso   1.000  C
  H70      1.0000 0.40580  0.59590  0.21010  Biso   1.000  H
  C107     1.0000 0.27930  0.61270  0.69020  Biso   1.000  C
  H71      1.0000 0.25720  0.63390  0.67130  Biso   1.000  H
  C108     1.0000 0.53130  0.55420  0.09270  Biso   1.000  C
  H72      1.0000 0.52090  0.56120  0.11780  Biso   1.000  H
  I19      1.0000 0.76873  0.75378  0.70922  Biso   1.000  I
  I20      1.0000 0.88024  0.74255  0.94071  Biso   1.000  I
  I21      1.0000 0.87546  0.83618  0.80399  Biso   1.000  I
  I22      1.0000 0.97586  0.66392  0.86847  Biso   1.000  I
  I23      1.0000 0.14983  0.89784  0.99265  Biso   1.000  I
  I24      1.0000 0.10799  0.75830  0.10394  Biso   1.000  I
  Zn10     1.0000 0.91743  0.63064  0.90257  Biso   1.000  Zn
  Zn11     1.0000 0.83034  0.84787  0.72906  Biso   1.000  Zn
  Zn12     1.0000 0.12618  0.89896  0.06437  Biso   1.000  Zn
  N37      1.0000 0.86268  0.17250  0.18090  Biso   1.000  N
  N38      1.0000 0.81860  0.98630  0.71990  Biso   1.000  N
  N39      1.0000 0.77930  0.44810  0.72660  Biso   1.000  N
  N40      1.0000 0.93044  0.52090  0.94560  Biso   1.000  N
  N41      1.0000 0.87934  0.56040  0.85380  Biso   1.000  N
  N42      1.0000 0.76675  0.30810  0.68740  Biso   1.000  N
  N43      1.0000 0.07929  0.98670  0.05820  Biso   1.000  N
  N44      1.0000 0.82022  0.32090  0.74730  Biso   1.000  N
  N45      1.0000 0.66773  0.53230  0.60900  Biso   1.000  N
  C109     1.0000 0.84400  0.04520  0.74280  Biso   1.000  C
  H73      1.0000 0.86640  0.02220  0.76050  Biso   1.000  H
  N46      1.0000 0.96025  0.14600  0.08450  Biso   1.000  N
  N47      1.0000 0.92479  0.27890  0.05810  Biso   1.000  N
  C110     1.0000 0.98170  0.16150  0.05410  Biso   1.000  C
  C111     1.0000 0.75960  0.39600  0.69470  Biso   1.000  C
  N48      1.0000 0.97634  0.22860  0.02450  Biso   1.000  N
  C112     1.0000 0.84660  0.59650  0.83110  Biso   1.000  C
  H74      1.0000 0.83930  0.65490  0.83820  Biso   1.000  H
  C113     1.0000 0.72660  0.44150  0.66490  Biso   1.000  C
  C114     1.0000 0.83370  0.46190  0.78710  Biso   1.000  C
  C115     1.0000 0.96300  0.47100  0.94980  Biso   1.000  C
  H75      1.0000 0.98190  0.48900  0.93430  Biso   1.000  H
  C116     1.0000 0.80980  0.40670  0.75160  Biso   1.000  C
  C117     1.0000 0.06430  0.03260  0.02200  Biso   1.000  C
  H76      1.0000 0.07540  0.02540  0.99740  Biso   1.000  H
  C118     1.0000 0.79690  0.27330  0.71600  Biso   1.000  C
  C119     1.0000 0.80490  0.17370  0.71490  Biso   1.000  C
  C120     1.0000 0.82330  0.54930  0.79720  Biso   1.000  C
  H77      1.0000 0.80090  0.57610  0.78140  Biso   1.000  H
  C121     1.0000 0.01540  0.09970  0.05470  Biso   1.000  C
  C122     1.0000 0.90820  0.41830  0.99570  Biso   1.000  C
  H78      1.0000 0.88900  0.40130  0.01090  Biso   1.000  H
  C123     1.0000 0.85070  0.22500  0.14610  Biso   1.000  C
  H79      1.0000 0.82660  0.25320  0.14310  Biso   1.000  H
  C124     1.0000 0.83820  0.13910  0.74130  Biso   1.000  C
  H80      1.0000 0.85630  0.17810  0.75770  Biso   1.000  H
  C125     1.0000 0.06290  0.99810  0.09320  Biso   1.000  C
  H81      1.0000 0.07320  0.96690  0.11890  Biso   1.000  H
  C126     1.0000 0.94790  0.28710  0.02870  Biso   1.000  C
  C127     1.0000 0.03280  0.09050  0.01920  Biso   1.000  C
  H82      1.0000 0.02360  0.12290  0.99350  Biso   1.000  H
  C128     1.0000 0.93180  0.20710  0.08480  Biso   1.000  C
  C129     1.0000 0.78700  0.02060  0.69390  Biso   1.000  C
  H83      1.0000 0.76940  0.98020  0.67770  Biso   1.000  H
  C130     1.0000 0.90340  0.49460  0.96850  Biso   1.000  C
  H84      1.0000 0.88080  0.52890  0.96600  Biso   1.000  H
  C131     1.0000 0.71380  0.52520  0.67590  Biso   1.000  C
  H85      1.0000 0.72500  0.55270  0.70230  Biso   1.000  H
  C132     1.0000 0.88970  0.47660  0.84350  Biso   1.000  C
  H86      1.0000 0.91270  0.45210  0.85910  Biso   1.000  H
  C133     1.0000 0.94220  0.36790  0.99960  Biso   1.000  C
  C134     1.0000 0.67980  0.44980  0.59880  Biso   1.000  C
  H87      1.0000 0.66790  0.42370  0.57230  Biso   1.000  H
  C135     1.0000 0.70880  0.40140  0.62550  Biso   1.000  C
  H88      1.0000 0.71620  0.34380  0.61740  Biso   1.000  H
  C136     1.0000 0.90770  0.19540  0.11810  Biso   1.000  C
  C137     1.0000 0.96980  0.39450  0.97590  Biso   1.000  C
  H89      1.0000 0.99260  0.36130  0.97760  Biso   1.000  H
  C138     1.0000 0.87240  0.23970  0.11410  Biso   1.000  C
  H90      1.0000 0.86350  0.27840  0.09050  Biso   1.000  H
  C139     1.0000 0.86770  0.42490  0.81090  Biso   1.000  C
  H91      1.0000 0.87550  0.36620  0.80500  Biso   1.000  H
  C140     1.0000 0.68440  0.56840  0.64770  Biso   1.000  C
  H92      1.0000 0.67570  0.62470  0.65580  Biso   1.000  H
  C141     1.0000 0.91980  0.14110  0.15420  Biso   1.000  C
  H93      1.0000 0.94350  0.11070  0.15770  Biso   1.000  H
  C142     1.0000 0.89700  0.13170  0.18540  Biso   1.000  C
  H94      1.0000 0.90580  0.09590  0.21010  Biso   1.000  H
  C143     1.0000 0.77930  0.11270  0.69020  Biso   1.000  C
  H95      1.0000 0.75720  0.13390  0.67130  Biso   1.000  H
  C144     1.0000 0.03130  0.05420  0.09270  Biso   1.000  C
  H96      1.0000 0.02090  0.06120  0.11780  Biso   1.000  H
  I25      1.0000 0.73127  0.74622  0.29078  Biso   1.000  I
  I26      1.0000 0.61976  0.75745  0.05929  Biso   1.000  I
  I27      1.0000 0.62454  0.66382  0.19601  Biso   1.000  I
  I28      1.0000 0.52414  0.83608  0.13153  Biso   1.000  I
  I29      1.0000 0.35017  0.60216  0.00735  Biso   1.000  I
  I30      1.0000 0.39201  0.74170  0.89606  Biso   1.000  I
  Zn13     1.0000 0.58257  0.86936  0.09743  Biso   1.000  Zn
  Zn14     1.0000 0.66966  0.65213  0.27094  Biso   1.000  Zn
  Zn15     1.0000 0.37382  0.60104  0.93563  Biso   1.000  Zn
  N49      1.0000 0.63732  0.32750  0.81910  Biso   1.000  N
  N50      1.0000 0.68140  0.51370  0.28010  Biso   1.000  N
  N51      1.0000 0.72070  0.05190  0.27340  Biso   1.000  N
  N52      1.0000 0.56956  0.97910  0.05440  Biso   1.000  N
  N53      1.0000 0.62066  0.93960  0.14620  Biso   1.000  N
  N54      1.0000 0.73325  0.19190  0.31260  Biso   1.000  N
  N55      1.0000 0.42071  0.51330  0.94180  Biso   1.000  N
  N56      1.0000 0.67978  0.17910  0.25270  Biso   1.000  N
  N57      1.0000 0.83227  0.96770  0.39100  Biso   1.000  N
  C145     1.0000 0.65600  0.45480  0.25720  Biso   1.000  C
  H97      1.0000 0.63360  0.47780  0.23950  Biso   1.000  H
  N58      1.0000 0.53975  0.35400  0.91550  Biso   1.000  N
  N59      1.0000 0.57521  0.22110  0.94190  Biso   1.000  N
  C146     1.0000 0.51830  0.33850  0.94590  Biso   1.000  C
  C147     1.0000 0.74040  0.10400  0.30530  Biso   1.000  C
  N60      1.0000 0.52366  0.27140  0.97550  Biso   1.000  N
  C148     1.0000 0.65340  0.90350  0.16890  Biso   1.000  C
  H98      1.0000 0.66070  0.84510  0.16180  Biso   1.000  H
  C149     1.0000 0.77340  0.05850  0.33510  Biso   1.000  C
  C150     1.0000 0.66630  0.03810  0.21290  Biso   1.000  C
  C151     1.0000 0.53700  0.02900  0.05020  Biso   1.000  C
  H99      1.0000 0.51810  0.01100  0.06570  Biso   1.000  H
  C152     1.0000 0.69020  0.09330  0.24840  Biso   1.000  C
  C153     1.0000 0.43570  0.46740  0.97800  Biso   1.000  C
  H100     1.0000 0.42460  0.47460  0.00260  Biso   1.000  H
  C154     1.0000 0.70310  0.22670  0.28400  Biso   1.000  C
  C155     1.0000 0.69510  0.32630  0.28510  Biso   1.000  C
  C156     1.0000 0.67670  0.95070  0.20280  Biso   1.000  C
  H101     1.0000 0.69910  0.92390  0.21860  Biso   1.000  H
  C157     1.0000 0.48460  0.40030  0.94530  Biso   1.000  C
  C158     1.0000 0.59180  0.08170  0.00430  Biso   1.000  C
  H102     1.0000 0.61100  0.09870  0.98910  Biso   1.000  H
  C159     1.0000 0.64930  0.27500  0.85390  Biso   1.000  C
  H103     1.0000 0.67340  0.24680  0.85690  Biso   1.000  H
  C160     1.0000 0.66180  0.36090  0.25870  Biso   1.000  C
  H104     1.0000 0.64370  0.32190  0.24230  Biso   1.000  H
  C161     1.0000 0.43710  0.50190  0.90680  Biso   1.000  C
  H105     1.0000 0.42680  0.53310  0.88110  Biso   1.000  H
  C162     1.0000 0.55210  0.21290  0.97130  Biso   1.000  C
  C163     1.0000 0.46720  0.40950  0.98080  Biso   1.000  C
  H106     1.0000 0.47640  0.37710  0.00650  Biso   1.000  H
  C164     1.0000 0.56820  0.29290  0.91520  Biso   1.000  C
  C165     1.0000 0.71300  0.47940  0.30610  Biso   1.000  C
  H107     1.0000 0.73060  0.51980  0.32230  Biso   1.000  H
  C166     1.0000 0.59660  0.00540  0.03150  Biso   1.000  C
  H108     1.0000 0.61920  0.97110  0.03400  Biso   1.000  H
  C167     1.0000 0.78620  0.97480  0.32410  Biso   1.000  C
  H109     1.0000 0.77500  0.94730  0.29770  Biso   1.000  H
  C168     1.0000 0.61030  0.02340  0.15650  Biso   1.000  C
  H110     1.0000 0.58730  0.04790  0.14090  Biso   1.000  H
  C169     1.0000 0.55780  0.13210  0.00040  Biso   1.000  C
  C170     1.0000 0.82020  0.05020  0.40120  Biso   1.000  C
  H111     1.0000 0.83210  0.07630  0.42770  Biso   1.000  H
  C171     1.0000 0.79120  0.09860  0.37450  Biso   1.000  C
  H112     1.0000 0.78380  0.15620  0.38260  Biso   1.000  H
  C172     1.0000 0.59230  0.30460  0.88190  Biso   1.000  C
  C173     1.0000 0.53020  0.10550  0.02410  Biso   1.000  C
  H113     1.0000 0.50740  0.13870  0.02240  Biso   1.000  H
  C174     1.0000 0.62760  0.26030  0.88590  Biso   1.000  C
  H114     1.0000 0.63650  0.22160  0.90950  Biso   1.000  H
  C175     1.0000 0.63230  0.07510  0.18910  Biso   1.000  C
  H115     1.0000 0.62450  0.13380  0.19500  Biso   1.000  H
  C176     1.0000 0.81560  0.93160  0.35230  Biso   1.000  C
  H116     1.0000 0.82430  0.87530  0.34420  Biso   1.000  H
  C177     1.0000 0.58020  0.35890  0.84580  Biso   1.000  C
  H117     1.0000 0.55650  0.38930  0.84230  Biso   1.000  H
  C178     1.0000 0.60300  0.36830  0.81460  Biso   1.000  C
  H118     1.0000 0.59420  0.40410  0.78990  Biso   1.000  H
  C179     1.0000 0.72070  0.38730  0.30980  Biso   1.000  C
  H119     1.0000 0.74280  0.36610  0.32870  Biso   1.000  H
  C180     1.0000 0.46870  0.44580  0.90730  Biso   1.000  C
  H120     1.0000 0.47910  0.43880  0.88220  Biso   1.000  H
  I31      1.0000 0.23127  0.24622  0.29078  Biso   1.000  I
  I32      1.0000 0.11976  0.25745  0.05929  Biso   1.000  I
  I33      1.0000 0.12454  0.16382  0.19601  Biso   1.000  I
  I34      1.0000 0.02414  0.33608  0.13153  Biso   1.000  I
  I35      1.0000 0.85017  0.10216  0.00735  Biso   1.000  I
  I36      1.0000 0.89201  0.24170  0.89606  Biso   1.000  I
  Zn16     1.0000 0.08257  0.36936  0.09743  Biso   1.000  Zn
  Zn17     1.0000 0.16966  0.15213  0.27094  Biso   1.000  Zn
  Zn18     1.0000 0.87382  0.10104  0.93563  Biso   1.000  Zn
  N61      1.0000 0.13732  0.82750  0.81910  Biso   1.000  N
  N62      1.0000 0.18140  0.01370  0.28010  Biso   1.000  N
  N63      1.0000 0.22070  0.55190  0.27340  Biso   1.000  N
  N64      1.0000 0.06956  0.47910  0.05440  Biso   1.000  N
  N65      1.0000 0.12066  0.43960  0.14620  Biso   1.000  N
  N66      1.0000 0.23325  0.69190  0.31260  Biso   1.000  N
  N67      1.0000 0.92071  0.01330  0.94180  Biso   1.000  N
  N68      1.0000 0.17978  0.67910  0.25270  Biso   1.000  N
  N69      1.0000 0.33227  0.46770  0.39100  Biso   1.000  N
  C181     1.0000 0.15600  0.95480  0.25720  Biso   1.000  C
  H121     1.0000 0.13360  0.97780  0.23950  Biso   1.000  H
  N70      1.0000 0.03975  0.85400  0.91550  Biso   1.000  N
  N71      1.0000 0.07521  0.72110  0.94190  Biso   1.000  N
  C182     1.0000 0.01830  0.83850  0.94590  Biso   1.000  C
  C183     1.0000 0.24040  0.60400  0.30530  Biso   1.000  C
  N72      1.0000 0.02366  0.77140  0.97550  Biso   1.000  N
  C184     1.0000 0.15340  0.40350  0.16890  Biso   1.000  C
  H122     1.0000 0.16070  0.34510  0.16180  Biso   1.000  H
  C185     1.0000 0.27340  0.55850  0.33510  Biso   1.000  C
  C186     1.0000 0.16630  0.53810  0.21290  Biso   1.000  C
  C187     1.0000 0.03700  0.52900  0.05020  Biso   1.000  C
  H123     1.0000 0.01810  0.51100  0.06570  Biso   1.000  H
  C188     1.0000 0.19020  0.59330  0.24840  Biso   1.000  C
  C189     1.0000 0.93570  0.96740  0.97800  Biso   1.000  C
  H124     1.0000 0.92460  0.97460  0.00260  Biso   1.000  H
  C190     1.0000 0.20310  0.72670  0.28400  Biso   1.000  C
  C191     1.0000 0.19510  0.82630  0.28510  Biso   1.000  C
  C192     1.0000 0.17670  0.45070  0.20280  Biso   1.000  C
  H125     1.0000 0.19910  0.42390  0.21860  Biso   1.000  H
  C193     1.0000 0.98460  0.90030  0.94530  Biso   1.000  C
  C194     1.0000 0.09180  0.58170  0.00430  Biso   1.000  C
  H126     1.0000 0.11100  0.59870  0.98910  Biso   1.000  H
  C195     1.0000 0.14930  0.77500  0.85390  Biso   1.000  C
  H127     1.0000 0.17340  0.74680  0.85690  Biso   1.000  H
  C196     1.0000 0.16180  0.86090  0.25870  Biso   1.000  C
  H128     1.0000 0.14370  0.82190  0.24230  Biso   1.000  H
  C197     1.0000 0.93710  0.00190  0.90680  Biso   1.000  C
  H129     1.0000 0.92680  0.03310  0.88110  Biso   1.000  H
  C198     1.0000 0.05210  0.71290  0.97130  Biso   1.000  C
  C199     1.0000 0.96720  0.90950  0.98080  Biso   1.000  C
  H130     1.0000 0.97640  0.87710  0.00650  Biso   1.000  H
  C200     1.0000 0.06820  0.79290  0.91520  Biso   1.000  C
  C201     1.0000 0.21300  0.97940  0.30610  Biso   1.000  C
  H131     1.0000 0.23060  0.01980  0.32230  Biso   1.000  H
  C202     1.0000 0.09660  0.50540  0.03150  Biso   1.000  C
  H132     1.0000 0.11920  0.47110  0.03400  Biso   1.000  H
  C203     1.0000 0.28620  0.47480  0.32410  Biso   1.000  C
  H133     1.0000 0.27500  0.44730  0.29770  Biso   1.000  H
  C204     1.0000 0.11030  0.52340  0.15650  Biso   1.000  C
  H134     1.0000 0.08730  0.54790  0.14090  Biso   1.000  H
  C205     1.0000 0.05780  0.63210  0.00040  Biso   1.000  C
  C206     1.0000 0.32020  0.55020  0.40120  Biso   1.000  C
  H135     1.0000 0.33210  0.57630  0.42770  Biso   1.000  H
  C207     1.0000 0.29120  0.59860  0.37450  Biso   1.000  C
  H136     1.0000 0.28380  0.65620  0.38260  Biso   1.000  H
  C208     1.0000 0.09230  0.80460  0.88190  Biso   1.000  C
  C209     1.0000 0.03020  0.60550  0.02410  Biso   1.000  C
  H137     1.0000 0.00740  0.63870  0.02240  Biso   1.000  H
  C210     1.0000 0.12760  0.76030  0.88590  Biso   1.000  C
  H138     1.0000 0.13650  0.72160  0.90950  Biso   1.000  H
  C211     1.0000 0.13230  0.57510  0.18910  Biso   1.000  C
  H139     1.0000 0.12450  0.63380  0.19500  Biso   1.000  H
  C212     1.0000 0.31560  0.43160  0.35230  Biso   1.000  C
  H140     1.0000 0.32430  0.37530  0.34420  Biso   1.000  H
  C213     1.0000 0.08020  0.85890  0.84580  Biso   1.000  C
  H141     1.0000 0.05650  0.88930  0.84230  Biso   1.000  H
  C214     1.0000 0.10300  0.86830  0.81460  Biso   1.000  C
  H142     1.0000 0.09420  0.90410  0.78990  Biso   1.000  H
  C215     1.0000 0.22070  0.88730  0.30980  Biso   1.000  C
  H143     1.0000 0.24280  0.86610  0.32870  Biso   1.000  H
  C216     1.0000 0.96870  0.94580  0.90730  Biso   1.000  C
  H144     1.0000 0.97910  0.93880  0.88220  Biso   1.000  H
  I37      1.0000 0.73127  0.25378  0.79078  Biso   1.000  I
  I38      1.0000 0.61976  0.24255  0.55929  Biso   1.000  I
  I39      1.0000 0.62454  0.33618  0.69601  Biso   1.000  I
  I40      1.0000 0.52414  0.16392  0.63153  Biso   1.000  I
  I41      1.0000 0.35017  0.39784  0.50735  Biso   1.000  I
  I42      1.0000 0.39201  0.25830  0.39606  Biso   1.000  I
  Zn19     1.0000 0.58257  0.13064  0.59743  Biso   1.000  Zn
  Zn20     1.0000 0.66966  0.34787  0.77094  Biso   1.000  Zn
  Zn21     1.0000 0.37382  0.39896  0.43563  Biso   1.000  Zn
  N73      1.0000 0.63732  0.67250  0.31910  Biso   1.000  N
  N74      1.0000 0.68140  0.48630  0.78010  Biso   1.000  N
  N75      1.0000 0.72070  0.94810  0.77340  Biso   1.000  N
  N76      1.0000 0.56956  0.02090  0.55440  Biso   1.000  N
  N77      1.0000 0.62066  0.06040  0.64620  Biso   1.000  N
  N78      1.0000 0.73325  0.80810  0.81260  Biso   1.000  N
  N79      1.0000 0.42071  0.48670  0.44180  Biso   1.000  N
  N80      1.0000 0.67978  0.82090  0.75270  Biso   1.000  N
  N81      1.0000 0.83227  0.03230  0.89100  Biso   1.000  N
  C217     1.0000 0.65600  0.54520  0.75720  Biso   1.000  C
  H145     1.0000 0.63360  0.52220  0.73950  Biso   1.000  H
  N82      1.0000 0.53975  0.64600  0.41550  Biso   1.000  N
  N83      1.0000 0.57521  0.77890  0.44190  Biso   1.000  N
  C218     1.0000 0.51830  0.66150  0.44590  Biso   1.000  C
  C219     1.0000 0.74040  0.89600  0.80530  Biso   1.000  C
  N84      1.0000 0.52366  0.72860  0.47550  Biso   1.000  N
  C220     1.0000 0.65340  0.09650  0.66890  Biso   1.000  C
  H146     1.0000 0.66070  0.15490  0.66180  Biso   1.000  H
  C221     1.0000 0.77340  0.94150  0.83510  Biso   1.000  C
  C222     1.0000 0.66630  0.96190  0.71290  Biso   1.000  C
  C223     1.0000 0.53700  0.97100  0.55020  Biso   1.000  C
  H147     1.0000 0.51810  0.98900  0.56570  Biso   1.000  H
  C224     1.0000 0.69020  0.90670  0.74840  Biso   1.000  C
  C225     1.0000 0.43570  0.53260  0.47800  Biso   1.000  C
  H148     1.0000 0.42460  0.52540  0.50260  Biso   1.000  H
  C226     1.0000 0.70310  0.77330  0.78400  Biso   1.000  C
  C227     1.0000 0.69510  0.67370  0.78510  Biso   1.000  C
  C228     1.0000 0.67670  0.04930  0.70280  Biso   1.000  C
  H149     1.0000 0.69910  0.07610  0.71860  Biso   1.000  H
  C229     1.0000 0.48460  0.59970  0.44530  Biso   1.000  C
  C230     1.0000 0.59180  0.91830  0.50430  Biso   1.000  C
  H150     1.0000 0.61100  0.90130  0.48910  Biso   1.000  H
  C231     1.0000 0.64930  0.72500  0.35390  Biso   1.000  C
  H151     1.0000 0.67340  0.75320  0.35690  Biso   1.000  H
  C232     1.0000 0.66180  0.63910  0.75870  Biso   1.000  C
  H152     1.0000 0.64370  0.67810  0.74230  Biso   1.000  H
  C233     1.0000 0.43710  0.49810  0.40680  Biso   1.000  C
  H153     1.0000 0.42680  0.46690  0.38110  Biso   1.000  H
  C234     1.0000 0.55210  0.78710  0.47130  Biso   1.000  C
  C235     1.0000 0.46720  0.59050  0.48080  Biso   1.000  C
  H154     1.0000 0.47640  0.62290  0.50650  Biso   1.000  H
  C236     1.0000 0.56820  0.70710  0.41520  Biso   1.000  C
  C237     1.0000 0.71300  0.52060  0.80610  Biso   1.000  C
  H155     1.0000 0.73060  0.48020  0.82230  Biso   1.000  H
  C238     1.0000 0.59660  0.99460  0.53150  Biso   1.000  C
  H156     1.0000 0.61920  0.02890  0.53400  Biso   1.000  H
  C239     1.0000 0.78620  0.02520  0.82410  Biso   1.000  C
  H157     1.0000 0.77500  0.05270  0.79770  Biso   1.000  H
  C240     1.0000 0.61030  0.97660  0.65650  Biso   1.000  C
  H158     1.0000 0.58730  0.95210  0.64090  Biso   1.000  H
  C241     1.0000 0.55780  0.86790  0.50040  Biso   1.000  C
  C242     1.0000 0.82020  0.94980  0.90120  Biso   1.000  C
  H159     1.0000 0.83210  0.92370  0.92770  Biso   1.000  H
  C243     1.0000 0.79120  0.90140  0.87450  Biso   1.000  C
  H160     1.0000 0.78380  0.84380  0.88260  Biso   1.000  H
  C244     1.0000 0.59230  0.69540  0.38190  Biso   1.000  C
  C245     1.0000 0.53020  0.89450  0.52410  Biso   1.000  C
  H161     1.0000 0.50740  0.86130  0.52240  Biso   1.000  H
  C246     1.0000 0.62760  0.73970  0.38590  Biso   1.000  C
  H162     1.0000 0.63650  0.77840  0.40950  Biso   1.000  H
  C247     1.0000 0.63230  0.92490  0.68910  Biso   1.000  C
  H163     1.0000 0.62450  0.86620  0.69500  Biso   1.000  H
  C248     1.0000 0.81560  0.06840  0.85230  Biso   1.000  C
  H164     1.0000 0.82430  0.12470  0.84420  Biso   1.000  H
  C249     1.0000 0.58020  0.64110  0.34580  Biso   1.000  C
  H165     1.0000 0.55650  0.61070  0.34230  Biso   1.000  H
  C250     1.0000 0.60300  0.63170  0.31460  Biso   1.000  C
  H166     1.0000 0.59420  0.59590  0.28990  Biso   1.000  H
  C251     1.0000 0.72070  0.61270  0.80980  Biso   1.000  C
  H167     1.0000 0.74280  0.63390  0.82870  Biso   1.000  H
  C252     1.0000 0.46870  0.55420  0.40730  Biso   1.000  C
  H168     1.0000 0.47910  0.56120  0.38220  Biso   1.000  H
  I43      1.0000 0.23127  0.75378  0.79078  Biso   1.000  I
  I44      1.0000 0.11976  0.74255  0.55929  Biso   1.000  I
  I45      1.0000 0.12454  0.83618  0.69601  Biso   1.000  I
  I46      1.0000 0.02414  0.66392  0.63153  Biso   1.000  I
  I47      1.0000 0.85017  0.89784  0.50735  Biso   1.000  I
  I48      1.0000 0.89201  0.75830  0.39606  Biso   1.000  I
  Zn22     1.0000 0.08257  0.63064  0.59743  Biso   1.000  Zn
  Zn23     1.0000 0.16966  0.84787  0.77094  Biso   1.000  Zn
  Zn24     1.0000 0.87382  0.89896  0.43563  Biso   1.000  Zn
  N85      1.0000 0.13732  0.17250  0.31910  Biso   1.000  N
  N86      1.0000 0.18140  0.98630  0.78010  Biso   1.000  N
  N87      1.0000 0.22070  0.44810  0.77340  Biso   1.000  N
  N88      1.0000 0.06956  0.52090  0.55440  Biso   1.000  N
  N89      1.0000 0.12066  0.56040  0.64620  Biso   1.000  N
  N90      1.0000 0.23325  0.30810  0.81260  Biso   1.000  N
  N91      1.0000 0.92071  0.98670  0.44180  Biso   1.000  N
  N92      1.0000 0.17978  0.32090  0.75270  Biso   1.000  N
  N93      1.0000 0.33227  0.53230  0.89100  Biso   1.000  N
  C253     1.0000 0.15600  0.04520  0.75720  Biso   1.000  C
  H169     1.0000 0.13360  0.02220  0.73950  Biso   1.000  H
  N94      1.0000 0.03975  0.14600  0.41550  Biso   1.000  N
  N95      1.0000 0.07521  0.27890  0.44190  Biso   1.000  N
  C254     1.0000 0.01830  0.16150  0.44590  Biso   1.000  C
  C255     1.0000 0.24040  0.39600  0.80530  Biso   1.000  C
  N96      1.0000 0.02366  0.22860  0.47550  Biso   1.000  N
  C256     1.0000 0.15340  0.59650  0.66890  Biso   1.000  C
  H170     1.0000 0.16070  0.65490  0.66180  Biso   1.000  H
  C257     1.0000 0.27340  0.44150  0.83510  Biso   1.000  C
  C258     1.0000 0.16630  0.46190  0.71290  Biso   1.000  C
  C259     1.0000 0.03700  0.47100  0.55020  Biso   1.000  C
  H171     1.0000 0.01810  0.48900  0.56570  Biso   1.000  H
  C260     1.0000 0.19020  0.40670  0.74840  Biso   1.000  C
  C261     1.0000 0.93570  0.03260  0.47800  Biso   1.000  C
  H172     1.0000 0.92460  0.02540  0.50260  Biso   1.000  H
  C262     1.0000 0.20310  0.27330  0.78400  Biso   1.000  C
  C263     1.0000 0.19510  0.17370  0.78510  Biso   1.000  C
  C264     1.0000 0.17670  0.54930  0.70280  Biso   1.000  C
  H173     1.0000 0.19910  0.57610  0.71860  Biso   1.000  H
  C265     1.0000 0.98460  0.09970  0.44530  Biso   1.000  C
  C266     1.0000 0.09180  0.41830  0.50430  Biso   1.000  C
  H174     1.0000 0.11100  0.40130  0.48910  Biso   1.000  H
  C267     1.0000 0.14930  0.22500  0.35390  Biso   1.000  C
  H175     1.0000 0.17340  0.25320  0.35690  Biso   1.000  H
  C268     1.0000 0.16180  0.13910  0.75870  Biso   1.000  C
  H176     1.0000 0.14370  0.17810  0.74230  Biso   1.000  H
  C269     1.0000 0.93710  0.99810  0.40680  Biso   1.000  C
  H177     1.0000 0.92680  0.96690  0.38110  Biso   1.000  H
  C270     1.0000 0.05210  0.28710  0.47130  Biso   1.000  C
  C271     1.0000 0.96720  0.09050  0.48080  Biso   1.000  C
  H178     1.0000 0.97640  0.12290  0.50650  Biso   1.000  H
  C272     1.0000 0.06820  0.20710  0.41520  Biso   1.000  C
  C273     1.0000 0.21300  0.02060  0.80610  Biso   1.000  C
  H179     1.0000 0.23060  0.98020  0.82230  Biso   1.000  H
  C274     1.0000 0.09660  0.49460  0.53150  Biso   1.000  C
  H180     1.0000 0.11920  0.52890  0.53400  Biso   1.000  H
  C275     1.0000 0.28620  0.52520  0.82410  Biso   1.000  C
  H181     1.0000 0.27500  0.55270  0.79770  Biso   1.000  H
  C276     1.0000 0.11030  0.47660  0.65650  Biso   1.000  C
  H182     1.0000 0.08730  0.45210  0.64090  Biso   1.000  H
  C277     1.0000 0.05780  0.36790  0.50040  Biso   1.000  C
  C278     1.0000 0.32020  0.44980  0.90120  Biso   1.000  C
  H183     1.0000 0.33210  0.42370  0.92770  Biso   1.000  H
  C279     1.0000 0.29120  0.40140  0.87450  Biso   1.000  C
  H184     1.0000 0.28380  0.34380  0.88260  Biso   1.000  H
  C280     1.0000 0.09230  0.19540  0.38190  Biso   1.000  C
  C281     1.0000 0.03020  0.39450  0.52410  Biso   1.000  C
  H185     1.0000 0.00740  0.36130  0.52240  Biso   1.000  H
  C282     1.0000 0.12760  0.23970  0.38590  Biso   1.000  C
  H186     1.0000 0.13650  0.27840  0.40950  Biso   1.000  H
  C283     1.0000 0.13230  0.42490  0.68910  Biso   1.000  C
  H187     1.0000 0.12450  0.36620  0.69500  Biso   1.000  H
  C284     1.0000 0.31560  0.56840  0.85230  Biso   1.000  C
  H188     1.0000 0.32430  0.62470  0.84420  Biso   1.000  H
  C285     1.0000 0.08020  0.14110  0.34580  Biso   1.000  C
  H189     1.0000 0.05650  0.11070  0.34230  Biso   1.000  H
  C286     1.0000 0.10300  0.13170  0.31460  Biso   1.000  C
  H190     1.0000 0.09420  0.09590  0.28990  Biso   1.000  H
  C287     1.0000 0.22070  0.11270  0.80980  Biso   1.000  C
  H191     1.0000 0.24280  0.13390  0.82870  Biso   1.000  H
  C288     1.0000 0.96870  0.05420  0.40730  Biso   1.000  C
  H192     1.0000 0.97910  0.06120  0.38220  Biso   1.000  H
