data_image0
_cell_length_a       35.2839
_cell_length_b       15.1592
_cell_length_c       30.6904
_cell_angle_alpha    90
_cell_angle_beta     102.222
_cell_angle_gamma    90

_symmetry_space_group_name_H-M    "P 1"
_symmetry_int_tables_number       1

loop_
  _symmetry_equiv_pos_as_xyz
  'x, y, z'

loop_
  _atom_site_label
  _atom_site_occupancy
  _atom_site_fract_x
  _atom_site_fract_y
  _atom_site_fract_z
  _atom_site_thermal_displace_type
  _atom_site_B_iso_or_equiv
  _atom_site_type_symbol
  I1       1.0000 0.02400  0.35350  0.13801  Biso   1.000  I
  I2       1.0000 0.74293  0.72234  0.31375  Biso   1.000  I
  I3       1.0000 0.63609  0.67692  0.20766  Biso   1.000  I
  I4       1.0000 0.11335  0.26232  0.06256  Biso   1.000  I
  I5       1.0000 0.39677  0.27072  0.40304  Biso   1.000  I
  I6       1.0000 0.35444  0.41561  0.51082  Biso   1.000  I
  Zn1      1.0000 0.07791  0.38028  0.09608  Biso   1.000  Zn
  Zn2      1.0000 0.67982  0.64056  0.28314  Biso   1.000  Zn
  Zn3      1.0000 0.37568  0.41014  0.43697  Biso   1.000  Zn
  N1       1.0000 0.56292  0.02210  0.54892  Biso   1.000  N
  N2       1.0000 0.19017  0.00640  0.28250  Biso   1.000  N
  N3       1.0000 0.42052  0.49860  0.44000  Biso   1.000  N
  N4       1.0000 0.18222  0.68320  0.24840  Biso   1.000  N
  N5       1.0000 0.33322  0.47170  0.39080  Biso   1.000  N
  N6       1.0000 0.11788  0.45250  0.14130  Biso   1.000  N
  N7       1.0000 0.52028  0.73700  0.47046  Biso   1.000  N
  N8       1.0000 0.21936  0.55550  0.27180  Biso   1.000  N
  N9       1.0000 0.64498  0.65790  0.32870  Biso   1.000  N
  N10      1.0000 0.57349  0.78280  0.43976  Biso   1.000  N
  N11      1.0000 0.53745  0.65510  0.41146  Biso   1.000  N
  C1       1.0000 0.19011  0.59800  0.24570  Biso   1.000  C
  N12      1.0000 0.23802  0.69300  0.30710  Biso   1.000  N
  C2       1.0000 0.16516  0.54700  0.20950  Biso   1.000  C
  C3       1.0000 0.24208  0.60580  0.30250  Biso   1.000  C
  C4       1.0000 0.27399  0.56010  0.33350  Biso   1.000  C
  C5       1.0000 0.54889  0.79290  0.46680  Biso   1.000  C
  C6       1.0000 0.22160  0.96960  0.30600  Biso   1.000  C
  H1       1.0000 0.24000  0.00570  0.32360  Biso   1.000  H
  C7       1.0000 0.20784  0.72760  0.27900  Biso   1.000  C
  C8       1.0000 0.56663  0.71130  0.41320  Biso   1.000  C
  C9       1.0000 0.22860  0.88050  0.30580  Biso   1.000  C
  H2       1.0000 0.25140  0.85760  0.32280  Biso   1.000  H
  C10      1.0000 0.48231  0.61160  0.44080  Biso   1.000  C
  C11      1.0000 0.55318  0.87270  0.49510  Biso   1.000  C
  C12      1.0000 0.16400  0.95330  0.25760  Biso   1.000  C
  H3       1.0000 0.14150  0.97830  0.24090  Biso   1.000  H
  C13      1.0000 0.51525  0.67150  0.44110  Biso   1.000  C
  C14      1.0000 0.53375  0.96540  0.54940  Biso   1.000  C
  H4       1.0000 0.51700  0.97660  0.56830  Biso   1.000  H
  C15      1.0000 0.17200  0.45890  0.20240  Biso   1.000  C
  H5       1.0000 0.19270  0.42980  0.22050  Biso   1.000  H
  C16      1.0000 0.59367  0.69400  0.38350  Biso   1.000  C
  C17      1.0000 0.30960  0.42930  0.35750  Biso   1.000  C
  H6       1.0000 0.31350  0.36930  0.35400  Biso   1.000  H
  C18      1.0000 0.52770  0.89110  0.52280  Biso   1.000  C
  H7       1.0000 0.50690  0.85380  0.52350  Biso   1.000  H
  C19      1.0000 0.29860  0.60470  0.36700  Biso   1.000  C
  H8       1.0000 0.29610  0.66520  0.37070  Biso   1.000  H
  C20      1.0000 0.14800  0.41490  0.16840  Biso   1.000  C
  H9       1.0000 0.15310  0.35580  0.16400  Biso   1.000  H
  C21      1.0000 0.20140  0.82500  0.28050  Biso   1.000  C
  C22      1.0000 0.65510  0.71140  0.36380  Biso   1.000  C
  H10      1.0000 0.67970  0.73630  0.36960  Biso   1.000  H
  C23      1.0000 0.43840  0.53800  0.47750  Biso   1.000  C
  H11      1.0000 0.42990  0.52630  0.50360  Biso   1.000  H
  C24      1.0000 0.63030  0.73130  0.39180  Biso   1.000  C
  H12      1.0000 0.63810  0.76910  0.41590  Biso   1.000  H
  C25      1.0000 0.11180  0.53730  0.14810  Biso   1.000  C
  H13      1.0000 0.09100  0.56500  0.12950  Biso   1.000  H
  C26      1.0000 0.58630  0.00590  0.52120  Biso   1.000  C
  H14      1.0000 0.60600  0.04580  0.51990  Biso   1.000  H
  C27      1.0000 0.58290  0.63780  0.34660  Biso   1.000  C
  H15      1.0000 0.55850  0.61150  0.34020  Biso   1.000  H
  C28      1.0000 0.32750  0.55710  0.39510  Biso   1.000  C
  H16      1.0000 0.34380  0.58700  0.41820  Biso   1.000  H
  C29      1.0000 0.60930  0.62250  0.32030  Biso   1.000  C
  H17      1.0000 0.60200  0.58600  0.29550  Biso   1.000  H
  C30      1.0000 0.58250  0.93180  0.49400  Biso   1.000  C
  H18      1.0000 0.59970  0.92230  0.47530  Biso   1.000  H
  C31      1.0000 0.16870  0.86310  0.25540  Biso   1.000  C
  H19      1.0000 0.14990  0.82870  0.23720  Biso   1.000  H
  C32      1.0000 0.27990  0.47020  0.32830  Biso   1.000  C
  H20      1.0000 0.26410  0.43850  0.30560  Biso   1.000  H
  C33      1.0000 0.13460  0.58630  0.18100  Biso   1.000  C
  H21      1.0000 0.12940  0.64590  0.18400  Biso   1.000  H
  C34      1.0000 0.46910  0.59520  0.47930  Biso   1.000  C
  H22      1.0000 0.48060  0.62250  0.50590  Biso   1.000  H
  C35      1.0000 0.43270  0.51720  0.40200  Biso   1.000  C
  H23      1.0000 0.41970  0.49190  0.37540  Biso   1.000  H
  C36      1.0000 0.46340  0.57200  0.40140  Biso   1.000  C
  H24      1.0000 0.47140  0.58250  0.37490  Biso   1.000  H
  I7       1.0000 0.52400  0.85350  0.13801  Biso   1.000  I
  I8       1.0000 0.24293  0.22234  0.31375  Biso   1.000  I
  I9       1.0000 0.13609  0.17692  0.20766  Biso   1.000  I
  I10      1.0000 0.61335  0.76232  0.06256  Biso   1.000  I
  I11      1.0000 0.89677  0.77072  0.40304  Biso   1.000  I
  I12      1.0000 0.85444  0.91561  0.51082  Biso   1.000  I
  Zn4      1.0000 0.57791  0.88028  0.09608  Biso   1.000  Zn
  Zn5      1.0000 0.17982  0.14056  0.28314  Biso   1.000  Zn
  Zn6      1.0000 0.87568  0.91014  0.43697  Biso   1.000  Zn
  N13      1.0000 0.06292  0.52210  0.54892  Biso   1.000  N
  N14      1.0000 0.69017  0.50640  0.28250  Biso   1.000  N
  N15      1.0000 0.92052  0.99860  0.44000  Biso   1.000  N
  N16      1.0000 0.68222  0.18320  0.24840  Biso   1.000  N
  N17      1.0000 0.83322  0.97170  0.39080  Biso   1.000  N
  N18      1.0000 0.61788  0.95250  0.14130  Biso   1.000  N
  N19      1.0000 0.02028  0.23700  0.47046  Biso   1.000  N
  N20      1.0000 0.71936  0.05550  0.27180  Biso   1.000  N
  N21      1.0000 0.14498  0.15790  0.32870  Biso   1.000  N
  N22      1.0000 0.07349  0.28280  0.43976  Biso   1.000  N
  N23      1.0000 0.03745  0.15510  0.41146  Biso   1.000  N
  C37      1.0000 0.69011  0.09800  0.24570  Biso   1.000  C
  N24      1.0000 0.73802  0.19300  0.30710  Biso   1.000  N
  C38      1.0000 0.66516  0.04700  0.20950  Biso   1.000  C
  C39      1.0000 0.74208  0.10580  0.30250  Biso   1.000  C
  C40      1.0000 0.77399  0.06010  0.33350  Biso   1.000  C
  C41      1.0000 0.04889  0.29290  0.46680  Biso   1.000  C
  C42      1.0000 0.72160  0.46960  0.30600  Biso   1.000  C
  H25      1.0000 0.74000  0.50570  0.32360  Biso   1.000  H
  C43      1.0000 0.70784  0.22760  0.27900  Biso   1.000  C
  C44      1.0000 0.06663  0.21130  0.41320  Biso   1.000  C
  C45      1.0000 0.72860  0.38050  0.30580  Biso   1.000  C
  H26      1.0000 0.75140  0.35760  0.32280  Biso   1.000  H
  C46      1.0000 0.98231  0.11160  0.44080  Biso   1.000  C
  C47      1.0000 0.05318  0.37270  0.49510  Biso   1.000  C
  C48      1.0000 0.66400  0.45330  0.25760  Biso   1.000  C
  H27      1.0000 0.64150  0.47830  0.24090  Biso   1.000  H
  C49      1.0000 0.01525  0.17150  0.44110  Biso   1.000  C
  C50      1.0000 0.03375  0.46540  0.54940  Biso   1.000  C
  H28      1.0000 0.01700  0.47660  0.56830  Biso   1.000  H
  C51      1.0000 0.67200  0.95890  0.20240  Biso   1.000  C
  H29      1.0000 0.69270  0.92980  0.22050  Biso   1.000  H
  C52      1.0000 0.09367  0.19400  0.38350  Biso   1.000  C
  C53      1.0000 0.80960  0.92930  0.35750  Biso   1.000  C
  H30      1.0000 0.81350  0.86930  0.35400  Biso   1.000  H
  C54      1.0000 0.02770  0.39110  0.52280  Biso   1.000  C
  H31      1.0000 0.00690  0.35380  0.52350  Biso   1.000  H
  C55      1.0000 0.79860  0.10470  0.36700  Biso   1.000  C
  H32      1.0000 0.79610  0.16520  0.37070  Biso   1.000  H
  C56      1.0000 0.64800  0.91490  0.16840  Biso   1.000  C
  H33      1.0000 0.65310  0.85580  0.16400  Biso   1.000  H
  C57      1.0000 0.70140  0.32500  0.28050  Biso   1.000  C
  C58      1.0000 0.15510  0.21140  0.36380  Biso   1.000  C
  H34      1.0000 0.17970  0.23630  0.36960  Biso   1.000  H
  C59      1.0000 0.93840  0.03800  0.47750  Biso   1.000  C
  H35      1.0000 0.92990  0.02630  0.50360  Biso   1.000  H
  C60      1.0000 0.13030  0.23130  0.39180  Biso   1.000  C
  H36      1.0000 0.13810  0.26910  0.41590  Biso   1.000  H
  C61      1.0000 0.61180  0.03730  0.14810  Biso   1.000  C
  H37      1.0000 0.59100  0.06500  0.12950  Biso   1.000  H
  C62      1.0000 0.08630  0.50590  0.52120  Biso   1.000  C
  H38      1.0000 0.10600  0.54580  0.51990  Biso   1.000  H
  C63      1.0000 0.08290  0.13780  0.34660  Biso   1.000  C
  H39      1.0000 0.05850  0.11150  0.34020  Biso   1.000  H
  C64      1.0000 0.82750  0.05710  0.39510  Biso   1.000  C
  H40      1.0000 0.84380  0.08700  0.41820  Biso   1.000  H
  C65      1.0000 0.10930  0.12250  0.32030  Biso   1.000  C
  H41      1.0000 0.10200  0.08600  0.29550  Biso   1.000  H
  C66      1.0000 0.08250  0.43180  0.49400  Biso   1.000  C
  H42      1.0000 0.09970  0.42230  0.47530  Biso   1.000  H
  C67      1.0000 0.66870  0.36310  0.25540  Biso   1.000  C
  H43      1.0000 0.64990  0.32870  0.23720  Biso   1.000  H
  C68      1.0000 0.77990  0.97020  0.32830  Biso   1.000  C
  H44      1.0000 0.76410  0.93850  0.30560  Biso   1.000  H
  C69      1.0000 0.63460  0.08630  0.18100  Biso   1.000  C
  H45      1.0000 0.62940  0.14590  0.18400  Biso   1.000  H
  C70      1.0000 0.96910  0.09520  0.47930  Biso   1.000  C
  H46      1.0000 0.98060  0.12250  0.50590  Biso   1.000  H
  C71      1.0000 0.93270  0.01720  0.40200  Biso   1.000  C
  H47      1.0000 0.91970  0.99190  0.37540  Biso   1.000  H
  C72      1.0000 0.96340  0.07200  0.40140  Biso   1.000  C
  H48      1.0000 0.97140  0.08250  0.37490  Biso   1.000  H
  I13      1.0000 0.02400  0.64650  0.63801  Biso   1.000  I
  I14      1.0000 0.74293  0.27766  0.81375  Biso   1.000  I
  I15      1.0000 0.63609  0.32308  0.70766  Biso   1.000  I
  I16      1.0000 0.11335  0.73768  0.56256  Biso   1.000  I
  I17      1.0000 0.39677  0.72928  0.90304  Biso   1.000  I
  I18      1.0000 0.35444  0.58439  0.01082  Biso   1.000  I
  Zn7      1.0000 0.07791  0.61972  0.59608  Biso   1.000  Zn
  Zn8      1.0000 0.67982  0.35944  0.78314  Biso   1.000  Zn
  Zn9      1.0000 0.37568  0.58986  0.93697  Biso   1.000  Zn
  N25      1.0000 0.56292  0.97790  0.04892  Biso   1.000  N
  N26      1.0000 0.19017  0.99360  0.78250  Biso   1.000  N
  N27      1.0000 0.42052  0.50140  0.94000  Biso   1.000  N
  N28      1.0000 0.18222  0.31680  0.74840  Biso   1.000  N
  N29      1.0000 0.33322  0.52830  0.89080  Biso   1.000  N
  N30      1.0000 0.11788  0.54750  0.64130  Biso   1.000  N
  N31      1.0000 0.52028  0.26300  0.97046  Biso   1.000  N
  N32      1.0000 0.21936  0.44450  0.77180  Biso   1.000  N
  N33      1.0000 0.64498  0.34210  0.82870  Biso   1.000  N
  N34      1.0000 0.57349  0.21720  0.93976  Biso   1.000  N
  N35      1.0000 0.53745  0.34490  0.91146  Biso   1.000  N
  C73      1.0000 0.19011  0.40200  0.74570  Biso   1.000  C
  N36      1.0000 0.23802  0.30700  0.80710  Biso   1.000  N
  C74      1.0000 0.16516  0.45300  0.70950  Biso   1.000  C
  C75      1.0000 0.24208  0.39420  0.80250  Biso   1.000  C
  C76      1.0000 0.27399  0.43990  0.83350  Biso   1.000  C
  C77      1.0000 0.54889  0.20710  0.96680  Biso   1.000  C
  C78      1.0000 0.22160  0.03040  0.80600  Biso   1.000  C
  H49      1.0000 0.24000  0.99430  0.82360  Biso   1.000  H
  C79      1.0000 0.20784  0.27240  0.77900  Biso   1.000  C
  C80      1.0000 0.56663  0.28870  0.91320  Biso   1.000  C
  C81      1.0000 0.22860  0.11950  0.80580  Biso   1.000  C
  H50      1.0000 0.25140  0.14240  0.82280  Biso   1.000  H
  C82      1.0000 0.48231  0.38840  0.94080  Biso   1.000  C
  C83      1.0000 0.55318  0.12730  0.99510  Biso   1.000  C
  C84      1.0000 0.16400  0.04670  0.75760  Biso   1.000  C
  H51      1.0000 0.14150  0.02170  0.74090  Biso   1.000  H
  C85      1.0000 0.51525  0.32850  0.94110  Biso   1.000  C
  C86      1.0000 0.53375  0.03460  0.04940  Biso   1.000  C
  H52      1.0000 0.51700  0.02340  0.06830  Biso   1.000  H
  C87      1.0000 0.17200  0.54110  0.70240  Biso   1.000  C
  H53      1.0000 0.19270  0.57020  0.72050  Biso   1.000  H
  C88      1.0000 0.59367  0.30600  0.88350  Biso   1.000  C
  C89      1.0000 0.30960  0.57070  0.85750  Biso   1.000  C
  H54      1.0000 0.31350  0.63070  0.85400  Biso   1.000  H
  C90      1.0000 0.52770  0.10890  0.02280  Biso   1.000  C
  H55      1.0000 0.50690  0.14620  0.02350  Biso   1.000  H
  C91      1.0000 0.29860  0.39530  0.86700  Biso   1.000  C
  H56      1.0000 0.29610  0.33480  0.87070  Biso   1.000  H
  C92      1.0000 0.14800  0.58510  0.66840  Biso   1.000  C
  H57      1.0000 0.15310  0.64420  0.66400  Biso   1.000  H
  C93      1.0000 0.20140  0.17500  0.78050  Biso   1.000  C
  C94      1.0000 0.65510  0.28860  0.86380  Biso   1.000  C
  H58      1.0000 0.67970  0.26370  0.86960  Biso   1.000  H
  C95      1.0000 0.43840  0.46200  0.97750  Biso   1.000  C
  H59      1.0000 0.42990  0.47370  0.00360  Biso   1.000  H
  C96      1.0000 0.63030  0.26870  0.89180  Biso   1.000  C
  H60      1.0000 0.63810  0.23090  0.91590  Biso   1.000  H
  C97      1.0000 0.11180  0.46270  0.64810  Biso   1.000  C
  H61      1.0000 0.09100  0.43500  0.62950  Biso   1.000  H
  C98      1.0000 0.58630  0.99410  0.02120  Biso   1.000  C
  H62      1.0000 0.60600  0.95420  0.01990  Biso   1.000  H
  C99      1.0000 0.58290  0.36220  0.84660  Biso   1.000  C
  H63      1.0000 0.55850  0.38850  0.84020  Biso   1.000  H
  C100     1.0000 0.32750  0.44290  0.89510  Biso   1.000  C
  H64      1.0000 0.34380  0.41300  0.91820  Biso   1.000  H
  C101     1.0000 0.60930  0.37750  0.82030  Biso   1.000  C
  H65      1.0000 0.60200  0.41400  0.79550  Biso   1.000  H
  C102     1.0000 0.58250  0.06820  0.99400  Biso   1.000  C
  H66      1.0000 0.59970  0.07770  0.97530  Biso   1.000  H
  C103     1.0000 0.16870  0.13690  0.75540  Biso   1.000  C
  H67      1.0000 0.14990  0.17130  0.73720  Biso   1.000  H
  C104     1.0000 0.27990  0.52980  0.82830  Biso   1.000  C
  H68      1.0000 0.26410  0.56150  0.80560  Biso   1.000  H
  C105     1.0000 0.13460  0.41370  0.68100  Biso   1.000  C
  H69      1.0000 0.12940  0.35410  0.68400  Biso   1.000  H
  C106     1.0000 0.46910  0.40480  0.97930  Biso   1.000  C
  H70      1.0000 0.48060  0.37750  0.00590  Biso   1.000  H
  C107     1.0000 0.43270  0.48280  0.90200  Biso   1.000  C
  H71      1.0000 0.41970  0.50810  0.87540  Biso   1.000  H
  C108     1.0000 0.46340  0.42800  0.90140  Biso   1.000  C
  H72      1.0000 0.47140  0.41750  0.87490  Biso   1.000  H
  I19      1.0000 0.52400  0.14650  0.63801  Biso   1.000  I
  I20      1.0000 0.24293  0.77766  0.81375  Biso   1.000  I
  I21      1.0000 0.13609  0.82308  0.70766  Biso   1.000  I
  I22      1.0000 0.61335  0.23768  0.56256  Biso   1.000  I
  I23      1.0000 0.89677  0.22928  0.90304  Biso   1.000  I
  I24      1.0000 0.85444  0.08439  0.01082  Biso   1.000  I
  Zn10     1.0000 0.57791  0.11972  0.59608  Biso   1.000  Zn
  Zn11     1.0000 0.17982  0.85944  0.78314  Biso   1.000  Zn
  Zn12     1.0000 0.87568  0.08986  0.93697  Biso   1.000  Zn
  N37      1.0000 0.06292  0.47790  0.04892  Biso   1.000  N
  N38      1.0000 0.69017  0.49360  0.78250  Biso   1.000  N
  N39      1.0000 0.92052  0.00140  0.94000  Biso   1.000  N
  N40      1.0000 0.68222  0.81680  0.74840  Biso   1.000  N
  N41      1.0000 0.83322  0.02830  0.89080  Biso   1.000  N
  N42      1.0000 0.61788  0.04750  0.64130  Biso   1.000  N
  N43      1.0000 0.02028  0.76300  0.97046  Biso   1.000  N
  N44      1.0000 0.71936  0.94450  0.77180  Biso   1.000  N
  N45      1.0000 0.14498  0.84210  0.82870  Biso   1.000  N
  N46      1.0000 0.07349  0.71720  0.93976  Biso   1.000  N
  N47      1.0000 0.03745  0.84490  0.91146  Biso   1.000  N
  C109     1.0000 0.69011  0.90200  0.74570  Biso   1.000  C
  N48      1.0000 0.73802  0.80700  0.80710  Biso   1.000  N
  C110     1.0000 0.66516  0.95300  0.70950  Biso   1.000  C
  C111     1.0000 0.74208  0.89420  0.80250  Biso   1.000  C
  C112     1.0000 0.77399  0.93990  0.83350  Biso   1.000  C
  C113     1.0000 0.04889  0.70710  0.96680  Biso   1.000  C
  C114     1.0000 0.72160  0.53040  0.80600  Biso   1.000  C
  H73      1.0000 0.74000  0.49430  0.82360  Biso   1.000  H
  C115     1.0000 0.70784  0.77240  0.77900  Biso   1.000  C
  C116     1.0000 0.06663  0.78870  0.91320  Biso   1.000  C
  C117     1.0000 0.72860  0.61950  0.80580  Biso   1.000  C
  H74      1.0000 0.75140  0.64240  0.82280  Biso   1.000  H
  C118     1.0000 0.98231  0.88840  0.94080  Biso   1.000  C
  C119     1.0000 0.05318  0.62730  0.99510  Biso   1.000  C
  C120     1.0000 0.66400  0.54670  0.75760  Biso   1.000  C
  H75      1.0000 0.64150  0.52170  0.74090  Biso   1.000  H
  C121     1.0000 0.01525  0.82850  0.94110  Biso   1.000  C
  C122     1.0000 0.03375  0.53460  0.04940  Biso   1.000  C
  H76      1.0000 0.01700  0.52340  0.06830  Biso   1.000  H
  C123     1.0000 0.67200  0.04110  0.70240  Biso   1.000  C
  H77      1.0000 0.69270  0.07020  0.72050  Biso   1.000  H
  C124     1.0000 0.09367  0.80600  0.88350  Biso   1.000  C
  C125     1.0000 0.80960  0.07070  0.85750  Biso   1.000  C
  H78      1.0000 0.81350  0.13070  0.85400  Biso   1.000  H
  C126     1.0000 0.02770  0.60890  0.02280  Biso   1.000  C
  H79      1.0000 0.00690  0.64620  0.02350  Biso   1.000  H
  C127     1.0000 0.79860  0.89530  0.86700  Biso   1.000  C
  H80      1.0000 0.79610  0.83480  0.87070  Biso   1.000  H
  C128     1.0000 0.64800  0.08510  0.66840  Biso   1.000  C
  H81      1.0000 0.65310  0.14420  0.66400  Biso   1.000  H
  C129     1.0000 0.70140  0.67500  0.78050  Biso   1.000  C
  C130     1.0000 0.15510  0.78860  0.86380  Biso   1.000  C
  H82      1.0000 0.17970  0.76370  0.86960  Biso   1.000  H
  C131     1.0000 0.93840  0.96200  0.97750  Biso   1.000  C
  H83      1.0000 0.92990  0.97370  0.00360  Biso   1.000  H
  C132     1.0000 0.13030  0.76870  0.89180  Biso   1.000  C
  H84      1.0000 0.13810  0.73090  0.91590  Biso   1.000  H
  C133     1.0000 0.61180  0.96270  0.64810  Biso   1.000  C
  H85      1.0000 0.59100  0.93500  0.62950  Biso   1.000  H
  C134     1.0000 0.08630  0.49410  0.02120  Biso   1.000  C
  H86      1.0000 0.10600  0.45420  0.01990  Biso   1.000  H
  C135     1.0000 0.08290  0.86220  0.84660  Biso   1.000  C
  H87      1.0000 0.05850  0.88850  0.84020  Biso   1.000  H
  C136     1.0000 0.82750  0.94290  0.89510  Biso   1.000  C
  H88      1.0000 0.84380  0.91300  0.91820  Biso   1.000  H
  C137     1.0000 0.10930  0.87750  0.82030  Biso   1.000  C
  H89      1.0000 0.10200  0.91400  0.79550  Biso   1.000  H
  C138     1.0000 0.08250  0.56820  0.99400  Biso   1.000  C
  H90      1.0000 0.09970  0.57770  0.97530  Biso   1.000  H
  C139     1.0000 0.66870  0.63690  0.75540  Biso   1.000  C
  H91      1.0000 0.64990  0.67130  0.73720  Biso   1.000  H
  C140     1.0000 0.77990  0.02980  0.82830  Biso   1.000  C
  H92      1.0000 0.76410  0.06150  0.80560  Biso   1.000  H
  C141     1.0000 0.63460  0.91370  0.68100  Biso   1.000  C
  H93      1.0000 0.62940  0.85410  0.68400  Biso   1.000  H
  C142     1.0000 0.96910  0.90480  0.97930  Biso   1.000  C
  H94      1.0000 0.98060  0.87750  0.00590  Biso   1.000  H
  C143     1.0000 0.93270  0.98280  0.90200  Biso   1.000  C
  H95      1.0000 0.91970  0.00810  0.87540  Biso   1.000  H
  C144     1.0000 0.96340  0.92800  0.90140  Biso   1.000  C
  H96      1.0000 0.97140  0.91750  0.87490  Biso   1.000  H
  I25      1.0000 0.97600  0.35350  0.36199  Biso   1.000  I
  I26      1.0000 0.25707  0.72234  0.18625  Biso   1.000  I
  I27      1.0000 0.36391  0.67692  0.29234  Biso   1.000  I
  I28      1.0000 0.88665  0.26232  0.43744  Biso   1.000  I
  I29      1.0000 0.60323  0.27072  0.09696  Biso   1.000  I
  I30      1.0000 0.64556  0.41561  0.98918  Biso   1.000  I
  Zn13     1.0000 0.92209  0.38028  0.40392  Biso   1.000  Zn
  Zn14     1.0000 0.32018  0.64056  0.21686  Biso   1.000  Zn
  Zn15     1.0000 0.62432  0.41014  0.06303  Biso   1.000  Zn
  N49      1.0000 0.43708  0.02210  0.95108  Biso   1.000  N
  N50      1.0000 0.80983  0.00640  0.21750  Biso   1.000  N
  N51      1.0000 0.57948  0.49860  0.06000  Biso   1.000  N
  N52      1.0000 0.81778  0.68320  0.25160  Biso   1.000  N
  N53      1.0000 0.66678  0.47170  0.10920  Biso   1.000  N
  N54      1.0000 0.88212  0.45250  0.35870  Biso   1.000  N
  N55      1.0000 0.47972  0.73700  0.02954  Biso   1.000  N
  N56      1.0000 0.78064  0.55550  0.22820  Biso   1.000  N
  N57      1.0000 0.35502  0.65790  0.17130  Biso   1.000  N
  N58      1.0000 0.42651  0.78280  0.06024  Biso   1.000  N
  N59      1.0000 0.46255  0.65510  0.08854  Biso   1.000  N
  C145     1.0000 0.80989  0.59800  0.25430  Biso   1.000  C
  N60      1.0000 0.76198  0.69300  0.19290  Biso   1.000  N
  C146     1.0000 0.83484  0.54700  0.29050  Biso   1.000  C
  C147     1.0000 0.75792  0.60580  0.19750  Biso   1.000  C
  C148     1.0000 0.72601  0.56010  0.16650  Biso   1.000  C
  C149     1.0000 0.45111  0.79290  0.03320  Biso   1.000  C
  C150     1.0000 0.77840  0.96960  0.19400  Biso   1.000  C
  H97      1.0000 0.76000  0.00570  0.17640  Biso   1.000  H
  C151     1.0000 0.79216  0.72760  0.22100  Biso   1.000  C
  C152     1.0000 0.43337  0.71130  0.08680  Biso   1.000  C
  C153     1.0000 0.77140  0.88050  0.19420  Biso   1.000  C
  H98      1.0000 0.74860  0.85760  0.17720  Biso   1.000  H
  C154     1.0000 0.51769  0.61160  0.05920  Biso   1.000  C
  C155     1.0000 0.44682  0.87270  0.00490  Biso   1.000  C
  C156     1.0000 0.83600  0.95330  0.24240  Biso   1.000  C
  H99      1.0000 0.85850  0.97830  0.25910  Biso   1.000  H
  C157     1.0000 0.48475  0.67150  0.05890  Biso   1.000  C
  C158     1.0000 0.46625  0.96540  0.95060  Biso   1.000  C
  H100     1.0000 0.48300  0.97660  0.93170  Biso   1.000  H
  C159     1.0000 0.82800  0.45890  0.29760  Biso   1.000  C
  H101     1.0000 0.80730  0.42980  0.27950  Biso   1.000  H
  C160     1.0000 0.40633  0.69400  0.11650  Biso   1.000  C
  C161     1.0000 0.69040  0.42930  0.14250  Biso   1.000  C
  H102     1.0000 0.68650  0.36930  0.14600  Biso   1.000  H
  C162     1.0000 0.47230  0.89110  0.97720  Biso   1.000  C
  H103     1.0000 0.49310  0.85380  0.97650  Biso   1.000  H
  C163     1.0000 0.70140  0.60470  0.13300  Biso   1.000  C
  H104     1.0000 0.70390  0.66520  0.12930  Biso   1.000  H
  C164     1.0000 0.85200  0.41490  0.33160  Biso   1.000  C
  H105     1.0000 0.84690  0.35580  0.33600  Biso   1.000  H
  C165     1.0000 0.79860  0.82500  0.21950  Biso   1.000  C
  C166     1.0000 0.34490  0.71140  0.13620  Biso   1.000  C
  H106     1.0000 0.32030  0.73630  0.13040  Biso   1.000  H
  C167     1.0000 0.56160  0.53800  0.02250  Biso   1.000  C
  H107     1.0000 0.57010  0.52630  0.99640  Biso   1.000  H
  C168     1.0000 0.36970  0.73130  0.10820  Biso   1.000  C
  H108     1.0000 0.36190  0.76910  0.08410  Biso   1.000  H
  C169     1.0000 0.88820  0.53730  0.35190  Biso   1.000  C
  H109     1.0000 0.90900  0.56500  0.37050  Biso   1.000  H
  C170     1.0000 0.41370  0.00590  0.97880  Biso   1.000  C
  H110     1.0000 0.39400  0.04580  0.98010  Biso   1.000  H
  C171     1.0000 0.41710  0.63780  0.15340  Biso   1.000  C
  H111     1.0000 0.44150  0.61150  0.15980  Biso   1.000  H
  C172     1.0000 0.67250  0.55710  0.10490  Biso   1.000  C
  H112     1.0000 0.65620  0.58700  0.08180  Biso   1.000  H
  C173     1.0000 0.39070  0.62250  0.17970  Biso   1.000  C
  H113     1.0000 0.39800  0.58600  0.20450  Biso   1.000  H
  C174     1.0000 0.41750  0.93180  0.00600  Biso   1.000  C
  H114     1.0000 0.40030  0.92230  0.02470  Biso   1.000  H
  C175     1.0000 0.83130  0.86310  0.24460  Biso   1.000  C
  H115     1.0000 0.85010  0.82870  0.26280  Biso   1.000  H
  C176     1.0000 0.72010  0.47020  0.17170  Biso   1.000  C
  H116     1.0000 0.73590  0.43850  0.19440  Biso   1.000  H
  C177     1.0000 0.86540  0.58630  0.31900  Biso   1.000  C
  H117     1.0000 0.87060  0.64590  0.31600  Biso   1.000  H
  C178     1.0000 0.53090  0.59520  0.02070  Biso   1.000  C
  H118     1.0000 0.51940  0.62250  0.99410  Biso   1.000  H
  C179     1.0000 0.56730  0.51720  0.09800  Biso   1.000  C
  H119     1.0000 0.58030  0.49190  0.12460  Biso   1.000  H
  C180     1.0000 0.53660  0.57200  0.09860  Biso   1.000  C
  H120     1.0000 0.52860  0.58250  0.12510  Biso   1.000  H
  I31      1.0000 0.47600  0.85350  0.36199  Biso   1.000  I
  I32      1.0000 0.75707  0.22234  0.18625  Biso   1.000  I
  I33      1.0000 0.86391  0.17692  0.29234  Biso   1.000  I
  I34      1.0000 0.38665  0.76232  0.43744  Biso   1.000  I
  I35      1.0000 0.10323  0.77072  0.09696  Biso   1.000  I
  I36      1.0000 0.14556  0.91561  0.98918  Biso   1.000  I
  Zn16     1.0000 0.42209  0.88028  0.40392  Biso   1.000  Zn
  Zn17     1.0000 0.82018  0.14056  0.21686  Biso   1.000  Zn
  Zn18     1.0000 0.12432  0.91014  0.06303  Biso   1.000  Zn
  N61      1.0000 0.93708  0.52210  0.95108  Biso   1.000  N
  N62      1.0000 0.30983  0.50640  0.21750  Biso   1.000  N
  N63      1.0000 0.07948  0.99860  0.06000  Biso   1.000  N
  N64      1.0000 0.31778  0.18320  0.25160  Biso   1.000  N
  N65      1.0000 0.16678  0.97170  0.10920  Biso   1.000  N
  N66      1.0000 0.38212  0.95250  0.35870  Biso   1.000  N
  N67      1.0000 0.97972  0.23700  0.02954  Biso   1.000  N
  N68      1.0000 0.28064  0.05550  0.22820  Biso   1.000  N
  N69      1.0000 0.85502  0.15790  0.17130  Biso   1.000  N
  N70      1.0000 0.92651  0.28280  0.06024  Biso   1.000  N
  N71      1.0000 0.96255  0.15510  0.08854  Biso   1.000  N
  C181     1.0000 0.30989  0.09800  0.25430  Biso   1.000  C
  N72      1.0000 0.26198  0.19300  0.19290  Biso   1.000  N
  C182     1.0000 0.33484  0.04700  0.29050  Biso   1.000  C
  C183     1.0000 0.25792  0.10580  0.19750  Biso   1.000  C
  C184     1.0000 0.22601  0.06010  0.16650  Biso   1.000  C
  C185     1.0000 0.95111  0.29290  0.03320  Biso   1.000  C
  C186     1.0000 0.27840  0.46960  0.19400  Biso   1.000  C
  H121     1.0000 0.26000  0.50570  0.17640  Biso   1.000  H
  C187     1.0000 0.29216  0.22760  0.22100  Biso   1.000  C
  C188     1.0000 0.93337  0.21130  0.08680  Biso   1.000  C
  C189     1.0000 0.27140  0.38050  0.19420  Biso   1.000  C
  H122     1.0000 0.24860  0.35760  0.17720  Biso   1.000  H
  C190     1.0000 0.01769  0.11160  0.05920  Biso   1.000  C
  C191     1.0000 0.94682  0.37270  0.00490  Biso   1.000  C
  C192     1.0000 0.33600  0.45330  0.24240  Biso   1.000  C
  H123     1.0000 0.35850  0.47830  0.25910  Biso   1.000  H
  C193     1.0000 0.98475  0.17150  0.05890  Biso   1.000  C
  C194     1.0000 0.96625  0.46540  0.95060  Biso   1.000  C
  H124     1.0000 0.98300  0.47660  0.93170  Biso   1.000  H
  C195     1.0000 0.32800  0.95890  0.29760  Biso   1.000  C
  H125     1.0000 0.30730  0.92980  0.27950  Biso   1.000  H
  C196     1.0000 0.90633  0.19400  0.11650  Biso   1.000  C
  C197     1.0000 0.19040  0.92930  0.14250  Biso   1.000  C
  H126     1.0000 0.18650  0.86930  0.14600  Biso   1.000  H
  C198     1.0000 0.97230  0.39110  0.97720  Biso   1.000  C
  H127     1.0000 0.99310  0.35380  0.97650  Biso   1.000  H
  C199     1.0000 0.20140  0.10470  0.13300  Biso   1.000  C
  H128     1.0000 0.20390  0.16520  0.12930  Biso   1.000  H
  C200     1.0000 0.35200  0.91490  0.33160  Biso   1.000  C
  H129     1.0000 0.34690  0.85580  0.33600  Biso   1.000  H
  C201     1.0000 0.29860  0.32500  0.21950  Biso   1.000  C
  C202     1.0000 0.84490  0.21140  0.13620  Biso   1.000  C
  H130     1.0000 0.82030  0.23630  0.13040  Biso   1.000  H
  C203     1.0000 0.06160  0.03800  0.02250  Biso   1.000  C
  H131     1.0000 0.07010  0.02630  0.99640  Biso   1.000  H
  C204     1.0000 0.86970  0.23130  0.10820  Biso   1.000  C
  H132     1.0000 0.86190  0.26910  0.08410  Biso   1.000  H
  C205     1.0000 0.38820  0.03730  0.35190  Biso   1.000  C
  H133     1.0000 0.40900  0.06500  0.37050  Biso   1.000  H
  C206     1.0000 0.91370  0.50590  0.97880  Biso   1.000  C
  H134     1.0000 0.89400  0.54580  0.98010  Biso   1.000  H
  C207     1.0000 0.91710  0.13780  0.15340  Biso   1.000  C
  H135     1.0000 0.94150  0.11150  0.15980  Biso   1.000  H
  C208     1.0000 0.17250  0.05710  0.10490  Biso   1.000  C
  H136     1.0000 0.15620  0.08700  0.08180  Biso   1.000  H
  C209     1.0000 0.89070  0.12250  0.17970  Biso   1.000  C
  H137     1.0000 0.89800  0.08600  0.20450  Biso   1.000  H
  C210     1.0000 0.91750  0.43180  0.00600  Biso   1.000  C
  H138     1.0000 0.90030  0.42230  0.02470  Biso   1.000  H
  C211     1.0000 0.33130  0.36310  0.24460  Biso   1.000  C
  H139     1.0000 0.35010  0.32870  0.26280  Biso   1.000  H
  C212     1.0000 0.22010  0.97020  0.17170  Biso   1.000  C
  H140     1.0000 0.23590  0.93850  0.19440  Biso   1.000  H
  C213     1.0000 0.36540  0.08630  0.31900  Biso   1.000  C
  H141     1.0000 0.37060  0.14590  0.31600  Biso   1.000  H
  C214     1.0000 0.03090  0.09520  0.02070  Biso   1.000  C
  H142     1.0000 0.01940  0.12250  0.99410  Biso   1.000  H
  C215     1.0000 0.06730  0.01720  0.09800  Biso   1.000  C
  H143     1.0000 0.08030  0.99190  0.12460  Biso   1.000  H
  C216     1.0000 0.03660  0.07200  0.09860  Biso   1.000  C
  H144     1.0000 0.02860  0.08250  0.12510  Biso   1.000  H
  I37      1.0000 0.97600  0.64650  0.86199  Biso   1.000  I
  I38      1.0000 0.25707  0.27766  0.68625  Biso   1.000  I
  I39      1.0000 0.36391  0.32308  0.79234  Biso   1.000  I
  I40      1.0000 0.88665  0.73768  0.93744  Biso   1.000  I
  I41      1.0000 0.60323  0.72928  0.59696  Biso   1.000  I
  I42      1.0000 0.64556  0.58439  0.48918  Biso   1.000  I
  Zn19     1.0000 0.92209  0.61972  0.90392  Biso   1.000  Zn
  Zn20     1.0000 0.32018  0.35944  0.71686  Biso   1.000  Zn
  Zn21     1.0000 0.62432  0.58986  0.56303  Biso   1.000  Zn
  N73      1.0000 0.43708  0.97790  0.45108  Biso   1.000  N
  N74      1.0000 0.80983  0.99360  0.71750  Biso   1.000  N
  N75      1.0000 0.57948  0.50140  0.56000  Biso   1.000  N
  N76      1.0000 0.81778  0.31680  0.75160  Biso   1.000  N
  N77      1.0000 0.66678  0.52830  0.60920  Biso   1.000  N
  N78      1.0000 0.88212  0.54750  0.85870  Biso   1.000  N
  N79      1.0000 0.47972  0.26300  0.52954  Biso   1.000  N
  N80      1.0000 0.78064  0.44450  0.72820  Biso   1.000  N
  N81      1.0000 0.35502  0.34210  0.67130  Biso   1.000  N
  N82      1.0000 0.42651  0.21720  0.56024  Biso   1.000  N
  N83      1.0000 0.46255  0.34490  0.58854  Biso   1.000  N
  C217     1.0000 0.80989  0.40200  0.75430  Biso   1.000  C
  N84      1.0000 0.76198  0.30700  0.69290  Biso   1.000  N
  C218     1.0000 0.83484  0.45300  0.79050  Biso   1.000  C
  C219     1.0000 0.75792  0.39420  0.69750  Biso   1.000  C
  C220     1.0000 0.72601  0.43990  0.66650  Biso   1.000  C
  C221     1.0000 0.45111  0.20710  0.53320  Biso   1.000  C
  C222     1.0000 0.77840  0.03040  0.69400  Biso   1.000  C
  H145     1.0000 0.76000  0.99430  0.67640  Biso   1.000  H
  C223     1.0000 0.79216  0.27240  0.72100  Biso   1.000  C
  C224     1.0000 0.43337  0.28870  0.58680  Biso   1.000  C
  C225     1.0000 0.77140  0.11950  0.69420  Biso   1.000  C
  H146     1.0000 0.74860  0.14240  0.67720  Biso   1.000  H
  C226     1.0000 0.51769  0.38840  0.55920  Biso   1.000  C
  C227     1.0000 0.44682  0.12730  0.50490  Biso   1.000  C
  C228     1.0000 0.83600  0.04670  0.74240  Biso   1.000  C
  H147     1.0000 0.85850  0.02170  0.75910  Biso   1.000  H
  C229     1.0000 0.48475  0.32850  0.55890  Biso   1.000  C
  C230     1.0000 0.46625  0.03460  0.45060  Biso   1.000  C
  H148     1.0000 0.48300  0.02340  0.43170  Biso   1.000  H
  C231     1.0000 0.82800  0.54110  0.79760  Biso   1.000  C
  H149     1.0000 0.80730  0.57020  0.77950  Biso   1.000  H
  C232     1.0000 0.40633  0.30600  0.61650  Biso   1.000  C
  C233     1.0000 0.69040  0.57070  0.64250  Biso   1.000  C
  H150     1.0000 0.68650  0.63070  0.64600  Biso   1.000  H
  C234     1.0000 0.47230  0.10890  0.47720  Biso   1.000  C
  H151     1.0000 0.49310  0.14620  0.47650  Biso   1.000  H
  C235     1.0000 0.70140  0.39530  0.63300  Biso   1.000  C
  H152     1.0000 0.70390  0.33480  0.62930  Biso   1.000  H
  C236     1.0000 0.85200  0.58510  0.83160  Biso   1.000  C
  H153     1.0000 0.84690  0.64420  0.83600  Biso   1.000  H
  C237     1.0000 0.79860  0.17500  0.71950  Biso   1.000  C
  C238     1.0000 0.34490  0.28860  0.63620  Biso   1.000  C
  H154     1.0000 0.32030  0.26370  0.63040  Biso   1.000  H
  C239     1.0000 0.56160  0.46200  0.52250  Biso   1.000  C
  H155     1.0000 0.57010  0.47370  0.49640  Biso   1.000  H
  C240     1.0000 0.36970  0.26870  0.60820  Biso   1.000  C
  H156     1.0000 0.36190  0.23090  0.58410  Biso   1.000  H
  C241     1.0000 0.88820  0.46270  0.85190  Biso   1.000  C
  H157     1.0000 0.90900  0.43500  0.87050  Biso   1.000  H
  C242     1.0000 0.41370  0.99410  0.47880  Biso   1.000  C
  H158     1.0000 0.39400  0.95420  0.48010  Biso   1.000  H
  C243     1.0000 0.41710  0.36220  0.65340  Biso   1.000  C
  H159     1.0000 0.44150  0.38850  0.65980  Biso   1.000  H
  C244     1.0000 0.67250  0.44290  0.60490  Biso   1.000  C
  H160     1.0000 0.65620  0.41300  0.58180  Biso   1.000  H
  C245     1.0000 0.39070  0.37750  0.67970  Biso   1.000  C
  H161     1.0000 0.39800  0.41400  0.70450  Biso   1.000  H
  C246     1.0000 0.41750  0.06820  0.50600  Biso   1.000  C
  H162     1.0000 0.40030  0.07770  0.52470  Biso   1.000  H
  C247     1.0000 0.83130  0.13690  0.74460  Biso   1.000  C
  H163     1.0000 0.85010  0.17130  0.76280  Biso   1.000  H
  C248     1.0000 0.72010  0.52980  0.67170  Biso   1.000  C
  H164     1.0000 0.73590  0.56150  0.69440  Biso   1.000  H
  C249     1.0000 0.86540  0.41370  0.81900  Biso   1.000  C
  H165     1.0000 0.87060  0.35410  0.81600  Biso   1.000  H
  C250     1.0000 0.53090  0.40480  0.52070  Biso   1.000  C
  H166     1.0000 0.51940  0.37750  0.49410  Biso   1.000  H
  C251     1.0000 0.56730  0.48280  0.59800  Biso   1.000  C
  H167     1.0000 0.58030  0.50810  0.62460  Biso   1.000  H
  C252     1.0000 0.53660  0.42800  0.59860  Biso   1.000  C
  H168     1.0000 0.52860  0.41750  0.62510  Biso   1.000  H
  I43      1.0000 0.47600  0.14650  0.86199  Biso   1.000  I
  I44      1.0000 0.75707  0.77766  0.68625  Biso   1.000  I
  I45      1.0000 0.86391  0.82308  0.79234  Biso   1.000  I
  I46      1.0000 0.38665  0.23768  0.93744  Biso   1.000  I
  I47      1.0000 0.10323  0.22928  0.59696  Biso   1.000  I
  I48      1.0000 0.14556  0.08439  0.48918  Biso   1.000  I
  Zn22     1.0000 0.42209  0.11972  0.90392  Biso   1.000  Zn
  Zn23     1.0000 0.82018  0.85944  0.71686  Biso   1.000  Zn
  Zn24     1.0000 0.12432  0.08986  0.56303  Biso   1.000  Zn
  N85      1.0000 0.93708  0.47790  0.45108  Biso   1.000  N
  N86      1.0000 0.30983  0.49360  0.71750  Biso   1.000  N
  N87      1.0000 0.07948  0.00140  0.56000  Biso   1.000  N
  N88      1.0000 0.31778  0.81680  0.75160  Biso   1.000  N
  N89      1.0000 0.16678  0.02830  0.60920  Biso   1.000  N
  N90      1.0000 0.38212  0.04750  0.85870  Biso   1.000  N
  N91      1.0000 0.97972  0.76300  0.52954  Biso   1.000  N
  N92      1.0000 0.28064  0.94450  0.72820  Biso   1.000  N
  N93      1.0000 0.85502  0.84210  0.67130  Biso   1.000  N
  N94      1.0000 0.92651  0.71720  0.56024  Biso   1.000  N
  N95      1.0000 0.96255  0.84490  0.58854  Biso   1.000  N
  C253     1.0000 0.30989  0.90200  0.75430  Biso   1.000  C
  N96      1.0000 0.26198  0.80700  0.69290  Biso   1.000  N
  C254     1.0000 0.33484  0.95300  0.79050  Biso   1.000  C
  C255     1.0000 0.25792  0.89420  0.69750  Biso   1.000  C
  C256     1.0000 0.22601  0.93990  0.66650  Biso   1.000  C
  C257     1.0000 0.95111  0.70710  0.53320  Biso   1.000  C
  C258     1.0000 0.27840  0.53040  0.69400  Biso   1.000  C
  H169     1.0000 0.26000  0.49430  0.67640  Biso   1.000  H
  C259     1.0000 0.29216  0.77240  0.72100  Biso   1.000  C
  C260     1.0000 0.93337  0.78870  0.58680  Biso   1.000  C
  C261     1.0000 0.27140  0.61950  0.69420  Biso   1.000  C
  H170     1.0000 0.24860  0.64240  0.67720  Biso   1.000  H
  C262     1.0000 0.01769  0.88840  0.55920  Biso   1.000  C
  C263     1.0000 0.94682  0.62730  0.50490  Biso   1.000  C
  C264     1.0000 0.33600  0.54670  0.74240  Biso   1.000  C
  H171     1.0000 0.35850  0.52170  0.75910  Biso   1.000  H
  C265     1.0000 0.98475  0.82850  0.55890  Biso   1.000  C
  C266     1.0000 0.96625  0.53460  0.45060  Biso   1.000  C
  H172     1.0000 0.98300  0.52340  0.43170  Biso   1.000  H
  C267     1.0000 0.32800  0.04110  0.79760  Biso   1.000  C
  H173     1.0000 0.30730  0.07020  0.77950  Biso   1.000  H
  C268     1.0000 0.90633  0.80600  0.61650  Biso   1.000  C
  C269     1.0000 0.19040  0.07070  0.64250  Biso   1.000  C
  H174     1.0000 0.18650  0.13070  0.64600  Biso   1.000  H
  C270     1.0000 0.97230  0.60890  0.47720  Biso   1.000  C
  H175     1.0000 0.99310  0.64620  0.47650  Biso   1.000  H
  C271     1.0000 0.20140  0.89530  0.63300  Biso   1.000  C
  H176     1.0000 0.20390  0.83480  0.62930  Biso   1.000  H
  C272     1.0000 0.35200  0.08510  0.83160  Biso   1.000  C
  H177     1.0000 0.34690  0.14420  0.83600  Biso   1.000  H
  C273     1.0000 0.29860  0.67500  0.71950  Biso   1.000  C
  C274     1.0000 0.84490  0.78860  0.63620  Biso   1.000  C
  H178     1.0000 0.82030  0.76370  0.63040  Biso   1.000  H
  C275     1.0000 0.06160  0.96200  0.52250  Biso   1.000  C
  H179     1.0000 0.07010  0.97370  0.49640  Biso   1.000  H
  C276     1.0000 0.86970  0.76870  0.60820  Biso   1.000  C
  H180     1.0000 0.86190  0.73090  0.58410  Biso   1.000  H
  C277     1.0000 0.38820  0.96270  0.85190  Biso   1.000  C
  H181     1.0000 0.40900  0.93500  0.87050  Biso   1.000  H
  C278     1.0000 0.91370  0.49410  0.47880  Biso   1.000  C
  H182     1.0000 0.89400  0.45420  0.48010  Biso   1.000  H
  C279     1.0000 0.91710  0.86220  0.65340  Biso   1.000  C
  H183     1.0000 0.94150  0.88850  0.65980  Biso   1.000  H
  C280     1.0000 0.17250  0.94290  0.60490  Biso   1.000  C
  H184     1.0000 0.15620  0.91300  0.58180  Biso   1.000  H
  C281     1.0000 0.89070  0.87750  0.67970  Biso   1.000  C
  H185     1.0000 0.89800  0.91400  0.70450  Biso   1.000  H
  C282     1.0000 0.91750  0.56820  0.50600  Biso   1.000  C
  H186     1.0000 0.90030  0.57770  0.52470  Biso   1.000  H
  C283     1.0000 0.33130  0.63690  0.74460  Biso   1.000  C
  H187     1.0000 0.35010  0.67130  0.76280  Biso   1.000  H
  C284     1.0000 0.22010  0.02980  0.67170  Biso   1.000  C
  H188     1.0000 0.23590  0.06150  0.69440  Biso   1.000  H
  C285     1.0000 0.36540  0.91370  0.81900  Biso   1.000  C
  H189     1.0000 0.37060  0.85410  0.81600  Biso   1.000  H
  C286     1.0000 0.03090  0.90480  0.52070  Biso   1.000  C
  H190     1.0000 0.01940  0.87750  0.49410  Biso   1.000  H
  C287     1.0000 0.06730  0.98280  0.59800  Biso   1.000  C
  H191     1.0000 0.08030  0.00810  0.62460  Biso   1.000  H
  C288     1.0000 0.03660  0.92800  0.59860  Biso   1.000  C
  H192     1.0000 0.02860  0.91750  0.62510  Biso   1.000  H
