data_image0
_cell_length_a       34.5922
_cell_length_b       14.8141
_cell_length_c       31.4266
_cell_angle_alpha    90
_cell_angle_beta     100.79
_cell_angle_gamma    90

_symmetry_space_group_name_H-M    "P 1"
_symmetry_int_tables_number       1

loop_
  _symmetry_equiv_pos_as_xyz
  'x, y, z'

loop_
  _atom_site_label
  _atom_site_occupancy
  _atom_site_fract_x
  _atom_site_fract_y
  _atom_site_fract_z
  _atom_site_thermal_displace_type
  _atom_site_B_iso_or_equiv
  _atom_site_type_symbol
  I1       1.0000 0.26719  0.24108  0.20893  Biso   1.000  I
  I2       1.0000 0.37469  0.16549  0.30304  Biso   1.000  I
  I3       1.0000 0.10716  0.26522  0.10149  Biso   1.000  I
  I4       1.0000 0.47441  0.34155  0.37263  Biso   1.000  I
  I5       1.0000 0.14893  0.40061  0.99048  Biso   1.000  I
  I6       1.0000 0.37421  0.26523  0.43775  Biso   1.000  I
  Zn1      1.0000 0.12696  0.40554  0.06263  Biso   1.000  Zn
  Zn2      1.0000 0.41353  0.37847  0.40363  Biso   1.000  Zn
  Zn3      1.0000 0.32888  0.14701  0.22909  Biso   1.000  Zn
  N1       1.0000 0.31660  0.01020  0.22200  Biso   1.000  N
  N2       1.0000 0.26680  0.69140  0.18750  Biso   1.000  N
  C1       1.0000 0.31010  0.59490  0.25060  Biso   1.000  C
  N3       1.0000 0.42690  0.48340  0.44700  Biso   1.000  N
  N4       1.0000 0.42350  0.72190  0.55960  Biso   1.000  N
  C2       1.0000 0.26070  0.60560  0.19310  Biso   1.000  C
  N5       1.0000 0.37700  0.44850  0.35510  Biso   1.000  N
  C3       1.0000 0.51630  0.89430  0.55540  Biso   1.000  C
  N6       1.0000 0.47530  0.76930  0.52560  Biso   1.000  N
  N7       1.0000 0.32040  0.68020  0.24740  Biso   1.000  N
  N8       1.0000 0.58080  0.00690  0.55790  Biso   1.000  N
  C4       1.0000 0.28720  0.97630  0.19470  Biso   1.000  C
  H1       1.0000 0.27000  0.01650  0.17670  Biso   1.000  H
  C5       1.0000 0.29670  0.72750  0.21600  Biso   1.000  C
  C6       1.0000 0.44650  0.71230  0.53040  Biso   1.000  C
  N9       1.0000 0.16910  0.47150  0.10610  Biso   1.000  N
  C7       1.0000 0.33320  0.54260  0.28640  Biso   1.000  C
  C8       1.0000 0.35130  0.77320  0.65080  Biso   1.000  C
  H2       1.0000 0.32890  0.73630  0.65110  Biso   1.000  H
  C9       1.0000 0.44010  0.63230  0.50120  Biso   1.000  C
  N10      1.0000 0.45990  0.84990  0.58540  Biso   1.000  N
  C10      1.0000 0.56710  0.99110  0.59270  Biso   1.000  C
  H3       1.0000 0.57960  0.01860  0.61900  Biso   1.000  H
  N11      1.0000 0.27980  0.55310  0.22490  Biso   1.000  N
  C11      1.0000 0.40710  0.80610  0.61950  Biso   1.000  C
  C12      1.0000 0.34490  0.40920  0.33070  Biso   1.000  C
  H4       1.0000 0.33700  0.35090  0.33820  Biso   1.000  H
  C13      1.0000 0.30390  0.82420  0.21600  Biso   1.000  C
  C14      1.0000 0.48210  0.83480  0.55520  Biso   1.000  C
  N12      1.0000 0.36020  0.83330  0.68030  Biso   1.000  N
  C15      1.0000 0.36620  0.58060  0.31220  Biso   1.000  C
  H5       1.0000 0.37410  0.64040  0.30710  Biso   1.000  H
  C16      1.0000 0.43170  0.79270  0.58490  Biso   1.000  C
  C17      1.0000 0.22800  0.55900  0.16260  Biso   1.000  C
  C18      1.0000 0.34060  0.95170  0.24620  Biso   1.000  C
  H6       1.0000 0.36270  0.97530  0.26560  Biso   1.000  H
  C19      1.0000 0.32380  0.45250  0.29530  Biso   1.000  C
  H7       1.0000 0.30300  0.42220  0.27690  Biso   1.000  H
  C20      1.0000 0.37360  0.75970  0.61800  Biso   1.000  C
  H8       1.0000 0.36490  0.71840  0.59500  Biso   1.000  H
  C21      1.0000 0.46710  0.60460  0.47660  Biso   1.000  C
  H9       1.0000 0.49100  0.63750  0.47840  Biso   1.000  H
  C22      1.0000 0.56570  0.96090  0.52270  Biso   1.000  C
  H10      1.0000 0.57740  0.96750  0.49790  Biso   1.000  H
  C23      1.0000 0.27990  0.88480  0.19050  Biso   1.000  C
  H11      1.0000 0.25820  0.86360  0.16980  Biso   1.000  H
  C24      1.0000 0.46070  0.53260  0.45030  Biso   1.000  C
  H12      1.0000 0.47980  0.51580  0.43370  Biso   1.000  H
  C25      1.0000 0.18170  0.55240  0.09770  Biso   1.000  C
  H13      1.0000 0.17040  0.57880  0.07070  Biso   1.000  H
  C26      1.0000 0.39980  0.50860  0.47100  Biso   1.000  C
  H14      1.0000 0.37660  0.47370  0.46990  Biso   1.000  H
  C27      1.0000 0.33560  0.85990  0.24470  Biso   1.000  C
  H15      1.0000 0.35340  0.82150  0.26300  Biso   1.000  H
  C28      1.0000 0.18710  0.43350  0.14410  Biso   1.000  C
  H16      1.0000 0.17810  0.37630  0.15200  Biso   1.000  H
  C29      1.0000 0.38680  0.52990  0.34500  Biso   1.000  C
  H17      1.0000 0.41000  0.55540  0.36160  Biso   1.000  H
  C30      1.0000 0.40580  0.58450  0.49710  Biso   1.000  C
  H18      1.0000 0.38590  0.60350  0.51220  Biso   1.000  H
  C31      1.0000 0.21050  0.60290  0.12530  Biso   1.000  C
  H19      1.0000 0.21730  0.66270  0.11870  Biso   1.000  H
  C32      1.0000 0.21650  0.47310  0.17060  Biso   1.000  C
  H20      1.0000 0.22990  0.44160  0.19540  Biso   1.000  H
  C33      1.0000 0.53380  0.90380  0.52010  Biso   1.000  C
  H21      1.0000 0.52420  0.87150  0.49410  Biso   1.000  H
  C34      1.0000 0.53450  0.93480  0.59340  Biso   1.000  C
  H22      1.0000 0.52520  0.92490  0.61960  Biso   1.000  H
  C35      1.0000 0.39110  0.88340  0.67800  Biso   1.000  C
  H23      1.0000 0.39640  0.93250  0.69760  Biso   1.000  H
  C36      1.0000 0.41520  0.87140  0.65090  Biso   1.000  C
  H24      1.0000 0.43810  0.90780  0.65290  Biso   1.000  H
  H25      1.0000 0.48880  0.76400  0.50460  Biso   1.000  H
  H26      1.0000 0.27330  0.49660  0.22870  Biso   1.000  H
  I7       1.0000 0.76719  0.74108  0.20893  Biso   1.000  I
  I8       1.0000 0.87469  0.66549  0.30304  Biso   1.000  I
  I9       1.0000 0.60716  0.76522  0.10149  Biso   1.000  I
  I10      1.0000 0.97441  0.84155  0.37263  Biso   1.000  I
  I11      1.0000 0.64893  0.90061  0.99048  Biso   1.000  I
  I12      1.0000 0.87421  0.76523  0.43775  Biso   1.000  I
  Zn4      1.0000 0.62696  0.90554  0.06263  Biso   1.000  Zn
  Zn5      1.0000 0.91353  0.87847  0.40363  Biso   1.000  Zn
  Zn6      1.0000 0.82888  0.64701  0.22909  Biso   1.000  Zn
  N13      1.0000 0.81660  0.51020  0.22200  Biso   1.000  N
  N14      1.0000 0.76680  0.19140  0.18750  Biso   1.000  N
  C37      1.0000 0.81010  0.09490  0.25060  Biso   1.000  C
  N15      1.0000 0.92690  0.98340  0.44700  Biso   1.000  N
  N16      1.0000 0.92350  0.22190  0.55960  Biso   1.000  N
  C38      1.0000 0.76070  0.10560  0.19310  Biso   1.000  C
  N17      1.0000 0.87700  0.94850  0.35510  Biso   1.000  N
  C39      1.0000 0.01630  0.39430  0.55540  Biso   1.000  C
  N18      1.0000 0.97530  0.26930  0.52560  Biso   1.000  N
  N19      1.0000 0.82040  0.18020  0.24740  Biso   1.000  N
  N20      1.0000 0.08080  0.50690  0.55790  Biso   1.000  N
  C40      1.0000 0.78720  0.47630  0.19470  Biso   1.000  C
  H27      1.0000 0.77000  0.51650  0.17670  Biso   1.000  H
  C41      1.0000 0.79670  0.22750  0.21600  Biso   1.000  C
  C42      1.0000 0.94650  0.21230  0.53040  Biso   1.000  C
  N21      1.0000 0.66910  0.97150  0.10610  Biso   1.000  N
  C43      1.0000 0.83320  0.04260  0.28640  Biso   1.000  C
  C44      1.0000 0.85130  0.27320  0.65080  Biso   1.000  C
  H28      1.0000 0.82890  0.23630  0.65110  Biso   1.000  H
  C45      1.0000 0.94010  0.13230  0.50120  Biso   1.000  C
  N22      1.0000 0.95990  0.34990  0.58540  Biso   1.000  N
  C46      1.0000 0.06710  0.49110  0.59270  Biso   1.000  C
  H29      1.0000 0.07960  0.51860  0.61900  Biso   1.000  H
  N23      1.0000 0.77980  0.05310  0.22490  Biso   1.000  N
  C47      1.0000 0.90710  0.30610  0.61950  Biso   1.000  C
  C48      1.0000 0.84490  0.90920  0.33070  Biso   1.000  C
  H30      1.0000 0.83700  0.85090  0.33820  Biso   1.000  H
  C49      1.0000 0.80390  0.32420  0.21600  Biso   1.000  C
  C50      1.0000 0.98210  0.33480  0.55520  Biso   1.000  C
  N24      1.0000 0.86020  0.33330  0.68030  Biso   1.000  N
  C51      1.0000 0.86620  0.08060  0.31220  Biso   1.000  C
  H31      1.0000 0.87410  0.14040  0.30710  Biso   1.000  H
  C52      1.0000 0.93170  0.29270  0.58490  Biso   1.000  C
  C53      1.0000 0.72800  0.05900  0.16260  Biso   1.000  C
  C54      1.0000 0.84060  0.45170  0.24620  Biso   1.000  C
  H32      1.0000 0.86270  0.47530  0.26560  Biso   1.000  H
  C55      1.0000 0.82380  0.95250  0.29530  Biso   1.000  C
  H33      1.0000 0.80300  0.92220  0.27690  Biso   1.000  H
  C56      1.0000 0.87360  0.25970  0.61800  Biso   1.000  C
  H34      1.0000 0.86490  0.21840  0.59500  Biso   1.000  H
  C57      1.0000 0.96710  0.10460  0.47660  Biso   1.000  C
  H35      1.0000 0.99100  0.13750  0.47840  Biso   1.000  H
  C58      1.0000 0.06570  0.46090  0.52270  Biso   1.000  C
  H36      1.0000 0.07740  0.46750  0.49790  Biso   1.000  H
  C59      1.0000 0.77990  0.38480  0.19050  Biso   1.000  C
  H37      1.0000 0.75820  0.36360  0.16980  Biso   1.000  H
  C60      1.0000 0.96070  0.03260  0.45030  Biso   1.000  C
  H38      1.0000 0.97980  0.01580  0.43370  Biso   1.000  H
  C61      1.0000 0.68170  0.05240  0.09770  Biso   1.000  C
  H39      1.0000 0.67040  0.07880  0.07070  Biso   1.000  H
  C62      1.0000 0.89980  0.00860  0.47100  Biso   1.000  C
  H40      1.0000 0.87660  0.97370  0.46990  Biso   1.000  H
  C63      1.0000 0.83560  0.35990  0.24470  Biso   1.000  C
  H41      1.0000 0.85340  0.32150  0.26300  Biso   1.000  H
  C64      1.0000 0.68710  0.93350  0.14410  Biso   1.000  C
  H42      1.0000 0.67810  0.87630  0.15200  Biso   1.000  H
  C65      1.0000 0.88680  0.02990  0.34500  Biso   1.000  C
  H43      1.0000 0.91000  0.05540  0.36160  Biso   1.000  H
  C66      1.0000 0.90580  0.08450  0.49710  Biso   1.000  C
  H44      1.0000 0.88590  0.10350  0.51220  Biso   1.000  H
  C67      1.0000 0.71050  0.10290  0.12530  Biso   1.000  C
  H45      1.0000 0.71730  0.16270  0.11870  Biso   1.000  H
  C68      1.0000 0.71650  0.97310  0.17060  Biso   1.000  C
  H46      1.0000 0.72990  0.94160  0.19540  Biso   1.000  H
  C69      1.0000 0.03380  0.40380  0.52010  Biso   1.000  C
  H47      1.0000 0.02420  0.37150  0.49410  Biso   1.000  H
  C70      1.0000 0.03450  0.43480  0.59340  Biso   1.000  C
  H48      1.0000 0.02520  0.42490  0.61960  Biso   1.000  H
  C71      1.0000 0.89110  0.38340  0.67800  Biso   1.000  C
  H49      1.0000 0.89640  0.43250  0.69760  Biso   1.000  H
  C72      1.0000 0.91520  0.37140  0.65090  Biso   1.000  C
  H50      1.0000 0.93810  0.40780  0.65290  Biso   1.000  H
  H51      1.0000 0.98880  0.26400  0.50460  Biso   1.000  H
  H52      1.0000 0.77330  0.99660  0.22870  Biso   1.000  H
  I13      1.0000 0.26719  0.75892  0.70893  Biso   1.000  I
  I14      1.0000 0.37469  0.83451  0.80304  Biso   1.000  I
  I15      1.0000 0.10716  0.73478  0.60149  Biso   1.000  I
  I16      1.0000 0.47441  0.65845  0.87263  Biso   1.000  I
  I17      1.0000 0.14893  0.59939  0.49048  Biso   1.000  I
  I18      1.0000 0.37421  0.73477  0.93775  Biso   1.000  I
  Zn7      1.0000 0.12696  0.59446  0.56263  Biso   1.000  Zn
  Zn8      1.0000 0.41353  0.62153  0.90363  Biso   1.000  Zn
  Zn9      1.0000 0.32888  0.85299  0.72909  Biso   1.000  Zn
  N25      1.0000 0.31660  0.98980  0.72200  Biso   1.000  N
  N26      1.0000 0.26680  0.30860  0.68750  Biso   1.000  N
  C73      1.0000 0.31010  0.40510  0.75060  Biso   1.000  C
  N27      1.0000 0.42690  0.51660  0.94700  Biso   1.000  N
  N28      1.0000 0.42350  0.27810  0.05960  Biso   1.000  N
  C74      1.0000 0.26070  0.39440  0.69310  Biso   1.000  C
  N29      1.0000 0.37700  0.55150  0.85510  Biso   1.000  N
  C75      1.0000 0.51630  0.10570  0.05540  Biso   1.000  C
  N30      1.0000 0.47530  0.23070  0.02560  Biso   1.000  N
  N31      1.0000 0.32040  0.31980  0.74740  Biso   1.000  N
  N32      1.0000 0.58080  0.99310  0.05790  Biso   1.000  N
  C76      1.0000 0.28720  0.02370  0.69470  Biso   1.000  C
  H53      1.0000 0.27000  0.98350  0.67670  Biso   1.000  H
  C77      1.0000 0.29670  0.27250  0.71600  Biso   1.000  C
  C78      1.0000 0.44650  0.28770  0.03040  Biso   1.000  C
  N33      1.0000 0.16910  0.52850  0.60610  Biso   1.000  N
  C79      1.0000 0.33320  0.45740  0.78640  Biso   1.000  C
  C80      1.0000 0.35130  0.22680  0.15080  Biso   1.000  C
  H54      1.0000 0.32890  0.26370  0.15110  Biso   1.000  H
  C81      1.0000 0.44010  0.36770  0.00120  Biso   1.000  C
  N34      1.0000 0.45990  0.15010  0.08540  Biso   1.000  N
  C82      1.0000 0.56710  0.00890  0.09270  Biso   1.000  C
  H55      1.0000 0.57960  0.98140  0.11900  Biso   1.000  H
  N35      1.0000 0.27980  0.44690  0.72490  Biso   1.000  N
  C83      1.0000 0.40710  0.19390  0.11950  Biso   1.000  C
  C84      1.0000 0.34490  0.59080  0.83070  Biso   1.000  C
  H56      1.0000 0.33700  0.64910  0.83820  Biso   1.000  H
  C85      1.0000 0.30390  0.17580  0.71600  Biso   1.000  C
  C86      1.0000 0.48210  0.16520  0.05520  Biso   1.000  C
  N36      1.0000 0.36020  0.16670  0.18030  Biso   1.000  N
  C87      1.0000 0.36620  0.41940  0.81220  Biso   1.000  C
  H57      1.0000 0.37410  0.35960  0.80710  Biso   1.000  H
  C88      1.0000 0.43170  0.20730  0.08490  Biso   1.000  C
  C89      1.0000 0.22800  0.44100  0.66260  Biso   1.000  C
  C90      1.0000 0.34060  0.04830  0.74620  Biso   1.000  C
  H58      1.0000 0.36270  0.02470  0.76560  Biso   1.000  H
  C91      1.0000 0.32380  0.54750  0.79530  Biso   1.000  C
  H59      1.0000 0.30300  0.57780  0.77690  Biso   1.000  H
  C92      1.0000 0.37360  0.24030  0.11800  Biso   1.000  C
  H60      1.0000 0.36490  0.28160  0.09500  Biso   1.000  H
  C93      1.0000 0.46710  0.39540  0.97660  Biso   1.000  C
  H61      1.0000 0.49100  0.36250  0.97840  Biso   1.000  H
  C94      1.0000 0.56570  0.03910  0.02270  Biso   1.000  C
  H62      1.0000 0.57740  0.03250  0.99790  Biso   1.000  H
  C95      1.0000 0.27990  0.11520  0.69050  Biso   1.000  C
  H63      1.0000 0.25820  0.13640  0.66980  Biso   1.000  H
  C96      1.0000 0.46070  0.46740  0.95030  Biso   1.000  C
  H64      1.0000 0.47980  0.48420  0.93370  Biso   1.000  H
  C97      1.0000 0.18170  0.44760  0.59770  Biso   1.000  C
  H65      1.0000 0.17040  0.42120  0.57070  Biso   1.000  H
  C98      1.0000 0.39980  0.49140  0.97100  Biso   1.000  C
  H66      1.0000 0.37660  0.52630  0.96990  Biso   1.000  H
  C99      1.0000 0.33560  0.14010  0.74470  Biso   1.000  C
  H67      1.0000 0.35340  0.17850  0.76300  Biso   1.000  H
  C100     1.0000 0.18710  0.56650  0.64410  Biso   1.000  C
  H68      1.0000 0.17810  0.62370  0.65200  Biso   1.000  H
  C101     1.0000 0.38680  0.47010  0.84500  Biso   1.000  C
  H69      1.0000 0.41000  0.44460  0.86160  Biso   1.000  H
  C102     1.0000 0.40580  0.41550  0.99710  Biso   1.000  C
  H70      1.0000 0.38590  0.39650  0.01220  Biso   1.000  H
  C103     1.0000 0.21050  0.39710  0.62530  Biso   1.000  C
  H71      1.0000 0.21730  0.33730  0.61870  Biso   1.000  H
  C104     1.0000 0.21650  0.52690  0.67060  Biso   1.000  C
  H72      1.0000 0.22990  0.55840  0.69540  Biso   1.000  H
  C105     1.0000 0.53380  0.09620  0.02010  Biso   1.000  C
  H73      1.0000 0.52420  0.12850  0.99410  Biso   1.000  H
  C106     1.0000 0.53450  0.06520  0.09340  Biso   1.000  C
  H74      1.0000 0.52520  0.07510  0.11960  Biso   1.000  H
  C107     1.0000 0.39110  0.11660  0.17800  Biso   1.000  C
  H75      1.0000 0.39640  0.06750  0.19760  Biso   1.000  H
  C108     1.0000 0.41520  0.12860  0.15090  Biso   1.000  C
  H76      1.0000 0.43810  0.09220  0.15290  Biso   1.000  H
  H77      1.0000 0.48880  0.23600  0.00460  Biso   1.000  H
  H78      1.0000 0.27330  0.50340  0.72870  Biso   1.000  H
  I19      1.0000 0.76719  0.25892  0.70893  Biso   1.000  I
  I20      1.0000 0.87469  0.33451  0.80304  Biso   1.000  I
  I21      1.0000 0.60716  0.23478  0.60149  Biso   1.000  I
  I22      1.0000 0.97441  0.15845  0.87263  Biso   1.000  I
  I23      1.0000 0.64893  0.09939  0.49048  Biso   1.000  I
  I24      1.0000 0.87421  0.23477  0.93775  Biso   1.000  I
  Zn10     1.0000 0.62696  0.09446  0.56263  Biso   1.000  Zn
  Zn11     1.0000 0.91353  0.12153  0.90363  Biso   1.000  Zn
  Zn12     1.0000 0.82888  0.35299  0.72909  Biso   1.000  Zn
  N37      1.0000 0.81660  0.48980  0.72200  Biso   1.000  N
  N38      1.0000 0.76680  0.80860  0.68750  Biso   1.000  N
  C109     1.0000 0.81010  0.90510  0.75060  Biso   1.000  C
  N39      1.0000 0.92690  0.01660  0.94700  Biso   1.000  N
  N40      1.0000 0.92350  0.77810  0.05960  Biso   1.000  N
  C110     1.0000 0.76070  0.89440  0.69310  Biso   1.000  C
  N41      1.0000 0.87700  0.05150  0.85510  Biso   1.000  N
  C111     1.0000 0.01630  0.60570  0.05540  Biso   1.000  C
  N42      1.0000 0.97530  0.73070  0.02560  Biso   1.000  N
  N43      1.0000 0.82040  0.81980  0.74740  Biso   1.000  N
  N44      1.0000 0.08080  0.49310  0.05790  Biso   1.000  N
  C112     1.0000 0.78720  0.52370  0.69470  Biso   1.000  C
  H79      1.0000 0.77000  0.48350  0.67670  Biso   1.000  H
  C113     1.0000 0.79670  0.77250  0.71600  Biso   1.000  C
  C114     1.0000 0.94650  0.78770  0.03040  Biso   1.000  C
  N45      1.0000 0.66910  0.02850  0.60610  Biso   1.000  N
  C115     1.0000 0.83320  0.95740  0.78640  Biso   1.000  C
  C116     1.0000 0.85130  0.72680  0.15080  Biso   1.000  C
  H80      1.0000 0.82890  0.76370  0.15110  Biso   1.000  H
  C117     1.0000 0.94010  0.86770  0.00120  Biso   1.000  C
  N46      1.0000 0.95990  0.65010  0.08540  Biso   1.000  N
  C118     1.0000 0.06710  0.50890  0.09270  Biso   1.000  C
  H81      1.0000 0.07960  0.48140  0.11900  Biso   1.000  H
  N47      1.0000 0.77980  0.94690  0.72490  Biso   1.000  N
  C119     1.0000 0.90710  0.69390  0.11950  Biso   1.000  C
  C120     1.0000 0.84490  0.09080  0.83070  Biso   1.000  C
  H82      1.0000 0.83700  0.14910  0.83820  Biso   1.000  H
  C121     1.0000 0.80390  0.67580  0.71600  Biso   1.000  C
  C122     1.0000 0.98210  0.66520  0.05520  Biso   1.000  C
  N48      1.0000 0.86020  0.66670  0.18030  Biso   1.000  N
  C123     1.0000 0.86620  0.91940  0.81220  Biso   1.000  C
  H83      1.0000 0.87410  0.85960  0.80710  Biso   1.000  H
  C124     1.0000 0.93170  0.70730  0.08490  Biso   1.000  C
  C125     1.0000 0.72800  0.94100  0.66260  Biso   1.000  C
  C126     1.0000 0.84060  0.54830  0.74620  Biso   1.000  C
  H84      1.0000 0.86270  0.52470  0.76560  Biso   1.000  H
  C127     1.0000 0.82380  0.04750  0.79530  Biso   1.000  C
  H85      1.0000 0.80300  0.07780  0.77690  Biso   1.000  H
  C128     1.0000 0.87360  0.74030  0.11800  Biso   1.000  C
  H86      1.0000 0.86490  0.78160  0.09500  Biso   1.000  H
  C129     1.0000 0.96710  0.89540  0.97660  Biso   1.000  C
  H87      1.0000 0.99100  0.86250  0.97840  Biso   1.000  H
  C130     1.0000 0.06570  0.53910  0.02270  Biso   1.000  C
  H88      1.0000 0.07740  0.53250  0.99790  Biso   1.000  H
  C131     1.0000 0.77990  0.61520  0.69050  Biso   1.000  C
  H89      1.0000 0.75820  0.63640  0.66980  Biso   1.000  H
  C132     1.0000 0.96070  0.96740  0.95030  Biso   1.000  C
  H90      1.0000 0.97980  0.98420  0.93370  Biso   1.000  H
  C133     1.0000 0.68170  0.94760  0.59770  Biso   1.000  C
  H91      1.0000 0.67040  0.92120  0.57070  Biso   1.000  H
  C134     1.0000 0.89980  0.99140  0.97100  Biso   1.000  C
  H92      1.0000 0.87660  0.02630  0.96990  Biso   1.000  H
  C135     1.0000 0.83560  0.64010  0.74470  Biso   1.000  C
  H93      1.0000 0.85340  0.67850  0.76300  Biso   1.000  H
  C136     1.0000 0.68710  0.06650  0.64410  Biso   1.000  C
  H94      1.0000 0.67810  0.12370  0.65200  Biso   1.000  H
  C137     1.0000 0.88680  0.97010  0.84500  Biso   1.000  C
  H95      1.0000 0.91000  0.94460  0.86160  Biso   1.000  H
  C138     1.0000 0.90580  0.91550  0.99710  Biso   1.000  C
  H96      1.0000 0.88590  0.89650  0.01220  Biso   1.000  H
  C139     1.0000 0.71050  0.89710  0.62530  Biso   1.000  C
  H97      1.0000 0.71730  0.83730  0.61870  Biso   1.000  H
  C140     1.0000 0.71650  0.02690  0.67060  Biso   1.000  C
  H98      1.0000 0.72990  0.05840  0.69540  Biso   1.000  H
  C141     1.0000 0.03380  0.59620  0.02010  Biso   1.000  C
  H99      1.0000 0.02420  0.62850  0.99410  Biso   1.000  H
  C142     1.0000 0.03450  0.56520  0.09340  Biso   1.000  C
  H100     1.0000 0.02520  0.57510  0.11960  Biso   1.000  H
  C143     1.0000 0.89110  0.61660  0.17800  Biso   1.000  C
  H101     1.0000 0.89640  0.56750  0.19760  Biso   1.000  H
  C144     1.0000 0.91520  0.62860  0.15090  Biso   1.000  C
  H102     1.0000 0.93810  0.59220  0.15290  Biso   1.000  H
  H103     1.0000 0.98880  0.73600  0.00460  Biso   1.000  H
  H104     1.0000 0.77330  0.00340  0.72870  Biso   1.000  H
  I25      1.0000 0.73281  0.24108  0.29107  Biso   1.000  I
  I26      1.0000 0.62531  0.16549  0.19696  Biso   1.000  I
  I27      1.0000 0.89284  0.26522  0.39851  Biso   1.000  I
  I28      1.0000 0.52559  0.34155  0.12737  Biso   1.000  I
  I29      1.0000 0.85107  0.40061  0.50952  Biso   1.000  I
  I30      1.0000 0.62579  0.26523  0.06225  Biso   1.000  I
  Zn13     1.0000 0.87304  0.40554  0.43737  Biso   1.000  Zn
  Zn14     1.0000 0.58647  0.37847  0.09637  Biso   1.000  Zn
  Zn15     1.0000 0.67112  0.14701  0.27091  Biso   1.000  Zn
  N49      1.0000 0.68340  0.01020  0.27800  Biso   1.000  N
  N50      1.0000 0.73320  0.69140  0.31250  Biso   1.000  N
  C145     1.0000 0.68990  0.59490  0.24940  Biso   1.000  C
  N51      1.0000 0.57310  0.48340  0.05300  Biso   1.000  N
  N52      1.0000 0.57650  0.72190  0.94040  Biso   1.000  N
  C146     1.0000 0.73930  0.60560  0.30690  Biso   1.000  C
  N53      1.0000 0.62300  0.44850  0.14490  Biso   1.000  N
  C147     1.0000 0.48370  0.89430  0.94460  Biso   1.000  C
  N54      1.0000 0.52470  0.76930  0.97440  Biso   1.000  N
  N55      1.0000 0.67960  0.68020  0.25260  Biso   1.000  N
  N56      1.0000 0.41920  0.00690  0.94210  Biso   1.000  N
  C148     1.0000 0.71280  0.97630  0.30530  Biso   1.000  C
  H105     1.0000 0.73000  0.01650  0.32330  Biso   1.000  H
  C149     1.0000 0.70330  0.72750  0.28400  Biso   1.000  C
  C150     1.0000 0.55350  0.71230  0.96960  Biso   1.000  C
  N57      1.0000 0.83090  0.47150  0.39390  Biso   1.000  N
  C151     1.0000 0.66680  0.54260  0.21360  Biso   1.000  C
  C152     1.0000 0.64870  0.77320  0.84920  Biso   1.000  C
  H106     1.0000 0.67110  0.73630  0.84890  Biso   1.000  H
  C153     1.0000 0.55990  0.63230  0.99880  Biso   1.000  C
  N58      1.0000 0.54010  0.84990  0.91460  Biso   1.000  N
  C154     1.0000 0.43290  0.99110  0.90730  Biso   1.000  C
  H107     1.0000 0.42040  0.01860  0.88100  Biso   1.000  H
  N59      1.0000 0.72020  0.55310  0.27510  Biso   1.000  N
  C155     1.0000 0.59290  0.80610  0.88050  Biso   1.000  C
  C156     1.0000 0.65510  0.40920  0.16930  Biso   1.000  C
  H108     1.0000 0.66300  0.35090  0.16180  Biso   1.000  H
  C157     1.0000 0.69610  0.82420  0.28400  Biso   1.000  C
  C158     1.0000 0.51790  0.83480  0.94480  Biso   1.000  C
  N60      1.0000 0.63980  0.83330  0.81970  Biso   1.000  N
  C159     1.0000 0.63380  0.58060  0.18780  Biso   1.000  C
  H109     1.0000 0.62590  0.64040  0.19290  Biso   1.000  H
  C160     1.0000 0.56830  0.79270  0.91510  Biso   1.000  C
  C161     1.0000 0.77200  0.55900  0.33740  Biso   1.000  C
  C162     1.0000 0.65940  0.95170  0.25380  Biso   1.000  C
  H110     1.0000 0.63730  0.97530  0.23440  Biso   1.000  H
  C163     1.0000 0.67620  0.45250  0.20470  Biso   1.000  C
  H111     1.0000 0.69700  0.42220  0.22310  Biso   1.000  H
  C164     1.0000 0.62640  0.75970  0.88200  Biso   1.000  C
  H112     1.0000 0.63510  0.71840  0.90500  Biso   1.000  H
  C165     1.0000 0.53290  0.60460  0.02340  Biso   1.000  C
  H113     1.0000 0.50900  0.63750  0.02160  Biso   1.000  H
  C166     1.0000 0.43430  0.96090  0.97730  Biso   1.000  C
  H114     1.0000 0.42260  0.96750  0.00210  Biso   1.000  H
  C167     1.0000 0.72010  0.88480  0.30950  Biso   1.000  C
  H115     1.0000 0.74180  0.86360  0.33020  Biso   1.000  H
  C168     1.0000 0.53930  0.53260  0.04970  Biso   1.000  C
  H116     1.0000 0.52020  0.51580  0.06630  Biso   1.000  H
  C169     1.0000 0.81830  0.55240  0.40230  Biso   1.000  C
  H117     1.0000 0.82960  0.57880  0.42930  Biso   1.000  H
  C170     1.0000 0.60020  0.50860  0.02900  Biso   1.000  C
  H118     1.0000 0.62340  0.47370  0.03010  Biso   1.000  H
  C171     1.0000 0.66440  0.85990  0.25530  Biso   1.000  C
  H119     1.0000 0.64660  0.82150  0.23700  Biso   1.000  H
  C172     1.0000 0.81290  0.43350  0.35590  Biso   1.000  C
  H120     1.0000 0.82190  0.37630  0.34800  Biso   1.000  H
  C173     1.0000 0.61320  0.52990  0.15500  Biso   1.000  C
  H121     1.0000 0.59000  0.55540  0.13840  Biso   1.000  H
  C174     1.0000 0.59420  0.58450  0.00290  Biso   1.000  C
  H122     1.0000 0.61410  0.60350  0.98780  Biso   1.000  H
  C175     1.0000 0.78950  0.60290  0.37470  Biso   1.000  C
  H123     1.0000 0.78270  0.66270  0.38130  Biso   1.000  H
  C176     1.0000 0.78350  0.47310  0.32940  Biso   1.000  C
  H124     1.0000 0.77010  0.44160  0.30460  Biso   1.000  H
  C177     1.0000 0.46620  0.90380  0.97990  Biso   1.000  C
  H125     1.0000 0.47580  0.87150  0.00590  Biso   1.000  H
  C178     1.0000 0.46550  0.93480  0.90660  Biso   1.000  C
  H126     1.0000 0.47480  0.92490  0.88040  Biso   1.000  H
  C179     1.0000 0.60890  0.88340  0.82200  Biso   1.000  C
  H127     1.0000 0.60360  0.93250  0.80240  Biso   1.000  H
  C180     1.0000 0.58480  0.87140  0.84910  Biso   1.000  C
  H128     1.0000 0.56190  0.90780  0.84710  Biso   1.000  H
  H129     1.0000 0.51120  0.76400  0.99540  Biso   1.000  H
  H130     1.0000 0.72670  0.49660  0.27130  Biso   1.000  H
  I31      1.0000 0.23281  0.74108  0.29107  Biso   1.000  I
  I32      1.0000 0.12531  0.66549  0.19696  Biso   1.000  I
  I33      1.0000 0.39284  0.76522  0.39851  Biso   1.000  I
  I34      1.0000 0.02559  0.84155  0.12737  Biso   1.000  I
  I35      1.0000 0.35107  0.90061  0.50952  Biso   1.000  I
  I36      1.0000 0.12579  0.76523  0.06225  Biso   1.000  I
  Zn16     1.0000 0.37304  0.90554  0.43737  Biso   1.000  Zn
  Zn17     1.0000 0.08647  0.87847  0.09637  Biso   1.000  Zn
  Zn18     1.0000 0.17112  0.64701  0.27091  Biso   1.000  Zn
  N61      1.0000 0.18340  0.51020  0.27800  Biso   1.000  N
  N62      1.0000 0.23320  0.19140  0.31250  Biso   1.000  N
  C181     1.0000 0.18990  0.09490  0.24940  Biso   1.000  C
  N63      1.0000 0.07310  0.98340  0.05300  Biso   1.000  N
  N64      1.0000 0.07650  0.22190  0.94040  Biso   1.000  N
  C182     1.0000 0.23930  0.10560  0.30690  Biso   1.000  C
  N65      1.0000 0.12300  0.94850  0.14490  Biso   1.000  N
  C183     1.0000 0.98370  0.39430  0.94460  Biso   1.000  C
  N66      1.0000 0.02470  0.26930  0.97440  Biso   1.000  N
  N67      1.0000 0.17960  0.18020  0.25260  Biso   1.000  N
  N68      1.0000 0.91920  0.50690  0.94210  Biso   1.000  N
  C184     1.0000 0.21280  0.47630  0.30530  Biso   1.000  C
  H131     1.0000 0.23000  0.51650  0.32330  Biso   1.000  H
  C185     1.0000 0.20330  0.22750  0.28400  Biso   1.000  C
  C186     1.0000 0.05350  0.21230  0.96960  Biso   1.000  C
  N69      1.0000 0.33090  0.97150  0.39390  Biso   1.000  N
  C187     1.0000 0.16680  0.04260  0.21360  Biso   1.000  C
  C188     1.0000 0.14870  0.27320  0.84920  Biso   1.000  C
  H132     1.0000 0.17110  0.23630  0.84890  Biso   1.000  H
  C189     1.0000 0.05990  0.13230  0.99880  Biso   1.000  C
  N70      1.0000 0.04010  0.34990  0.91460  Biso   1.000  N
  C190     1.0000 0.93290  0.49110  0.90730  Biso   1.000  C
  H133     1.0000 0.92040  0.51860  0.88100  Biso   1.000  H
  N71      1.0000 0.22020  0.05310  0.27510  Biso   1.000  N
  C191     1.0000 0.09290  0.30610  0.88050  Biso   1.000  C
  C192     1.0000 0.15510  0.90920  0.16930  Biso   1.000  C
  H134     1.0000 0.16300  0.85090  0.16180  Biso   1.000  H
  C193     1.0000 0.19610  0.32420  0.28400  Biso   1.000  C
  C194     1.0000 0.01790  0.33480  0.94480  Biso   1.000  C
  N72      1.0000 0.13980  0.33330  0.81970  Biso   1.000  N
  C195     1.0000 0.13380  0.08060  0.18780  Biso   1.000  C
  H135     1.0000 0.12590  0.14040  0.19290  Biso   1.000  H
  C196     1.0000 0.06830  0.29270  0.91510  Biso   1.000  C
  C197     1.0000 0.27200  0.05900  0.33740  Biso   1.000  C
  C198     1.0000 0.15940  0.45170  0.25380  Biso   1.000  C
  H136     1.0000 0.13730  0.47530  0.23440  Biso   1.000  H
  C199     1.0000 0.17620  0.95250  0.20470  Biso   1.000  C
  H137     1.0000 0.19700  0.92220  0.22310  Biso   1.000  H
  C200     1.0000 0.12640  0.25970  0.88200  Biso   1.000  C
  H138     1.0000 0.13510  0.21840  0.90500  Biso   1.000  H
  C201     1.0000 0.03290  0.10460  0.02340  Biso   1.000  C
  H139     1.0000 0.00900  0.13750  0.02160  Biso   1.000  H
  C202     1.0000 0.93430  0.46090  0.97730  Biso   1.000  C
  H140     1.0000 0.92260  0.46750  0.00210  Biso   1.000  H
  C203     1.0000 0.22010  0.38480  0.30950  Biso   1.000  C
  H141     1.0000 0.24180  0.36360  0.33020  Biso   1.000  H
  C204     1.0000 0.03930  0.03260  0.04970  Biso   1.000  C
  H142     1.0000 0.02020  0.01580  0.06630  Biso   1.000  H
  C205     1.0000 0.31830  0.05240  0.40230  Biso   1.000  C
  H143     1.0000 0.32960  0.07880  0.42930  Biso   1.000  H
  C206     1.0000 0.10020  0.00860  0.02900  Biso   1.000  C
  H144     1.0000 0.12340  0.97370  0.03010  Biso   1.000  H
  C207     1.0000 0.16440  0.35990  0.25530  Biso   1.000  C
  H145     1.0000 0.14660  0.32150  0.23700  Biso   1.000  H
  C208     1.0000 0.31290  0.93350  0.35590  Biso   1.000  C
  H146     1.0000 0.32190  0.87630  0.34800  Biso   1.000  H
  C209     1.0000 0.11320  0.02990  0.15500  Biso   1.000  C
  H147     1.0000 0.09000  0.05540  0.13840  Biso   1.000  H
  C210     1.0000 0.09420  0.08450  0.00290  Biso   1.000  C
  H148     1.0000 0.11410  0.10350  0.98780  Biso   1.000  H
  C211     1.0000 0.28950  0.10290  0.37470  Biso   1.000  C
  H149     1.0000 0.28270  0.16270  0.38130  Biso   1.000  H
  C212     1.0000 0.28350  0.97310  0.32940  Biso   1.000  C
  H150     1.0000 0.27010  0.94160  0.30460  Biso   1.000  H
  C213     1.0000 0.96620  0.40380  0.97990  Biso   1.000  C
  H151     1.0000 0.97580  0.37150  0.00590  Biso   1.000  H
  C214     1.0000 0.96550  0.43480  0.90660  Biso   1.000  C
  H152     1.0000 0.97480  0.42490  0.88040  Biso   1.000  H
  C215     1.0000 0.10890  0.38340  0.82200  Biso   1.000  C
  H153     1.0000 0.10360  0.43250  0.80240  Biso   1.000  H
  C216     1.0000 0.08480  0.37140  0.84910  Biso   1.000  C
  H154     1.0000 0.06190  0.40780  0.84710  Biso   1.000  H
  H155     1.0000 0.01120  0.26400  0.99540  Biso   1.000  H
  H156     1.0000 0.22670  0.99660  0.27130  Biso   1.000  H
  I37      1.0000 0.73281  0.75892  0.79107  Biso   1.000  I
  I38      1.0000 0.62531  0.83451  0.69696  Biso   1.000  I
  I39      1.0000 0.89284  0.73478  0.89851  Biso   1.000  I
  I40      1.0000 0.52559  0.65845  0.62737  Biso   1.000  I
  I41      1.0000 0.85107  0.59939  0.00952  Biso   1.000  I
  I42      1.0000 0.62579  0.73477  0.56225  Biso   1.000  I
  Zn19     1.0000 0.87304  0.59446  0.93737  Biso   1.000  Zn
  Zn20     1.0000 0.58647  0.62153  0.59637  Biso   1.000  Zn
  Zn21     1.0000 0.67112  0.85299  0.77091  Biso   1.000  Zn
  N73      1.0000 0.68340  0.98980  0.77800  Biso   1.000  N
  N74      1.0000 0.73320  0.30860  0.81250  Biso   1.000  N
  C217     1.0000 0.68990  0.40510  0.74940  Biso   1.000  C
  N75      1.0000 0.57310  0.51660  0.55300  Biso   1.000  N
  N76      1.0000 0.57650  0.27810  0.44040  Biso   1.000  N
  C218     1.0000 0.73930  0.39440  0.80690  Biso   1.000  C
  N77      1.0000 0.62300  0.55150  0.64490  Biso   1.000  N
  C219     1.0000 0.48370  0.10570  0.44460  Biso   1.000  C
  N78      1.0000 0.52470  0.23070  0.47440  Biso   1.000  N
  N79      1.0000 0.67960  0.31980  0.75260  Biso   1.000  N
  N80      1.0000 0.41920  0.99310  0.44210  Biso   1.000  N
  C220     1.0000 0.71280  0.02370  0.80530  Biso   1.000  C
  H157     1.0000 0.73000  0.98350  0.82330  Biso   1.000  H
  C221     1.0000 0.70330  0.27250  0.78400  Biso   1.000  C
  C222     1.0000 0.55350  0.28770  0.46960  Biso   1.000  C
  N81      1.0000 0.83090  0.52850  0.89390  Biso   1.000  N
  C223     1.0000 0.66680  0.45740  0.71360  Biso   1.000  C
  C224     1.0000 0.64870  0.22680  0.34920  Biso   1.000  C
  H158     1.0000 0.67110  0.26370  0.34890  Biso   1.000  H
  C225     1.0000 0.55990  0.36770  0.49880  Biso   1.000  C
  N82      1.0000 0.54010  0.15010  0.41460  Biso   1.000  N
  C226     1.0000 0.43290  0.00890  0.40730  Biso   1.000  C
  H159     1.0000 0.42040  0.98140  0.38100  Biso   1.000  H
  N83      1.0000 0.72020  0.44690  0.77510  Biso   1.000  N
  C227     1.0000 0.59290  0.19390  0.38050  Biso   1.000  C
  C228     1.0000 0.65510  0.59080  0.66930  Biso   1.000  C
  H160     1.0000 0.66300  0.64910  0.66180  Biso   1.000  H
  C229     1.0000 0.69610  0.17580  0.78400  Biso   1.000  C
  C230     1.0000 0.51790  0.16520  0.44480  Biso   1.000  C
  N84      1.0000 0.63980  0.16670  0.31970  Biso   1.000  N
  C231     1.0000 0.63380  0.41940  0.68780  Biso   1.000  C
  H161     1.0000 0.62590  0.35960  0.69290  Biso   1.000  H
  C232     1.0000 0.56830  0.20730  0.41510  Biso   1.000  C
  C233     1.0000 0.77200  0.44100  0.83740  Biso   1.000  C
  C234     1.0000 0.65940  0.04830  0.75380  Biso   1.000  C
  H162     1.0000 0.63730  0.02470  0.73440  Biso   1.000  H
  C235     1.0000 0.67620  0.54750  0.70470  Biso   1.000  C
  H163     1.0000 0.69700  0.57780  0.72310  Biso   1.000  H
  C236     1.0000 0.62640  0.24030  0.38200  Biso   1.000  C
  H164     1.0000 0.63510  0.28160  0.40500  Biso   1.000  H
  C237     1.0000 0.53290  0.39540  0.52340  Biso   1.000  C
  H165     1.0000 0.50900  0.36250  0.52160  Biso   1.000  H
  C238     1.0000 0.43430  0.03910  0.47730  Biso   1.000  C
  H166     1.0000 0.42260  0.03250  0.50210  Biso   1.000  H
  C239     1.0000 0.72010  0.11520  0.80950  Biso   1.000  C
  H167     1.0000 0.74180  0.13640  0.83020  Biso   1.000  H
  C240     1.0000 0.53930  0.46740  0.54970  Biso   1.000  C
  H168     1.0000 0.52020  0.48420  0.56630  Biso   1.000  H
  C241     1.0000 0.81830  0.44760  0.90230  Biso   1.000  C
  H169     1.0000 0.82960  0.42120  0.92930  Biso   1.000  H
  C242     1.0000 0.60020  0.49140  0.52900  Biso   1.000  C
  H170     1.0000 0.62340  0.52630  0.53010  Biso   1.000  H
  C243     1.0000 0.66440  0.14010  0.75530  Biso   1.000  C
  H171     1.0000 0.64660  0.17850  0.73700  Biso   1.000  H
  C244     1.0000 0.81290  0.56650  0.85590  Biso   1.000  C
  H172     1.0000 0.82190  0.62370  0.84800  Biso   1.000  H
  C245     1.0000 0.61320  0.47010  0.65500  Biso   1.000  C
  H173     1.0000 0.59000  0.44460  0.63840  Biso   1.000  H
  C246     1.0000 0.59420  0.41550  0.50290  Biso   1.000  C
  H174     1.0000 0.61410  0.39650  0.48780  Biso   1.000  H
  C247     1.0000 0.78950  0.39710  0.87470  Biso   1.000  C
  H175     1.0000 0.78270  0.33730  0.88130  Biso   1.000  H
  C248     1.0000 0.78350  0.52690  0.82940  Biso   1.000  C
  H176     1.0000 0.77010  0.55840  0.80460  Biso   1.000  H
  C249     1.0000 0.46620  0.09620  0.47990  Biso   1.000  C
  H177     1.0000 0.47580  0.12850  0.50590  Biso   1.000  H
  C250     1.0000 0.46550  0.06520  0.40660  Biso   1.000  C
  H178     1.0000 0.47480  0.07510  0.38040  Biso   1.000  H
  C251     1.0000 0.60890  0.11660  0.32200  Biso   1.000  C
  H179     1.0000 0.60360  0.06750  0.30240  Biso   1.000  H
  C252     1.0000 0.58480  0.12860  0.34910  Biso   1.000  C
  H180     1.0000 0.56190  0.09220  0.34710  Biso   1.000  H
  H181     1.0000 0.51120  0.23600  0.49540  Biso   1.000  H
  H182     1.0000 0.72670  0.50340  0.77130  Biso   1.000  H
  I43      1.0000 0.23281  0.25892  0.79107  Biso   1.000  I
  I44      1.0000 0.12531  0.33451  0.69696  Biso   1.000  I
  I45      1.0000 0.39284  0.23478  0.89851  Biso   1.000  I
  I46      1.0000 0.02559  0.15845  0.62737  Biso   1.000  I
  I47      1.0000 0.35107  0.09939  0.00952  Biso   1.000  I
  I48      1.0000 0.12579  0.23477  0.56225  Biso   1.000  I
  Zn22     1.0000 0.37304  0.09446  0.93737  Biso   1.000  Zn
  Zn23     1.0000 0.08647  0.12153  0.59637  Biso   1.000  Zn
  Zn24     1.0000 0.17112  0.35299  0.77091  Biso   1.000  Zn
  N85      1.0000 0.18340  0.48980  0.77800  Biso   1.000  N
  N86      1.0000 0.23320  0.80860  0.81250  Biso   1.000  N
  C253     1.0000 0.18990  0.90510  0.74940  Biso   1.000  C
  N87      1.0000 0.07310  0.01660  0.55300  Biso   1.000  N
  N88      1.0000 0.07650  0.77810  0.44040  Biso   1.000  N
  C254     1.0000 0.23930  0.89440  0.80690  Biso   1.000  C
  N89      1.0000 0.12300  0.05150  0.64490  Biso   1.000  N
  C255     1.0000 0.98370  0.60570  0.44460  Biso   1.000  C
  N90      1.0000 0.02470  0.73070  0.47440  Biso   1.000  N
  N91      1.0000 0.17960  0.81980  0.75260  Biso   1.000  N
  N92      1.0000 0.91920  0.49310  0.44210  Biso   1.000  N
  C256     1.0000 0.21280  0.52370  0.80530  Biso   1.000  C
  H183     1.0000 0.23000  0.48350  0.82330  Biso   1.000  H
  C257     1.0000 0.20330  0.77250  0.78400  Biso   1.000  C
  C258     1.0000 0.05350  0.78770  0.46960  Biso   1.000  C
  N93      1.0000 0.33090  0.02850  0.89390  Biso   1.000  N
  C259     1.0000 0.16680  0.95740  0.71360  Biso   1.000  C
  C260     1.0000 0.14870  0.72680  0.34920  Biso   1.000  C
  H184     1.0000 0.17110  0.76370  0.34890  Biso   1.000  H
  C261     1.0000 0.05990  0.86770  0.49880  Biso   1.000  C
  N94      1.0000 0.04010  0.65010  0.41460  Biso   1.000  N
  C262     1.0000 0.93290  0.50890  0.40730  Biso   1.000  C
  H185     1.0000 0.92040  0.48140  0.38100  Biso   1.000  H
  N95      1.0000 0.22020  0.94690  0.77510  Biso   1.000  N
  C263     1.0000 0.09290  0.69390  0.38050  Biso   1.000  C
  C264     1.0000 0.15510  0.09080  0.66930  Biso   1.000  C
  H186     1.0000 0.16300  0.14910  0.66180  Biso   1.000  H
  C265     1.0000 0.19610  0.67580  0.78400  Biso   1.000  C
  C266     1.0000 0.01790  0.66520  0.44480  Biso   1.000  C
  N96      1.0000 0.13980  0.66670  0.31970  Biso   1.000  N
  C267     1.0000 0.13380  0.91940  0.68780  Biso   1.000  C
  H187     1.0000 0.12590  0.85960  0.69290  Biso   1.000  H
  C268     1.0000 0.06830  0.70730  0.41510  Biso   1.000  C
  C269     1.0000 0.27200  0.94100  0.83740  Biso   1.000  C
  C270     1.0000 0.15940  0.54830  0.75380  Biso   1.000  C
  H188     1.0000 0.13730  0.52470  0.73440  Biso   1.000  H
  C271     1.0000 0.17620  0.04750  0.70470  Biso   1.000  C
  H189     1.0000 0.19700  0.07780  0.72310  Biso   1.000  H
  C272     1.0000 0.12640  0.74030  0.38200  Biso   1.000  C
  H190     1.0000 0.13510  0.78160  0.40500  Biso   1.000  H
  C273     1.0000 0.03290  0.89540  0.52340  Biso   1.000  C
  H191     1.0000 0.00900  0.86250  0.52160  Biso   1.000  H
  C274     1.0000 0.93430  0.53910  0.47730  Biso   1.000  C
  H192     1.0000 0.92260  0.53250  0.50210  Biso   1.000  H
  C275     1.0000 0.22010  0.61520  0.80950  Biso   1.000  C
  H193     1.0000 0.24180  0.63640  0.83020  Biso   1.000  H
  C276     1.0000 0.03930  0.96740  0.54970  Biso   1.000  C
  H194     1.0000 0.02020  0.98420  0.56630  Biso   1.000  H
  C277     1.0000 0.31830  0.94760  0.90230  Biso   1.000  C
  H195     1.0000 0.32960  0.92120  0.92930  Biso   1.000  H
  C278     1.0000 0.10020  0.99140  0.52900  Biso   1.000  C
  H196     1.0000 0.12340  0.02630  0.53010  Biso   1.000  H
  C279     1.0000 0.16440  0.64010  0.75530  Biso   1.000  C
  H197     1.0000 0.14660  0.67850  0.73700  Biso   1.000  H
  C280     1.0000 0.31290  0.06650  0.85590  Biso   1.000  C
  H198     1.0000 0.32190  0.12370  0.84800  Biso   1.000  H
  C281     1.0000 0.11320  0.97010  0.65500  Biso   1.000  C
  H199     1.0000 0.09000  0.94460  0.63840  Biso   1.000  H
  C282     1.0000 0.09420  0.91550  0.50290  Biso   1.000  C
  H200     1.0000 0.11410  0.89650  0.48780  Biso   1.000  H
  C283     1.0000 0.28950  0.89710  0.87470  Biso   1.000  C
  H201     1.0000 0.28270  0.83730  0.88130  Biso   1.000  H
  C284     1.0000 0.28350  0.02690  0.82940  Biso   1.000  C
  H202     1.0000 0.27010  0.05840  0.80460  Biso   1.000  H
  C285     1.0000 0.96620  0.59620  0.47990  Biso   1.000  C
  H203     1.0000 0.97580  0.62850  0.50590  Biso   1.000  H
  C286     1.0000 0.96550  0.56520  0.40660  Biso   1.000  C
  H204     1.0000 0.97480  0.57510  0.38040  Biso   1.000  H
  C287     1.0000 0.10890  0.61660  0.32200  Biso   1.000  C
  H205     1.0000 0.10360  0.56750  0.30240  Biso   1.000  H
  C288     1.0000 0.08480  0.62860  0.34910  Biso   1.000  C
  H206     1.0000 0.06190  0.59220  0.34710  Biso   1.000  H
  H207     1.0000 0.01120  0.73600  0.49540  Biso   1.000  H
  H208     1.0000 0.22670  0.00340  0.77130  Biso   1.000  H
