data_image0
_cell_length_a       34.5922
_cell_length_b       14.8141
_cell_length_c       31.4266
_cell_angle_alpha    90
_cell_angle_beta     100.79
_cell_angle_gamma    90

_symmetry_space_group_name_H-M    "P 1"
_symmetry_int_tables_number       1

loop_
  _symmetry_equiv_pos_as_xyz
  'x, y, z'

loop_
  _atom_site_label
  _atom_site_occupancy
  _atom_site_fract_x
  _atom_site_fract_y
  _atom_site_fract_z
  _atom_site_thermal_displace_type
  _atom_site_B_iso_or_equiv
  _atom_site_type_symbol
  I1       1.0000 0.26722  0.24114  0.20894  Biso   1.000  I
  I2       1.0000 0.37469  0.16548  0.30299  Biso   1.000  I
  I3       1.0000 0.10719  0.26518  0.10146  Biso   1.000  I
  I4       1.0000 0.47438  0.34149  0.37269  Biso   1.000  I
  I5       1.0000 0.14893  0.40068  0.99042  Biso   1.000  I
  I6       1.0000 0.37413  0.26532  0.43776  Biso   1.000  I
  Zn1      1.0000 0.12697  0.40559  0.06264  Biso   1.000  Zn
  Zn2      1.0000 0.41355  0.37847  0.40357  Biso   1.000  Zn
  Zn3      1.0000 0.32891  0.14696  0.22915  Biso   1.000  Zn
  N1       1.0000 0.31680  0.01040  0.22220  Biso   1.000  N
  N2       1.0000 0.26640  0.69130  0.18760  Biso   1.000  N
  C1       1.0000 0.31010  0.59530  0.24990  Biso   1.000  C
  N3       1.0000 0.42650  0.48380  0.44730  Biso   1.000  N
  N4       1.0000 0.42380  0.72120  0.55970  Biso   1.000  N
  C2       1.0000 0.26080  0.60560  0.19320  Biso   1.000  C
  N5       1.0000 0.37670  0.44880  0.35530  Biso   1.000  N
  C3       1.0000 0.51640  0.89380  0.55540  Biso   1.000  C
  N6       1.0000 0.47540  0.76910  0.52580  Biso   1.000  N
  N7       1.0000 0.32050  0.68020  0.24710  Biso   1.000  N
  N8       1.0000 0.58050  0.00670  0.55760  Biso   1.000  N
  C4       1.0000 0.28690  0.97590  0.19440  Biso   1.000  C
  H1       1.0000 0.26960  0.01580  0.17640  Biso   1.000  H
  C5       1.0000 0.29700  0.72750  0.21610  Biso   1.000  C
  C6       1.0000 0.44650  0.71170  0.53010  Biso   1.000  C
  N9       1.0000 0.16890  0.47180  0.10620  Biso   1.000  N
  C7       1.0000 0.33290  0.54220  0.28650  Biso   1.000  C
  C8       1.0000 0.35090  0.77450  0.65020  Biso   1.000  C
  H2       1.0000 0.32710  0.74170  0.64870  Biso   1.000  H
  C9       1.0000 0.44010  0.63230  0.50110  Biso   1.000  C
  N10      1.0000 0.46040  0.85020  0.58550  Biso   1.000  N
  C10      1.0000 0.56570  0.99380  0.59270  Biso   1.000  C
  H3       1.0000 0.57660  0.02600  0.61830  Biso   1.000  H
  N11      1.0000 0.27980  0.55300  0.22510  Biso   1.000  N
  C11      1.0000 0.40700  0.80500  0.61960  Biso   1.000  C
  C12      1.0000 0.34490  0.40860  0.33110  Biso   1.000  C
  H4       1.0000 0.33730  0.34990  0.33840  Biso   1.000  H
  C13      1.0000 0.30410  0.82430  0.21600  Biso   1.000  C
  C14      1.0000 0.48200  0.83430  0.55480  Biso   1.000  C
  N12      1.0000 0.36050  0.83300  0.68050  Biso   1.000  N
  C15      1.0000 0.36660  0.58110  0.31230  Biso   1.000  C
  H5       1.0000 0.37460  0.64080  0.30720  Biso   1.000  H
  C16      1.0000 0.43140  0.79270  0.58510  Biso   1.000  C
  C17      1.0000 0.22810  0.55970  0.16240  Biso   1.000  C
  C18      1.0000 0.34070  0.95180  0.24730  Biso   1.000  C
  H6       1.0000 0.36200  0.97510  0.26780  Biso   1.000  H
  C19      1.0000 0.32350  0.45270  0.29580  Biso   1.000  C
  H7       1.0000 0.30240  0.42260  0.27760  Biso   1.000  H
  C20      1.0000 0.37450  0.75750  0.61900  Biso   1.000  C
  H8       1.0000 0.36720  0.71200  0.59780  Biso   1.000  H
  C21      1.0000 0.46720  0.60520  0.47650  Biso   1.000  C
  H9       1.0000 0.49090  0.63870  0.47810  Biso   1.000  H
  C22      1.0000 0.56540  0.96130  0.52280  Biso   1.000  C
  H10      1.0000 0.57730  0.96800  0.49810  Biso   1.000  H
  C23      1.0000 0.27990  0.88510  0.19070  Biso   1.000  C
  H11      1.0000 0.25810  0.86360  0.17020  Biso   1.000  H
  C24      1.0000 0.46100  0.53240  0.45020  Biso   1.000  C
  H12      1.0000 0.48020  0.51460  0.43390  Biso   1.000  H
  C25      1.0000 0.18180  0.55190  0.09810  Biso   1.000  C
  H13      1.0000 0.17020  0.57860  0.07130  Biso   1.000  H
  C26      1.0000 0.39960  0.50950  0.47010  Biso   1.000  C
  H14      1.0000 0.37590  0.47600  0.46790  Biso   1.000  H
  C27      1.0000 0.33560  0.85960  0.24450  Biso   1.000  C
  H15      1.0000 0.35380  0.82070  0.26220  Biso   1.000  H
  C28      1.0000 0.18710  0.43400  0.14430  Biso   1.000  C
  H16      1.0000 0.17850  0.37620  0.15160  Biso   1.000  H
  C29      1.0000 0.38700  0.52960  0.34490  Biso   1.000  C
  H17      1.0000 0.41050  0.55430  0.36130  Biso   1.000  H
  C30      1.0000 0.40550  0.58420  0.49690  Biso   1.000  C
  H18      1.0000 0.38580  0.60250  0.51240  Biso   1.000  H
  C31      1.0000 0.21080  0.60220  0.12500  Biso   1.000  C
  H19      1.0000 0.21800  0.66150  0.11790  Biso   1.000  H
  C32      1.0000 0.21600  0.47270  0.17140  Biso   1.000  C
  H20      1.0000 0.22850  0.44190  0.19680  Biso   1.000  H
  C33      1.0000 0.53350  0.90440  0.51940  Biso   1.000  C
  H21      1.0000 0.52360  0.87350  0.49310  Biso   1.000  H
  C34      1.0000 0.53440  0.93460  0.59380  Biso   1.000  C
  H22      1.0000 0.52580  0.92250  0.62020  Biso   1.000  H
  C35      1.0000 0.39140  0.88200  0.67920  Biso   1.000  C
  H23      1.0000 0.39600  0.93150  0.69870  Biso   1.000  H
  C36      1.0000 0.41720  0.86900  0.65330  Biso   1.000  C
  H24      1.0000 0.44130  0.90120  0.65730  Biso   1.000  H
  H25      1.0000 0.48910  0.76370  0.50500  Biso   1.000  H
  H26      1.0000 0.27300  0.49680  0.22930  Biso   1.000  H
  I7       1.0000 0.76722  0.74114  0.20894  Biso   1.000  I
  I8       1.0000 0.87469  0.66548  0.30299  Biso   1.000  I
  I9       1.0000 0.60719  0.76518  0.10146  Biso   1.000  I
  I10      1.0000 0.97438  0.84149  0.37269  Biso   1.000  I
  I11      1.0000 0.64893  0.90068  0.99042  Biso   1.000  I
  I12      1.0000 0.87413  0.76532  0.43776  Biso   1.000  I
  Zn4      1.0000 0.62697  0.90559  0.06264  Biso   1.000  Zn
  Zn5      1.0000 0.91355  0.87847  0.40357  Biso   1.000  Zn
  Zn6      1.0000 0.82891  0.64696  0.22915  Biso   1.000  Zn
  N13      1.0000 0.81680  0.51040  0.22220  Biso   1.000  N
  N14      1.0000 0.76640  0.19130  0.18760  Biso   1.000  N
  C37      1.0000 0.81010  0.09530  0.24990  Biso   1.000  C
  N15      1.0000 0.92650  0.98380  0.44730  Biso   1.000  N
  N16      1.0000 0.92380  0.22120  0.55970  Biso   1.000  N
  C38      1.0000 0.76080  0.10560  0.19320  Biso   1.000  C
  N17      1.0000 0.87670  0.94880  0.35530  Biso   1.000  N
  C39      1.0000 0.01640  0.39380  0.55540  Biso   1.000  C
  N18      1.0000 0.97540  0.26910  0.52580  Biso   1.000  N
  N19      1.0000 0.82050  0.18020  0.24710  Biso   1.000  N
  N20      1.0000 0.08050  0.50670  0.55760  Biso   1.000  N
  C40      1.0000 0.78690  0.47590  0.19440  Biso   1.000  C
  H27      1.0000 0.76960  0.51580  0.17640  Biso   1.000  H
  C41      1.0000 0.79700  0.22750  0.21610  Biso   1.000  C
  C42      1.0000 0.94650  0.21170  0.53010  Biso   1.000  C
  N21      1.0000 0.66890  0.97180  0.10620  Biso   1.000  N
  C43      1.0000 0.83290  0.04220  0.28650  Biso   1.000  C
  C44      1.0000 0.85090  0.27450  0.65020  Biso   1.000  C
  H28      1.0000 0.82710  0.24170  0.64870  Biso   1.000  H
  C45      1.0000 0.94010  0.13230  0.50110  Biso   1.000  C
  N22      1.0000 0.96040  0.35020  0.58550  Biso   1.000  N
  C46      1.0000 0.06570  0.49380  0.59270  Biso   1.000  C
  H29      1.0000 0.07660  0.52600  0.61830  Biso   1.000  H
  N23      1.0000 0.77980  0.05300  0.22510  Biso   1.000  N
  C47      1.0000 0.90700  0.30500  0.61960  Biso   1.000  C
  C48      1.0000 0.84490  0.90860  0.33110  Biso   1.000  C
  H30      1.0000 0.83730  0.84990  0.33840  Biso   1.000  H
  C49      1.0000 0.80410  0.32430  0.21600  Biso   1.000  C
  C50      1.0000 0.98200  0.33430  0.55480  Biso   1.000  C
  N24      1.0000 0.86050  0.33300  0.68050  Biso   1.000  N
  C51      1.0000 0.86660  0.08110  0.31230  Biso   1.000  C
  H31      1.0000 0.87460  0.14080  0.30720  Biso   1.000  H
  C52      1.0000 0.93140  0.29270  0.58510  Biso   1.000  C
  C53      1.0000 0.72810  0.05970  0.16240  Biso   1.000  C
  C54      1.0000 0.84070  0.45180  0.24730  Biso   1.000  C
  H32      1.0000 0.86200  0.47510  0.26780  Biso   1.000  H
  C55      1.0000 0.82350  0.95270  0.29580  Biso   1.000  C
  H33      1.0000 0.80240  0.92260  0.27760  Biso   1.000  H
  C56      1.0000 0.87450  0.25750  0.61900  Biso   1.000  C
  H34      1.0000 0.86720  0.21200  0.59780  Biso   1.000  H
  C57      1.0000 0.96720  0.10520  0.47650  Biso   1.000  C
  H35      1.0000 0.99090  0.13870  0.47810  Biso   1.000  H
  C58      1.0000 0.06540  0.46130  0.52280  Biso   1.000  C
  H36      1.0000 0.07730  0.46800  0.49810  Biso   1.000  H
  C59      1.0000 0.77990  0.38510  0.19070  Biso   1.000  C
  H37      1.0000 0.75810  0.36360  0.17020  Biso   1.000  H
  C60      1.0000 0.96100  0.03240  0.45020  Biso   1.000  C
  H38      1.0000 0.98020  0.01460  0.43390  Biso   1.000  H
  C61      1.0000 0.68180  0.05190  0.09810  Biso   1.000  C
  H39      1.0000 0.67020  0.07860  0.07130  Biso   1.000  H
  C62      1.0000 0.89960  0.00950  0.47010  Biso   1.000  C
  H40      1.0000 0.87590  0.97600  0.46790  Biso   1.000  H
  C63      1.0000 0.83560  0.35960  0.24450  Biso   1.000  C
  H41      1.0000 0.85380  0.32070  0.26220  Biso   1.000  H
  C64      1.0000 0.68710  0.93400  0.14430  Biso   1.000  C
  H42      1.0000 0.67850  0.87620  0.15160  Biso   1.000  H
  C65      1.0000 0.88700  0.02960  0.34490  Biso   1.000  C
  H43      1.0000 0.91050  0.05430  0.36130  Biso   1.000  H
  C66      1.0000 0.90550  0.08420  0.49690  Biso   1.000  C
  H44      1.0000 0.88580  0.10250  0.51240  Biso   1.000  H
  C67      1.0000 0.71080  0.10220  0.12500  Biso   1.000  C
  H45      1.0000 0.71800  0.16150  0.11790  Biso   1.000  H
  C68      1.0000 0.71600  0.97270  0.17140  Biso   1.000  C
  H46      1.0000 0.72850  0.94190  0.19680  Biso   1.000  H
  C69      1.0000 0.03350  0.40440  0.51940  Biso   1.000  C
  H47      1.0000 0.02360  0.37350  0.49310  Biso   1.000  H
  C70      1.0000 0.03440  0.43460  0.59380  Biso   1.000  C
  H48      1.0000 0.02580  0.42250  0.62020  Biso   1.000  H
  C71      1.0000 0.89140  0.38200  0.67920  Biso   1.000  C
  H49      1.0000 0.89600  0.43150  0.69870  Biso   1.000  H
  C72      1.0000 0.91720  0.36900  0.65330  Biso   1.000  C
  H50      1.0000 0.94130  0.40120  0.65730  Biso   1.000  H
  H51      1.0000 0.98910  0.26370  0.50500  Biso   1.000  H
  H52      1.0000 0.77300  0.99680  0.22930  Biso   1.000  H
  I13      1.0000 0.26722  0.75886  0.70894  Biso   1.000  I
  I14      1.0000 0.37469  0.83452  0.80299  Biso   1.000  I
  I15      1.0000 0.10719  0.73482  0.60146  Biso   1.000  I
  I16      1.0000 0.47438  0.65851  0.87269  Biso   1.000  I
  I17      1.0000 0.14893  0.59932  0.49042  Biso   1.000  I
  I18      1.0000 0.37413  0.73468  0.93776  Biso   1.000  I
  Zn7      1.0000 0.12697  0.59441  0.56264  Biso   1.000  Zn
  Zn8      1.0000 0.41355  0.62153  0.90357  Biso   1.000  Zn
  Zn9      1.0000 0.32891  0.85304  0.72915  Biso   1.000  Zn
  N25      1.0000 0.31680  0.98960  0.72220  Biso   1.000  N
  N26      1.0000 0.26640  0.30870  0.68760  Biso   1.000  N
  C73      1.0000 0.31010  0.40470  0.74990  Biso   1.000  C
  N27      1.0000 0.42650  0.51620  0.94730  Biso   1.000  N
  N28      1.0000 0.42380  0.27880  0.05970  Biso   1.000  N
  C74      1.0000 0.26080  0.39440  0.69320  Biso   1.000  C
  N29      1.0000 0.37670  0.55120  0.85530  Biso   1.000  N
  C75      1.0000 0.51640  0.10620  0.05540  Biso   1.000  C
  N30      1.0000 0.47540  0.23090  0.02580  Biso   1.000  N
  N31      1.0000 0.32050  0.31980  0.74710  Biso   1.000  N
  N32      1.0000 0.58050  0.99330  0.05760  Biso   1.000  N
  C76      1.0000 0.28690  0.02410  0.69440  Biso   1.000  C
  H53      1.0000 0.26960  0.98420  0.67640  Biso   1.000  H
  C77      1.0000 0.29700  0.27250  0.71610  Biso   1.000  C
  C78      1.0000 0.44650  0.28830  0.03010  Biso   1.000  C
  N33      1.0000 0.16890  0.52820  0.60620  Biso   1.000  N
  C79      1.0000 0.33290  0.45780  0.78650  Biso   1.000  C
  C80      1.0000 0.35090  0.22550  0.15020  Biso   1.000  C
  H54      1.0000 0.32710  0.25830  0.14870  Biso   1.000  H
  C81      1.0000 0.44010  0.36770  0.00110  Biso   1.000  C
  N34      1.0000 0.46040  0.14980  0.08550  Biso   1.000  N
  C82      1.0000 0.56570  0.00620  0.09270  Biso   1.000  C
  H55      1.0000 0.57660  0.97400  0.11830  Biso   1.000  H
  N35      1.0000 0.27980  0.44700  0.72510  Biso   1.000  N
  C83      1.0000 0.40700  0.19500  0.11960  Biso   1.000  C
  C84      1.0000 0.34490  0.59140  0.83110  Biso   1.000  C
  H56      1.0000 0.33730  0.65010  0.83840  Biso   1.000  H
  C85      1.0000 0.30410  0.17570  0.71600  Biso   1.000  C
  C86      1.0000 0.48200  0.16570  0.05480  Biso   1.000  C
  N36      1.0000 0.36050  0.16700  0.18050  Biso   1.000  N
  C87      1.0000 0.36660  0.41890  0.81230  Biso   1.000  C
  H57      1.0000 0.37460  0.35920  0.80720  Biso   1.000  H
  C88      1.0000 0.43140  0.20730  0.08510  Biso   1.000  C
  C89      1.0000 0.22810  0.44030  0.66240  Biso   1.000  C
  C90      1.0000 0.34070  0.04820  0.74730  Biso   1.000  C
  H58      1.0000 0.36200  0.02490  0.76780  Biso   1.000  H
  C91      1.0000 0.32350  0.54730  0.79580  Biso   1.000  C
  H59      1.0000 0.30240  0.57740  0.77760  Biso   1.000  H
  C92      1.0000 0.37450  0.24250  0.11900  Biso   1.000  C
  H60      1.0000 0.36720  0.28800  0.09780  Biso   1.000  H
  C93      1.0000 0.46720  0.39480  0.97650  Biso   1.000  C
  H61      1.0000 0.49090  0.36130  0.97810  Biso   1.000  H
  C94      1.0000 0.56540  0.03870  0.02280  Biso   1.000  C
  H62      1.0000 0.57730  0.03200  0.99810  Biso   1.000  H
  C95      1.0000 0.27990  0.11490  0.69070  Biso   1.000  C
  H63      1.0000 0.25810  0.13640  0.67020  Biso   1.000  H
  C96      1.0000 0.46100  0.46760  0.95020  Biso   1.000  C
  H64      1.0000 0.48020  0.48540  0.93390  Biso   1.000  H
  C97      1.0000 0.18180  0.44810  0.59810  Biso   1.000  C
  H65      1.0000 0.17020  0.42140  0.57130  Biso   1.000  H
  C98      1.0000 0.39960  0.49050  0.97010  Biso   1.000  C
  H66      1.0000 0.37590  0.52400  0.96790  Biso   1.000  H
  C99      1.0000 0.33560  0.14040  0.74450  Biso   1.000  C
  H67      1.0000 0.35380  0.17930  0.76220  Biso   1.000  H
  C100     1.0000 0.18710  0.56600  0.64430  Biso   1.000  C
  H68      1.0000 0.17850  0.62380  0.65160  Biso   1.000  H
  C101     1.0000 0.38700  0.47040  0.84490  Biso   1.000  C
  H69      1.0000 0.41050  0.44570  0.86130  Biso   1.000  H
  C102     1.0000 0.40550  0.41580  0.99690  Biso   1.000  C
  H70      1.0000 0.38580  0.39750  0.01240  Biso   1.000  H
  C103     1.0000 0.21080  0.39780  0.62500  Biso   1.000  C
  H71      1.0000 0.21800  0.33850  0.61790  Biso   1.000  H
  C104     1.0000 0.21600  0.52730  0.67140  Biso   1.000  C
  H72      1.0000 0.22850  0.55810  0.69680  Biso   1.000  H
  C105     1.0000 0.53350  0.09560  0.01940  Biso   1.000  C
  H73      1.0000 0.52360  0.12650  0.99310  Biso   1.000  H
  C106     1.0000 0.53440  0.06540  0.09380  Biso   1.000  C
  H74      1.0000 0.52580  0.07750  0.12020  Biso   1.000  H
  C107     1.0000 0.39140  0.11800  0.17920  Biso   1.000  C
  H75      1.0000 0.39600  0.06850  0.19870  Biso   1.000  H
  C108     1.0000 0.41720  0.13100  0.15330  Biso   1.000  C
  H76      1.0000 0.44130  0.09880  0.15730  Biso   1.000  H
  H77      1.0000 0.48910  0.23630  0.00500  Biso   1.000  H
  H78      1.0000 0.27300  0.50320  0.72930  Biso   1.000  H
  I19      1.0000 0.76722  0.25886  0.70894  Biso   1.000  I
  I20      1.0000 0.87469  0.33452  0.80299  Biso   1.000  I
  I21      1.0000 0.60719  0.23482  0.60146  Biso   1.000  I
  I22      1.0000 0.97438  0.15851  0.87269  Biso   1.000  I
  I23      1.0000 0.64893  0.09932  0.49042  Biso   1.000  I
  I24      1.0000 0.87413  0.23468  0.93776  Biso   1.000  I
  Zn10     1.0000 0.62697  0.09441  0.56264  Biso   1.000  Zn
  Zn11     1.0000 0.91355  0.12153  0.90357  Biso   1.000  Zn
  Zn12     1.0000 0.82891  0.35304  0.72915  Biso   1.000  Zn
  N37      1.0000 0.81680  0.48960  0.72220  Biso   1.000  N
  N38      1.0000 0.76640  0.80870  0.68760  Biso   1.000  N
  C109     1.0000 0.81010  0.90470  0.74990  Biso   1.000  C
  N39      1.0000 0.92650  0.01620  0.94730  Biso   1.000  N
  N40      1.0000 0.92380  0.77880  0.05970  Biso   1.000  N
  C110     1.0000 0.76080  0.89440  0.69320  Biso   1.000  C
  N41      1.0000 0.87670  0.05120  0.85530  Biso   1.000  N
  C111     1.0000 0.01640  0.60620  0.05540  Biso   1.000  C
  N42      1.0000 0.97540  0.73090  0.02580  Biso   1.000  N
  N43      1.0000 0.82050  0.81980  0.74710  Biso   1.000  N
  N44      1.0000 0.08050  0.49330  0.05760  Biso   1.000  N
  C112     1.0000 0.78690  0.52410  0.69440  Biso   1.000  C
  H79      1.0000 0.76960  0.48420  0.67640  Biso   1.000  H
  C113     1.0000 0.79700  0.77250  0.71610  Biso   1.000  C
  C114     1.0000 0.94650  0.78830  0.03010  Biso   1.000  C
  N45      1.0000 0.66890  0.02820  0.60620  Biso   1.000  N
  C115     1.0000 0.83290  0.95780  0.78650  Biso   1.000  C
  C116     1.0000 0.85090  0.72550  0.15020  Biso   1.000  C
  H80      1.0000 0.82710  0.75830  0.14870  Biso   1.000  H
  C117     1.0000 0.94010  0.86770  0.00110  Biso   1.000  C
  N46      1.0000 0.96040  0.64980  0.08550  Biso   1.000  N
  C118     1.0000 0.06570  0.50620  0.09270  Biso   1.000  C
  H81      1.0000 0.07660  0.47400  0.11830  Biso   1.000  H
  N47      1.0000 0.77980  0.94700  0.72510  Biso   1.000  N
  C119     1.0000 0.90700  0.69500  0.11960  Biso   1.000  C
  C120     1.0000 0.84490  0.09140  0.83110  Biso   1.000  C
  H82      1.0000 0.83730  0.15010  0.83840  Biso   1.000  H
  C121     1.0000 0.80410  0.67570  0.71600  Biso   1.000  C
  C122     1.0000 0.98200  0.66570  0.05480  Biso   1.000  C
  N48      1.0000 0.86050  0.66700  0.18050  Biso   1.000  N
  C123     1.0000 0.86660  0.91890  0.81230  Biso   1.000  C
  H83      1.0000 0.87460  0.85920  0.80720  Biso   1.000  H
  C124     1.0000 0.93140  0.70730  0.08510  Biso   1.000  C
  C125     1.0000 0.72810  0.94030  0.66240  Biso   1.000  C
  C126     1.0000 0.84070  0.54820  0.74730  Biso   1.000  C
  H84      1.0000 0.86200  0.52490  0.76780  Biso   1.000  H
  C127     1.0000 0.82350  0.04730  0.79580  Biso   1.000  C
  H85      1.0000 0.80240  0.07740  0.77760  Biso   1.000  H
  C128     1.0000 0.87450  0.74250  0.11900  Biso   1.000  C
  H86      1.0000 0.86720  0.78800  0.09780  Biso   1.000  H
  C129     1.0000 0.96720  0.89480  0.97650  Biso   1.000  C
  H87      1.0000 0.99090  0.86130  0.97810  Biso   1.000  H
  C130     1.0000 0.06540  0.53870  0.02280  Biso   1.000  C
  H88      1.0000 0.07730  0.53200  0.99810  Biso   1.000  H
  C131     1.0000 0.77990  0.61490  0.69070  Biso   1.000  C
  H89      1.0000 0.75810  0.63640  0.67020  Biso   1.000  H
  C132     1.0000 0.96100  0.96760  0.95020  Biso   1.000  C
  H90      1.0000 0.98020  0.98540  0.93390  Biso   1.000  H
  C133     1.0000 0.68180  0.94810  0.59810  Biso   1.000  C
  H91      1.0000 0.67020  0.92140  0.57130  Biso   1.000  H
  C134     1.0000 0.89960  0.99050  0.97010  Biso   1.000  C
  H92      1.0000 0.87590  0.02400  0.96790  Biso   1.000  H
  C135     1.0000 0.83560  0.64040  0.74450  Biso   1.000  C
  H93      1.0000 0.85380  0.67930  0.76220  Biso   1.000  H
  C136     1.0000 0.68710  0.06600  0.64430  Biso   1.000  C
  H94      1.0000 0.67850  0.12380  0.65160  Biso   1.000  H
  C137     1.0000 0.88700  0.97040  0.84490  Biso   1.000  C
  H95      1.0000 0.91050  0.94570  0.86130  Biso   1.000  H
  C138     1.0000 0.90550  0.91580  0.99690  Biso   1.000  C
  H96      1.0000 0.88580  0.89750  0.01240  Biso   1.000  H
  C139     1.0000 0.71080  0.89780  0.62500  Biso   1.000  C
  H97      1.0000 0.71800  0.83850  0.61790  Biso   1.000  H
  C140     1.0000 0.71600  0.02730  0.67140  Biso   1.000  C
  H98      1.0000 0.72850  0.05810  0.69680  Biso   1.000  H
  C141     1.0000 0.03350  0.59560  0.01940  Biso   1.000  C
  H99      1.0000 0.02360  0.62650  0.99310  Biso   1.000  H
  C142     1.0000 0.03440  0.56540  0.09380  Biso   1.000  C
  H100     1.0000 0.02580  0.57750  0.12020  Biso   1.000  H
  C143     1.0000 0.89140  0.61800  0.17920  Biso   1.000  C
  H101     1.0000 0.89600  0.56850  0.19870  Biso   1.000  H
  C144     1.0000 0.91720  0.63100  0.15330  Biso   1.000  C
  H102     1.0000 0.94130  0.59880  0.15730  Biso   1.000  H
  H103     1.0000 0.98910  0.73630  0.00500  Biso   1.000  H
  H104     1.0000 0.77300  0.00320  0.72930  Biso   1.000  H
  I25      1.0000 0.73278  0.24114  0.29106  Biso   1.000  I
  I26      1.0000 0.62531  0.16548  0.19701  Biso   1.000  I
  I27      1.0000 0.89281  0.26518  0.39854  Biso   1.000  I
  I28      1.0000 0.52562  0.34149  0.12731  Biso   1.000  I
  I29      1.0000 0.85107  0.40068  0.50958  Biso   1.000  I
  I30      1.0000 0.62587  0.26532  0.06224  Biso   1.000  I
  Zn13     1.0000 0.87303  0.40559  0.43736  Biso   1.000  Zn
  Zn14     1.0000 0.58645  0.37847  0.09643  Biso   1.000  Zn
  Zn15     1.0000 0.67109  0.14696  0.27085  Biso   1.000  Zn
  N49      1.0000 0.68320  0.01040  0.27780  Biso   1.000  N
  N50      1.0000 0.73360  0.69130  0.31240  Biso   1.000  N
  C145     1.0000 0.68990  0.59530  0.25010  Biso   1.000  C
  N51      1.0000 0.57350  0.48380  0.05270  Biso   1.000  N
  N52      1.0000 0.57620  0.72120  0.94030  Biso   1.000  N
  C146     1.0000 0.73920  0.60560  0.30680  Biso   1.000  C
  N53      1.0000 0.62330  0.44880  0.14470  Biso   1.000  N
  C147     1.0000 0.48360  0.89380  0.94460  Biso   1.000  C
  N54      1.0000 0.52460  0.76910  0.97420  Biso   1.000  N
  N55      1.0000 0.67950  0.68020  0.25290  Biso   1.000  N
  N56      1.0000 0.41950  0.00670  0.94240  Biso   1.000  N
  C148     1.0000 0.71310  0.97590  0.30560  Biso   1.000  C
  H105     1.0000 0.73040  0.01580  0.32360  Biso   1.000  H
  C149     1.0000 0.70300  0.72750  0.28390  Biso   1.000  C
  C150     1.0000 0.55350  0.71170  0.96990  Biso   1.000  C
  N57      1.0000 0.83110  0.47180  0.39380  Biso   1.000  N
  C151     1.0000 0.66710  0.54220  0.21350  Biso   1.000  C
  C152     1.0000 0.64910  0.77450  0.84980  Biso   1.000  C
  H106     1.0000 0.67290  0.74170  0.85130  Biso   1.000  H
  C153     1.0000 0.55990  0.63230  0.99890  Biso   1.000  C
  N58      1.0000 0.53960  0.85020  0.91450  Biso   1.000  N
  C154     1.0000 0.43430  0.99380  0.90730  Biso   1.000  C
  H107     1.0000 0.42340  0.02600  0.88170  Biso   1.000  H
  N59      1.0000 0.72020  0.55300  0.27490  Biso   1.000  N
  C155     1.0000 0.59300  0.80500  0.88040  Biso   1.000  C
  C156     1.0000 0.65510  0.40860  0.16890  Biso   1.000  C
  H108     1.0000 0.66270  0.34990  0.16160  Biso   1.000  H
  C157     1.0000 0.69590  0.82430  0.28400  Biso   1.000  C
  C158     1.0000 0.51800  0.83430  0.94520  Biso   1.000  C
  N60      1.0000 0.63950  0.83300  0.81950  Biso   1.000  N
  C159     1.0000 0.63340  0.58110  0.18770  Biso   1.000  C
  H109     1.0000 0.62540  0.64080  0.19280  Biso   1.000  H
  C160     1.0000 0.56860  0.79270  0.91490  Biso   1.000  C
  C161     1.0000 0.77190  0.55970  0.33760  Biso   1.000  C
  C162     1.0000 0.65930  0.95180  0.25270  Biso   1.000  C
  H110     1.0000 0.63800  0.97510  0.23220  Biso   1.000  H
  C163     1.0000 0.67650  0.45270  0.20420  Biso   1.000  C
  H111     1.0000 0.69760  0.42260  0.22240  Biso   1.000  H
  C164     1.0000 0.62550  0.75750  0.88100  Biso   1.000  C
  H112     1.0000 0.63280  0.71200  0.90220  Biso   1.000  H
  C165     1.0000 0.53280  0.60520  0.02350  Biso   1.000  C
  H113     1.0000 0.50910  0.63870  0.02190  Biso   1.000  H
  C166     1.0000 0.43460  0.96130  0.97720  Biso   1.000  C
  H114     1.0000 0.42270  0.96800  0.00190  Biso   1.000  H
  C167     1.0000 0.72010  0.88510  0.30930  Biso   1.000  C
  H115     1.0000 0.74190  0.86360  0.32980  Biso   1.000  H
  C168     1.0000 0.53900  0.53240  0.04980  Biso   1.000  C
  H116     1.0000 0.51980  0.51460  0.06610  Biso   1.000  H
  C169     1.0000 0.81820  0.55190  0.40190  Biso   1.000  C
  H117     1.0000 0.82980  0.57860  0.42870  Biso   1.000  H
  C170     1.0000 0.60040  0.50950  0.02990  Biso   1.000  C
  H118     1.0000 0.62410  0.47600  0.03210  Biso   1.000  H
  C171     1.0000 0.66440  0.85960  0.25550  Biso   1.000  C
  H119     1.0000 0.64620  0.82070  0.23780  Biso   1.000  H
  C172     1.0000 0.81290  0.43400  0.35570  Biso   1.000  C
  H120     1.0000 0.82150  0.37620  0.34840  Biso   1.000  H
  C173     1.0000 0.61300  0.52960  0.15510  Biso   1.000  C
  H121     1.0000 0.58950  0.55430  0.13870  Biso   1.000  H
  C174     1.0000 0.59450  0.58420  0.00310  Biso   1.000  C
  H122     1.0000 0.61420  0.60250  0.98760  Biso   1.000  H
  C175     1.0000 0.78920  0.60220  0.37500  Biso   1.000  C
  H123     1.0000 0.78200  0.66150  0.38210  Biso   1.000  H
  C176     1.0000 0.78400  0.47270  0.32860  Biso   1.000  C
  H124     1.0000 0.77150  0.44190  0.30320  Biso   1.000  H
  C177     1.0000 0.46650  0.90440  0.98060  Biso   1.000  C
  H125     1.0000 0.47640  0.87350  0.00690  Biso   1.000  H
  C178     1.0000 0.46560  0.93460  0.90620  Biso   1.000  C
  H126     1.0000 0.47420  0.92250  0.87980  Biso   1.000  H
  C179     1.0000 0.60860  0.88200  0.82080  Biso   1.000  C
  H127     1.0000 0.60400  0.93150  0.80130  Biso   1.000  H
  C180     1.0000 0.58280  0.86900  0.84670  Biso   1.000  C
  H128     1.0000 0.55870  0.90120  0.84270  Biso   1.000  H
  H129     1.0000 0.51090  0.76370  0.99500  Biso   1.000  H
  H130     1.0000 0.72700  0.49680  0.27070  Biso   1.000  H
  I31      1.0000 0.23278  0.74114  0.29106  Biso   1.000  I
  I32      1.0000 0.12531  0.66548  0.19701  Biso   1.000  I
  I33      1.0000 0.39281  0.76518  0.39854  Biso   1.000  I
  I34      1.0000 0.02562  0.84149  0.12731  Biso   1.000  I
  I35      1.0000 0.35107  0.90068  0.50958  Biso   1.000  I
  I36      1.0000 0.12587  0.76532  0.06224  Biso   1.000  I
  Zn16     1.0000 0.37303  0.90559  0.43736  Biso   1.000  Zn
  Zn17     1.0000 0.08645  0.87847  0.09643  Biso   1.000  Zn
  Zn18     1.0000 0.17109  0.64696  0.27085  Biso   1.000  Zn
  N61      1.0000 0.18320  0.51040  0.27780  Biso   1.000  N
  N62      1.0000 0.23360  0.19130  0.31240  Biso   1.000  N
  C181     1.0000 0.18990  0.09530  0.25010  Biso   1.000  C
  N63      1.0000 0.07350  0.98380  0.05270  Biso   1.000  N
  N64      1.0000 0.07620  0.22120  0.94030  Biso   1.000  N
  C182     1.0000 0.23920  0.10560  0.30680  Biso   1.000  C
  N65      1.0000 0.12330  0.94880  0.14470  Biso   1.000  N
  C183     1.0000 0.98360  0.39380  0.94460  Biso   1.000  C
  N66      1.0000 0.02460  0.26910  0.97420  Biso   1.000  N
  N67      1.0000 0.17950  0.18020  0.25290  Biso   1.000  N
  N68      1.0000 0.91950  0.50670  0.94240  Biso   1.000  N
  C184     1.0000 0.21310  0.47590  0.30560  Biso   1.000  C
  H131     1.0000 0.23040  0.51580  0.32360  Biso   1.000  H
  C185     1.0000 0.20300  0.22750  0.28390  Biso   1.000  C
  C186     1.0000 0.05350  0.21170  0.96990  Biso   1.000  C
  N69      1.0000 0.33110  0.97180  0.39380  Biso   1.000  N
  C187     1.0000 0.16710  0.04220  0.21350  Biso   1.000  C
  C188     1.0000 0.14910  0.27450  0.84980  Biso   1.000  C
  H132     1.0000 0.17290  0.24170  0.85130  Biso   1.000  H
  C189     1.0000 0.05990  0.13230  0.99890  Biso   1.000  C
  N70      1.0000 0.03960  0.35020  0.91450  Biso   1.000  N
  C190     1.0000 0.93430  0.49380  0.90730  Biso   1.000  C
  H133     1.0000 0.92340  0.52600  0.88170  Biso   1.000  H
  N71      1.0000 0.22020  0.05300  0.27490  Biso   1.000  N
  C191     1.0000 0.09300  0.30500  0.88040  Biso   1.000  C
  C192     1.0000 0.15510  0.90860  0.16890  Biso   1.000  C
  H134     1.0000 0.16270  0.84990  0.16160  Biso   1.000  H
  C193     1.0000 0.19590  0.32430  0.28400  Biso   1.000  C
  C194     1.0000 0.01800  0.33430  0.94520  Biso   1.000  C
  N72      1.0000 0.13950  0.33300  0.81950  Biso   1.000  N
  C195     1.0000 0.13340  0.08110  0.18770  Biso   1.000  C
  H135     1.0000 0.12540  0.14080  0.19280  Biso   1.000  H
  C196     1.0000 0.06860  0.29270  0.91490  Biso   1.000  C
  C197     1.0000 0.27190  0.05970  0.33760  Biso   1.000  C
  C198     1.0000 0.15930  0.45180  0.25270  Biso   1.000  C
  H136     1.0000 0.13800  0.47510  0.23220  Biso   1.000  H
  C199     1.0000 0.17650  0.95270  0.20420  Biso   1.000  C
  H137     1.0000 0.19760  0.92260  0.22240  Biso   1.000  H
  C200     1.0000 0.12550  0.25750  0.88100  Biso   1.000  C
  H138     1.0000 0.13280  0.21200  0.90220  Biso   1.000  H
  C201     1.0000 0.03280  0.10520  0.02350  Biso   1.000  C
  H139     1.0000 0.00910  0.13870  0.02190  Biso   1.000  H
  C202     1.0000 0.93460  0.46130  0.97720  Biso   1.000  C
  H140     1.0000 0.92270  0.46800  0.00190  Biso   1.000  H
  C203     1.0000 0.22010  0.38510  0.30930  Biso   1.000  C
  H141     1.0000 0.24190  0.36360  0.32980  Biso   1.000  H
  C204     1.0000 0.03900  0.03240  0.04980  Biso   1.000  C
  H142     1.0000 0.01980  0.01460  0.06610  Biso   1.000  H
  C205     1.0000 0.31820  0.05190  0.40190  Biso   1.000  C
  H143     1.0000 0.32980  0.07860  0.42870  Biso   1.000  H
  C206     1.0000 0.10040  0.00950  0.02990  Biso   1.000  C
  H144     1.0000 0.12410  0.97600  0.03210  Biso   1.000  H
  C207     1.0000 0.16440  0.35960  0.25550  Biso   1.000  C
  H145     1.0000 0.14620  0.32070  0.23780  Biso   1.000  H
  C208     1.0000 0.31290  0.93400  0.35570  Biso   1.000  C
  H146     1.0000 0.32150  0.87620  0.34840  Biso   1.000  H
  C209     1.0000 0.11300  0.02960  0.15510  Biso   1.000  C
  H147     1.0000 0.08950  0.05430  0.13870  Biso   1.000  H
  C210     1.0000 0.09450  0.08420  0.00310  Biso   1.000  C
  H148     1.0000 0.11420  0.10250  0.98760  Biso   1.000  H
  C211     1.0000 0.28920  0.10220  0.37500  Biso   1.000  C
  H149     1.0000 0.28200  0.16150  0.38210  Biso   1.000  H
  C212     1.0000 0.28400  0.97270  0.32860  Biso   1.000  C
  H150     1.0000 0.27150  0.94190  0.30320  Biso   1.000  H
  C213     1.0000 0.96650  0.40440  0.98060  Biso   1.000  C
  H151     1.0000 0.97640  0.37350  0.00690  Biso   1.000  H
  C214     1.0000 0.96560  0.43460  0.90620  Biso   1.000  C
  H152     1.0000 0.97420  0.42250  0.87980  Biso   1.000  H
  C215     1.0000 0.10860  0.38200  0.82080  Biso   1.000  C
  H153     1.0000 0.10400  0.43150  0.80130  Biso   1.000  H
  C216     1.0000 0.08280  0.36900  0.84670  Biso   1.000  C
  H154     1.0000 0.05870  0.40120  0.84270  Biso   1.000  H
  H155     1.0000 0.01090  0.26370  0.99500  Biso   1.000  H
  H156     1.0000 0.22700  0.99680  0.27070  Biso   1.000  H
  I37      1.0000 0.73278  0.75886  0.79106  Biso   1.000  I
  I38      1.0000 0.62531  0.83452  0.69701  Biso   1.000  I
  I39      1.0000 0.89281  0.73482  0.89854  Biso   1.000  I
  I40      1.0000 0.52562  0.65851  0.62731  Biso   1.000  I
  I41      1.0000 0.85107  0.59932  0.00958  Biso   1.000  I
  I42      1.0000 0.62587  0.73468  0.56224  Biso   1.000  I
  Zn19     1.0000 0.87303  0.59441  0.93736  Biso   1.000  Zn
  Zn20     1.0000 0.58645  0.62153  0.59643  Biso   1.000  Zn
  Zn21     1.0000 0.67109  0.85304  0.77085  Biso   1.000  Zn
  N73      1.0000 0.68320  0.98960  0.77780  Biso   1.000  N
  N74      1.0000 0.73360  0.30870  0.81240  Biso   1.000  N
  C217     1.0000 0.68990  0.40470  0.75010  Biso   1.000  C
  N75      1.0000 0.57350  0.51620  0.55270  Biso   1.000  N
  N76      1.0000 0.57620  0.27880  0.44030  Biso   1.000  N
  C218     1.0000 0.73920  0.39440  0.80680  Biso   1.000  C
  N77      1.0000 0.62330  0.55120  0.64470  Biso   1.000  N
  C219     1.0000 0.48360  0.10620  0.44460  Biso   1.000  C
  N78      1.0000 0.52460  0.23090  0.47420  Biso   1.000  N
  N79      1.0000 0.67950  0.31980  0.75290  Biso   1.000  N
  N80      1.0000 0.41950  0.99330  0.44240  Biso   1.000  N
  C220     1.0000 0.71310  0.02410  0.80560  Biso   1.000  C
  H157     1.0000 0.73040  0.98420  0.82360  Biso   1.000  H
  C221     1.0000 0.70300  0.27250  0.78390  Biso   1.000  C
  C222     1.0000 0.55350  0.28830  0.46990  Biso   1.000  C
  N81      1.0000 0.83110  0.52820  0.89380  Biso   1.000  N
  C223     1.0000 0.66710  0.45780  0.71350  Biso   1.000  C
  C224     1.0000 0.64910  0.22550  0.34980  Biso   1.000  C
  H158     1.0000 0.67290  0.25830  0.35130  Biso   1.000  H
  C225     1.0000 0.55990  0.36770  0.49890  Biso   1.000  C
  N82      1.0000 0.53960  0.14980  0.41450  Biso   1.000  N
  C226     1.0000 0.43430  0.00620  0.40730  Biso   1.000  C
  H159     1.0000 0.42340  0.97400  0.38170  Biso   1.000  H
  N83      1.0000 0.72020  0.44700  0.77490  Biso   1.000  N
  C227     1.0000 0.59300  0.19500  0.38040  Biso   1.000  C
  C228     1.0000 0.65510  0.59140  0.66890  Biso   1.000  C
  H160     1.0000 0.66270  0.65010  0.66160  Biso   1.000  H
  C229     1.0000 0.69590  0.17570  0.78400  Biso   1.000  C
  C230     1.0000 0.51800  0.16570  0.44520  Biso   1.000  C
  N84      1.0000 0.63950  0.16700  0.31950  Biso   1.000  N
  C231     1.0000 0.63340  0.41890  0.68770  Biso   1.000  C
  H161     1.0000 0.62540  0.35920  0.69280  Biso   1.000  H
  C232     1.0000 0.56860  0.20730  0.41490  Biso   1.000  C
  C233     1.0000 0.77190  0.44030  0.83760  Biso   1.000  C
  C234     1.0000 0.65930  0.04820  0.75270  Biso   1.000  C
  H162     1.0000 0.63800  0.02490  0.73220  Biso   1.000  H
  C235     1.0000 0.67650  0.54730  0.70420  Biso   1.000  C
  H163     1.0000 0.69760  0.57740  0.72240  Biso   1.000  H
  C236     1.0000 0.62550  0.24250  0.38100  Biso   1.000  C
  H164     1.0000 0.63280  0.28800  0.40220  Biso   1.000  H
  C237     1.0000 0.53280  0.39480  0.52350  Biso   1.000  C
  H165     1.0000 0.50910  0.36130  0.52190  Biso   1.000  H
  C238     1.0000 0.43460  0.03870  0.47720  Biso   1.000  C
  H166     1.0000 0.42270  0.03200  0.50190  Biso   1.000  H
  C239     1.0000 0.72010  0.11490  0.80930  Biso   1.000  C
  H167     1.0000 0.74190  0.13640  0.82980  Biso   1.000  H
  C240     1.0000 0.53900  0.46760  0.54980  Biso   1.000  C
  H168     1.0000 0.51980  0.48540  0.56610  Biso   1.000  H
  C241     1.0000 0.81820  0.44810  0.90190  Biso   1.000  C
  H169     1.0000 0.82980  0.42140  0.92870  Biso   1.000  H
  C242     1.0000 0.60040  0.49050  0.52990  Biso   1.000  C
  H170     1.0000 0.62410  0.52400  0.53210  Biso   1.000  H
  C243     1.0000 0.66440  0.14040  0.75550  Biso   1.000  C
  H171     1.0000 0.64620  0.17930  0.73780  Biso   1.000  H
  C244     1.0000 0.81290  0.56600  0.85570  Biso   1.000  C
  H172     1.0000 0.82150  0.62380  0.84840  Biso   1.000  H
  C245     1.0000 0.61300  0.47040  0.65510  Biso   1.000  C
  H173     1.0000 0.58950  0.44570  0.63870  Biso   1.000  H
  C246     1.0000 0.59450  0.41580  0.50310  Biso   1.000  C
  H174     1.0000 0.61420  0.39750  0.48760  Biso   1.000  H
  C247     1.0000 0.78920  0.39780  0.87500  Biso   1.000  C
  H175     1.0000 0.78200  0.33850  0.88210  Biso   1.000  H
  C248     1.0000 0.78400  0.52730  0.82860  Biso   1.000  C
  H176     1.0000 0.77150  0.55810  0.80320  Biso   1.000  H
  C249     1.0000 0.46650  0.09560  0.48060  Biso   1.000  C
  H177     1.0000 0.47640  0.12650  0.50690  Biso   1.000  H
  C250     1.0000 0.46560  0.06540  0.40620  Biso   1.000  C
  H178     1.0000 0.47420  0.07750  0.37980  Biso   1.000  H
  C251     1.0000 0.60860  0.11800  0.32080  Biso   1.000  C
  H179     1.0000 0.60400  0.06850  0.30130  Biso   1.000  H
  C252     1.0000 0.58280  0.13100  0.34670  Biso   1.000  C
  H180     1.0000 0.55870  0.09880  0.34270  Biso   1.000  H
  H181     1.0000 0.51090  0.23630  0.49500  Biso   1.000  H
  H182     1.0000 0.72700  0.50320  0.77070  Biso   1.000  H
  I43      1.0000 0.23278  0.25886  0.79106  Biso   1.000  I
  I44      1.0000 0.12531  0.33452  0.69701  Biso   1.000  I
  I45      1.0000 0.39281  0.23482  0.89854  Biso   1.000  I
  I46      1.0000 0.02562  0.15851  0.62731  Biso   1.000  I
  I47      1.0000 0.35107  0.09932  0.00958  Biso   1.000  I
  I48      1.0000 0.12587  0.23468  0.56224  Biso   1.000  I
  Zn22     1.0000 0.37303  0.09441  0.93736  Biso   1.000  Zn
  Zn23     1.0000 0.08645  0.12153  0.59643  Biso   1.000  Zn
  Zn24     1.0000 0.17109  0.35304  0.77085  Biso   1.000  Zn
  N85      1.0000 0.18320  0.48960  0.77780  Biso   1.000  N
  N86      1.0000 0.23360  0.80870  0.81240  Biso   1.000  N
  C253     1.0000 0.18990  0.90470  0.75010  Biso   1.000  C
  N87      1.0000 0.07350  0.01620  0.55270  Biso   1.000  N
  N88      1.0000 0.07620  0.77880  0.44030  Biso   1.000  N
  C254     1.0000 0.23920  0.89440  0.80680  Biso   1.000  C
  N89      1.0000 0.12330  0.05120  0.64470  Biso   1.000  N
  C255     1.0000 0.98360  0.60620  0.44460  Biso   1.000  C
  N90      1.0000 0.02460  0.73090  0.47420  Biso   1.000  N
  N91      1.0000 0.17950  0.81980  0.75290  Biso   1.000  N
  N92      1.0000 0.91950  0.49330  0.44240  Biso   1.000  N
  C256     1.0000 0.21310  0.52410  0.80560  Biso   1.000  C
  H183     1.0000 0.23040  0.48420  0.82360  Biso   1.000  H
  C257     1.0000 0.20300  0.77250  0.78390  Biso   1.000  C
  C258     1.0000 0.05350  0.78830  0.46990  Biso   1.000  C
  N93      1.0000 0.33110  0.02820  0.89380  Biso   1.000  N
  C259     1.0000 0.16710  0.95780  0.71350  Biso   1.000  C
  C260     1.0000 0.14910  0.72550  0.34980  Biso   1.000  C
  H184     1.0000 0.17290  0.75830  0.35130  Biso   1.000  H
  C261     1.0000 0.05990  0.86770  0.49890  Biso   1.000  C
  N94      1.0000 0.03960  0.64980  0.41450  Biso   1.000  N
  C262     1.0000 0.93430  0.50620  0.40730  Biso   1.000  C
  H185     1.0000 0.92340  0.47400  0.38170  Biso   1.000  H
  N95      1.0000 0.22020  0.94700  0.77490  Biso   1.000  N
  C263     1.0000 0.09300  0.69500  0.38040  Biso   1.000  C
  C264     1.0000 0.15510  0.09140  0.66890  Biso   1.000  C
  H186     1.0000 0.16270  0.15010  0.66160  Biso   1.000  H
  C265     1.0000 0.19590  0.67570  0.78400  Biso   1.000  C
  C266     1.0000 0.01800  0.66570  0.44520  Biso   1.000  C
  N96      1.0000 0.13950  0.66700  0.31950  Biso   1.000  N
  C267     1.0000 0.13340  0.91890  0.68770  Biso   1.000  C
  H187     1.0000 0.12540  0.85920  0.69280  Biso   1.000  H
  C268     1.0000 0.06860  0.70730  0.41490  Biso   1.000  C
  C269     1.0000 0.27190  0.94030  0.83760  Biso   1.000  C
  C270     1.0000 0.15930  0.54820  0.75270  Biso   1.000  C
  H188     1.0000 0.13800  0.52490  0.73220  Biso   1.000  H
  C271     1.0000 0.17650  0.04730  0.70420  Biso   1.000  C
  H189     1.0000 0.19760  0.07740  0.72240  Biso   1.000  H
  C272     1.0000 0.12550  0.74250  0.38100  Biso   1.000  C
  H190     1.0000 0.13280  0.78800  0.40220  Biso   1.000  H
  C273     1.0000 0.03280  0.89480  0.52350  Biso   1.000  C
  H191     1.0000 0.00910  0.86130  0.52190  Biso   1.000  H
  C274     1.0000 0.93460  0.53870  0.47720  Biso   1.000  C
  H192     1.0000 0.92270  0.53200  0.50190  Biso   1.000  H
  C275     1.0000 0.22010  0.61490  0.80930  Biso   1.000  C
  H193     1.0000 0.24190  0.63640  0.82980  Biso   1.000  H
  C276     1.0000 0.03900  0.96760  0.54980  Biso   1.000  C
  H194     1.0000 0.01980  0.98540  0.56610  Biso   1.000  H
  C277     1.0000 0.31820  0.94810  0.90190  Biso   1.000  C
  H195     1.0000 0.32980  0.92140  0.92870  Biso   1.000  H
  C278     1.0000 0.10040  0.99050  0.52990  Biso   1.000  C
  H196     1.0000 0.12410  0.02400  0.53210  Biso   1.000  H
  C279     1.0000 0.16440  0.64040  0.75550  Biso   1.000  C
  H197     1.0000 0.14620  0.67930  0.73780  Biso   1.000  H
  C280     1.0000 0.31290  0.06600  0.85570  Biso   1.000  C
  H198     1.0000 0.32150  0.12380  0.84840  Biso   1.000  H
  C281     1.0000 0.11300  0.97040  0.65510  Biso   1.000  C
  H199     1.0000 0.08950  0.94570  0.63870  Biso   1.000  H
  C282     1.0000 0.09450  0.91580  0.50310  Biso   1.000  C
  H200     1.0000 0.11420  0.89750  0.48760  Biso   1.000  H
  C283     1.0000 0.28920  0.89780  0.87500  Biso   1.000  C
  H201     1.0000 0.28200  0.83850  0.88210  Biso   1.000  H
  C284     1.0000 0.28400  0.02730  0.82860  Biso   1.000  C
  H202     1.0000 0.27150  0.05810  0.80320  Biso   1.000  H
  C285     1.0000 0.96650  0.59560  0.48060  Biso   1.000  C
  H203     1.0000 0.97640  0.62650  0.50690  Biso   1.000  H
  C286     1.0000 0.96560  0.56540  0.40620  Biso   1.000  C
  H204     1.0000 0.97420  0.57750  0.37980  Biso   1.000  H
  C287     1.0000 0.10860  0.61800  0.32080  Biso   1.000  C
  H205     1.0000 0.10400  0.56850  0.30130  Biso   1.000  H
  C288     1.0000 0.08280  0.63100  0.34670  Biso   1.000  C
  H206     1.0000 0.05870  0.59880  0.34270  Biso   1.000  H
  H207     1.0000 0.01090  0.73630  0.49500  Biso   1.000  H
  H208     1.0000 0.22700  0.00320  0.77070  Biso   1.000  H
