data_image0
_cell_length_a       33.6889
_cell_length_b       14.6464
_cell_length_c       31.9521
_cell_angle_alpha    90
_cell_angle_beta     99.1492
_cell_angle_gamma    90

_symmetry_space_group_name_H-M    "P 1"
_symmetry_int_tables_number       1

loop_
  _symmetry_equiv_pos_as_xyz
  'x, y, z'

loop_
  _atom_site_label
  _atom_site_occupancy
  _atom_site_fract_x
  _atom_site_fract_y
  _atom_site_fract_z
  _atom_site_thermal_displace_type
  _atom_site_B_iso_or_equiv
  _atom_site_type_symbol
  I1       1.0000 0.76451  0.22715  0.70710  Biso   1.000  I
  I2       1.0000 0.59939  0.26242  0.60588  Biso   1.000  I
  I3       1.0000 0.65306  0.36741  0.49533  Biso   1.000  I
  I4       1.0000 0.87511  0.16038  0.79876  Biso   1.000  I
  I5       1.0000 0.85997  0.26725  0.93928  Biso   1.000  I
  I6       1.0000 0.97068  0.32364  0.87748  Biso   1.000  I
  Zn1      1.0000 0.82932  0.13743  0.72841  Biso   1.000  Zn
  Zn2      1.0000 0.62675  0.39018  0.56414  Biso   1.000  Zn
  Zn3      1.0000 0.90722  0.36932  0.90581  Biso   1.000  Zn
  N1       1.0000 0.81861  0.99850  0.72174  Biso   1.000  N
  N2       1.0000 0.92171  0.47830  0.94692  Biso   1.000  N
  N3       1.0000 0.67050  0.45500  0.60651  Biso   1.000  N
  N4       1.0000 0.97583  0.76570  0.02142  Biso   1.000  N
  N5       1.0000 0.76894  0.67700  0.68688  Biso   1.000  N
  C1       1.0000 0.78270  0.87100  0.68840  Biso   1.000  C
  H1       1.0000 0.76210  0.84820  0.66710  Biso   1.000  H
  N6       1.0000 0.92361  0.71670  0.05823  Biso   1.000  N
  N7       1.0000 0.87294  0.43550  0.85580  Biso   1.000  N
  N8       1.0000 0.82132  0.66520  0.74569  Biso   1.000  N
  C2       1.0000 0.96650  0.59680  0.97610  Biso   1.000  C
  H2       1.0000 0.99180  0.62610  0.97780  Biso   1.000  H
  C3       1.0000 0.68240  0.53990  0.59870  Biso   1.000  C
  H3       1.0000 0.67030  0.56920  0.57330  Biso   1.000  H
  C4       1.0000 0.84160  0.94110  0.74730  Biso   1.000  C
  H4       1.0000 0.86260  0.96540  0.76760  Biso   1.000  H
  C5       1.0000 0.72980  0.54330  0.66250  Biso   1.000  C
  C6       1.0000 0.82340  0.43680  0.79400  Biso   1.000  C
  H5       1.0000 0.80320  0.40510  0.77550  Biso   1.000  H
  C7       1.0000 0.80610  0.81200  0.71530  Biso   1.000  C
  C8       1.0000 0.76158  0.58790  0.69240  Biso   1.000  C
  C9       1.0000 0.84360  0.39420  0.82920  Biso   1.000  C
  H6       1.0000 0.83650  0.33330  0.83510  Biso   1.000  H
  C10      1.0000 0.83610  0.84800  0.74550  Biso   1.000  C
  H7       1.0000 0.85270  0.80900  0.76460  Biso   1.000  H
  C11      1.0000 0.79843  0.71170  0.71500  Biso   1.000  C
  C12      1.0000 0.81050  0.57800  0.74910  Biso   1.000  C
  C13      1.0000 0.93835  0.62870  0.99960  Biso   1.000  C
  C14      1.0000 0.71740  0.45610  0.67060  Biso   1.000  C
  H8       1.0000 0.72940  0.42480  0.69550  Biso   1.000  H
  C15      1.0000 0.83270  0.52650  0.78570  Biso   1.000  C
  C16      1.0000 0.95730  0.52130  0.95010  Biso   1.000  C
  H9       1.0000 0.97680  0.49940  0.93410  Biso   1.000  H
  C17      1.0000 0.93030  0.79250  0.08140  Biso   1.000  C
  C18      1.0000 0.68760  0.41450  0.64220  Biso   1.000  C
  H10      1.0000 0.67890  0.35500  0.64850  Biso   1.000  H
  C19      1.0000 0.94646  0.70810  0.02800  Biso   1.000  C
  C20      1.0000 0.01846  0.89150  0.05083  Biso   1.000  C
  C21      1.0000 0.03718  0.90580  0.01563  Biso   1.000  C
  H11      1.0000 0.02770  0.87520  0.98980  Biso   1.000  H
  C22      1.0000 0.06973  0.96510  0.01829  Biso   1.000  C
  H12      1.0000 0.08250  0.97490  0.99420  Biso   1.000  H
  N9       1.0000 0.08355  0.00990  0.05613  Biso   1.000  N
  C23      1.0000 0.06480  0.99560  0.09133  Biso   1.000  C
  H13      1.0000 0.07430  0.02620  0.11720  Biso   1.000  H
  C24      1.0000 0.03230  0.93640  0.08868  Biso   1.000  C
  H14      1.0000 0.01950  0.92650  0.11270  Biso   1.000  H
  C25      1.0000 0.89440  0.50900  0.96970  Biso   1.000  C
  H15      1.0000 0.86920  0.47890  0.96730  Biso   1.000  H
  C26      1.0000 0.90180  0.58320  0.99660  Biso   1.000  C
  H16      1.0000 0.88210  0.60290  0.01280  Biso   1.000  H
  C27      1.0000 0.71120  0.58650  0.62570  Biso   1.000  C
  H17      1.0000 0.71830  0.64720  0.61940  Biso   1.000  H
  C28      1.0000 0.86300  0.56950  0.81290  Biso   1.000  C
  H18      1.0000 0.87030  0.63090  0.80810  Biso   1.000  H
  N10      1.0000 0.78064  0.53610  0.72389  Biso   1.000  N
  C29      1.0000 0.88240  0.52120  0.84710  Biso   1.000  C
  H19      1.0000 0.90370  0.55030  0.86540  Biso   1.000  H
  C30      1.0000 0.78950  0.96380  0.69270  Biso   1.000  C
  H20      1.0000 0.77290  0.00440  0.67440  Biso   1.000  H
  N11      1.0000 0.95834  0.85430  0.07760  Biso   1.000  N
  C31      1.0000 0.98120  0.83570  0.04850  Biso   1.000  C
  C32      1.0000 0.87980  0.74440  0.12610  Biso   1.000  C
  H21      1.0000 0.87710  0.68700  0.11210  Biso   1.000  H
  C33      1.0000 0.90510  0.80880  0.11460  Biso   1.000  C
  C34      1.0000 0.85840  0.76300  0.15810  Biso   1.000  C
  H22      1.0000 0.84100  0.71710  0.16580  Biso   1.000  H
  C35      1.0000 0.90510  0.89280  0.13370  Biso   1.000  C
  H23      1.0000 0.92060  0.94140  0.12490  Biso   1.000  H
  C36      1.0000 0.88270  0.90660  0.16560  Biso   1.000  C
  H24      1.0000 0.88320  0.96490  0.17870  Biso   1.000  H
  N12      1.0000 0.86046  0.84080  0.17870  Biso   1.000  N
  I7       1.0000 0.26451  0.72715  0.70710  Biso   1.000  I
  I8       1.0000 0.09939  0.76242  0.60588  Biso   1.000  I
  I9       1.0000 0.15306  0.86741  0.49533  Biso   1.000  I
  I10      1.0000 0.37511  0.66038  0.79876  Biso   1.000  I
  I11      1.0000 0.35997  0.76725  0.93928  Biso   1.000  I
  I12      1.0000 0.47068  0.82364  0.87748  Biso   1.000  I
  Zn4      1.0000 0.32932  0.63743  0.72841  Biso   1.000  Zn
  Zn5      1.0000 0.12675  0.89018  0.56414  Biso   1.000  Zn
  Zn6      1.0000 0.40722  0.86932  0.90581  Biso   1.000  Zn
  N13      1.0000 0.31861  0.49850  0.72174  Biso   1.000  N
  N14      1.0000 0.42171  0.97830  0.94692  Biso   1.000  N
  N15      1.0000 0.17050  0.95500  0.60651  Biso   1.000  N
  N16      1.0000 0.47583  0.26570  0.02142  Biso   1.000  N
  N17      1.0000 0.26894  0.17700  0.68688  Biso   1.000  N
  C37      1.0000 0.28270  0.37100  0.68840  Biso   1.000  C
  H25      1.0000 0.26210  0.34820  0.66710  Biso   1.000  H
  N18      1.0000 0.42361  0.21670  0.05823  Biso   1.000  N
  N19      1.0000 0.37294  0.93550  0.85580  Biso   1.000  N
  N20      1.0000 0.32132  0.16520  0.74569  Biso   1.000  N
  C38      1.0000 0.46650  0.09680  0.97610  Biso   1.000  C
  H26      1.0000 0.49180  0.12610  0.97780  Biso   1.000  H
  C39      1.0000 0.18240  0.03990  0.59870  Biso   1.000  C
  H27      1.0000 0.17030  0.06920  0.57330  Biso   1.000  H
  C40      1.0000 0.34160  0.44110  0.74730  Biso   1.000  C
  H28      1.0000 0.36260  0.46540  0.76760  Biso   1.000  H
  C41      1.0000 0.22980  0.04330  0.66250  Biso   1.000  C
  C42      1.0000 0.32340  0.93680  0.79400  Biso   1.000  C
  H29      1.0000 0.30320  0.90510  0.77550  Biso   1.000  H
  C43      1.0000 0.30610  0.31200  0.71530  Biso   1.000  C
  C44      1.0000 0.26158  0.08790  0.69240  Biso   1.000  C
  C45      1.0000 0.34360  0.89420  0.82920  Biso   1.000  C
  H30      1.0000 0.33650  0.83330  0.83510  Biso   1.000  H
  C46      1.0000 0.33610  0.34800  0.74550  Biso   1.000  C
  H31      1.0000 0.35270  0.30900  0.76460  Biso   1.000  H
  C47      1.0000 0.29843  0.21170  0.71500  Biso   1.000  C
  C48      1.0000 0.31050  0.07800  0.74910  Biso   1.000  C
  C49      1.0000 0.43835  0.12870  0.99960  Biso   1.000  C
  C50      1.0000 0.21740  0.95610  0.67060  Biso   1.000  C
  H32      1.0000 0.22940  0.92480  0.69550  Biso   1.000  H
  C51      1.0000 0.33270  0.02650  0.78570  Biso   1.000  C
  C52      1.0000 0.45730  0.02130  0.95010  Biso   1.000  C
  H33      1.0000 0.47680  0.99940  0.93410  Biso   1.000  H
  C53      1.0000 0.43030  0.29250  0.08140  Biso   1.000  C
  C54      1.0000 0.18760  0.91450  0.64220  Biso   1.000  C
  H34      1.0000 0.17890  0.85500  0.64850  Biso   1.000  H
  C55      1.0000 0.44646  0.20810  0.02800  Biso   1.000  C
  C56      1.0000 0.51846  0.39150  0.05083  Biso   1.000  C
  C57      1.0000 0.53718  0.40580  0.01563  Biso   1.000  C
  H35      1.0000 0.52770  0.37520  0.98980  Biso   1.000  H
  C58      1.0000 0.56973  0.46510  0.01829  Biso   1.000  C
  H36      1.0000 0.58250  0.47490  0.99420  Biso   1.000  H
  N21      1.0000 0.58355  0.50990  0.05613  Biso   1.000  N
  C59      1.0000 0.56480  0.49560  0.09133  Biso   1.000  C
  H37      1.0000 0.57430  0.52620  0.11720  Biso   1.000  H
  C60      1.0000 0.53230  0.43640  0.08868  Biso   1.000  C
  H38      1.0000 0.51950  0.42650  0.11270  Biso   1.000  H
  C61      1.0000 0.39440  0.00900  0.96970  Biso   1.000  C
  H39      1.0000 0.36920  0.97890  0.96730  Biso   1.000  H
  C62      1.0000 0.40180  0.08320  0.99660  Biso   1.000  C
  H40      1.0000 0.38210  0.10290  0.01280  Biso   1.000  H
  C63      1.0000 0.21120  0.08650  0.62570  Biso   1.000  C
  H41      1.0000 0.21830  0.14720  0.61940  Biso   1.000  H
  C64      1.0000 0.36300  0.06950  0.81290  Biso   1.000  C
  H42      1.0000 0.37030  0.13090  0.80810  Biso   1.000  H
  N22      1.0000 0.28064  0.03610  0.72389  Biso   1.000  N
  C65      1.0000 0.38240  0.02120  0.84710  Biso   1.000  C
  H43      1.0000 0.40370  0.05030  0.86540  Biso   1.000  H
  C66      1.0000 0.28950  0.46380  0.69270  Biso   1.000  C
  H44      1.0000 0.27290  0.50440  0.67440  Biso   1.000  H
  N23      1.0000 0.45834  0.35430  0.07760  Biso   1.000  N
  C67      1.0000 0.48120  0.33570  0.04850  Biso   1.000  C
  C68      1.0000 0.37980  0.24440  0.12610  Biso   1.000  C
  H45      1.0000 0.37710  0.18700  0.11210  Biso   1.000  H
  C69      1.0000 0.40510  0.30880  0.11460  Biso   1.000  C
  C70      1.0000 0.35840  0.26300  0.15810  Biso   1.000  C
  H46      1.0000 0.34100  0.21710  0.16580  Biso   1.000  H
  C71      1.0000 0.40510  0.39280  0.13370  Biso   1.000  C
  H47      1.0000 0.42060  0.44140  0.12490  Biso   1.000  H
  C72      1.0000 0.38270  0.40660  0.16560  Biso   1.000  C
  H48      1.0000 0.38320  0.46490  0.17870  Biso   1.000  H
  N24      1.0000 0.36046  0.34080  0.17870  Biso   1.000  N
  I13      1.0000 0.76451  0.77285  0.20710  Biso   1.000  I
  I14      1.0000 0.59939  0.73758  0.10588  Biso   1.000  I
  I15      1.0000 0.65306  0.63259  0.99533  Biso   1.000  I
  I16      1.0000 0.87511  0.83962  0.29876  Biso   1.000  I
  I17      1.0000 0.85997  0.73275  0.43928  Biso   1.000  I
  I18      1.0000 0.97068  0.67636  0.37748  Biso   1.000  I
  Zn7      1.0000 0.82932  0.86257  0.22841  Biso   1.000  Zn
  Zn8      1.0000 0.62675  0.60982  0.06414  Biso   1.000  Zn
  Zn9      1.0000 0.90722  0.63068  0.40581  Biso   1.000  Zn
  N25      1.0000 0.81861  0.00150  0.22174  Biso   1.000  N
  N26      1.0000 0.92171  0.52170  0.44692  Biso   1.000  N
  N27      1.0000 0.67050  0.54500  0.10651  Biso   1.000  N
  N28      1.0000 0.97583  0.23430  0.52142  Biso   1.000  N
  N29      1.0000 0.76894  0.32300  0.18688  Biso   1.000  N
  C73      1.0000 0.78270  0.12900  0.18840  Biso   1.000  C
  H49      1.0000 0.76210  0.15180  0.16710  Biso   1.000  H
  N30      1.0000 0.92361  0.28330  0.55823  Biso   1.000  N
  N31      1.0000 0.87294  0.56450  0.35580  Biso   1.000  N
  N32      1.0000 0.82132  0.33480  0.24569  Biso   1.000  N
  C74      1.0000 0.96650  0.40320  0.47610  Biso   1.000  C
  H50      1.0000 0.99180  0.37390  0.47780  Biso   1.000  H
  C75      1.0000 0.68240  0.46010  0.09870  Biso   1.000  C
  H51      1.0000 0.67030  0.43080  0.07330  Biso   1.000  H
  C76      1.0000 0.84160  0.05890  0.24730  Biso   1.000  C
  H52      1.0000 0.86260  0.03460  0.26760  Biso   1.000  H
  C77      1.0000 0.72980  0.45670  0.16250  Biso   1.000  C
  C78      1.0000 0.82340  0.56320  0.29400  Biso   1.000  C
  H53      1.0000 0.80320  0.59490  0.27550  Biso   1.000  H
  C79      1.0000 0.80610  0.18800  0.21530  Biso   1.000  C
  C80      1.0000 0.76158  0.41210  0.19240  Biso   1.000  C
  C81      1.0000 0.84360  0.60580  0.32920  Biso   1.000  C
  H54      1.0000 0.83650  0.66670  0.33510  Biso   1.000  H
  C82      1.0000 0.83610  0.15200  0.24550  Biso   1.000  C
  H55      1.0000 0.85270  0.19100  0.26460  Biso   1.000  H
  C83      1.0000 0.79843  0.28830  0.21500  Biso   1.000  C
  C84      1.0000 0.81050  0.42200  0.24910  Biso   1.000  C
  C85      1.0000 0.93835  0.37130  0.49960  Biso   1.000  C
  C86      1.0000 0.71740  0.54390  0.17060  Biso   1.000  C
  H56      1.0000 0.72940  0.57520  0.19550  Biso   1.000  H
  C87      1.0000 0.83270  0.47350  0.28570  Biso   1.000  C
  C88      1.0000 0.95730  0.47870  0.45010  Biso   1.000  C
  H57      1.0000 0.97680  0.50060  0.43410  Biso   1.000  H
  C89      1.0000 0.93030  0.20750  0.58140  Biso   1.000  C
  C90      1.0000 0.68760  0.58550  0.14220  Biso   1.000  C
  H58      1.0000 0.67890  0.64500  0.14850  Biso   1.000  H
  C91      1.0000 0.94646  0.29190  0.52800  Biso   1.000  C
  C92      1.0000 0.01846  0.10850  0.55083  Biso   1.000  C
  C93      1.0000 0.03718  0.09420  0.51563  Biso   1.000  C
  H59      1.0000 0.02770  0.12480  0.48980  Biso   1.000  H
  C94      1.0000 0.06973  0.03490  0.51829  Biso   1.000  C
  H60      1.0000 0.08250  0.02510  0.49420  Biso   1.000  H
  N33      1.0000 0.08355  0.99010  0.55613  Biso   1.000  N
  C95      1.0000 0.06480  0.00440  0.59133  Biso   1.000  C
  H61      1.0000 0.07430  0.97380  0.61720  Biso   1.000  H
  C96      1.0000 0.03230  0.06360  0.58868  Biso   1.000  C
  H62      1.0000 0.01950  0.07350  0.61270  Biso   1.000  H
  C97      1.0000 0.89440  0.49100  0.46970  Biso   1.000  C
  H63      1.0000 0.86920  0.52110  0.46730  Biso   1.000  H
  C98      1.0000 0.90180  0.41680  0.49660  Biso   1.000  C
  H64      1.0000 0.88210  0.39710  0.51280  Biso   1.000  H
  C99      1.0000 0.71120  0.41350  0.12570  Biso   1.000  C
  H65      1.0000 0.71830  0.35280  0.11940  Biso   1.000  H
  C100     1.0000 0.86300  0.43050  0.31290  Biso   1.000  C
  H66      1.0000 0.87030  0.36910  0.30810  Biso   1.000  H
  N34      1.0000 0.78064  0.46390  0.22389  Biso   1.000  N
  C101     1.0000 0.88240  0.47880  0.34710  Biso   1.000  C
  H67      1.0000 0.90370  0.44970  0.36540  Biso   1.000  H
  C102     1.0000 0.78950  0.03620  0.19270  Biso   1.000  C
  H68      1.0000 0.77290  0.99560  0.17440  Biso   1.000  H
  N35      1.0000 0.95834  0.14570  0.57760  Biso   1.000  N
  C103     1.0000 0.98120  0.16430  0.54850  Biso   1.000  C
  C104     1.0000 0.87980  0.25560  0.62610  Biso   1.000  C
  H69      1.0000 0.87710  0.31300  0.61210  Biso   1.000  H
  C105     1.0000 0.90510  0.19120  0.61460  Biso   1.000  C
  C106     1.0000 0.85840  0.23700  0.65810  Biso   1.000  C
  H70      1.0000 0.84100  0.28290  0.66580  Biso   1.000  H
  C107     1.0000 0.90510  0.10720  0.63370  Biso   1.000  C
  H71      1.0000 0.92060  0.05860  0.62490  Biso   1.000  H
  C108     1.0000 0.88270  0.09340  0.66560  Biso   1.000  C
  H72      1.0000 0.88320  0.03510  0.67870  Biso   1.000  H
  N36      1.0000 0.86046  0.15920  0.67870  Biso   1.000  N
  I19      1.0000 0.26451  0.27285  0.20710  Biso   1.000  I
  I20      1.0000 0.09939  0.23758  0.10588  Biso   1.000  I
  I21      1.0000 0.15306  0.13259  0.99533  Biso   1.000  I
  I22      1.0000 0.37511  0.33962  0.29876  Biso   1.000  I
  I23      1.0000 0.35997  0.23275  0.43928  Biso   1.000  I
  I24      1.0000 0.47068  0.17636  0.37748  Biso   1.000  I
  Zn10     1.0000 0.32932  0.36257  0.22841  Biso   1.000  Zn
  Zn11     1.0000 0.12675  0.10982  0.06414  Biso   1.000  Zn
  Zn12     1.0000 0.40722  0.13068  0.40581  Biso   1.000  Zn
  N37      1.0000 0.31861  0.50150  0.22174  Biso   1.000  N
  N38      1.0000 0.42171  0.02170  0.44692  Biso   1.000  N
  N39      1.0000 0.17050  0.04500  0.10651  Biso   1.000  N
  N40      1.0000 0.47583  0.73430  0.52142  Biso   1.000  N
  N41      1.0000 0.26894  0.82300  0.18688  Biso   1.000  N
  C109     1.0000 0.28270  0.62900  0.18840  Biso   1.000  C
  H73      1.0000 0.26210  0.65180  0.16710  Biso   1.000  H
  N42      1.0000 0.42361  0.78330  0.55823  Biso   1.000  N
  N43      1.0000 0.37294  0.06450  0.35580  Biso   1.000  N
  N44      1.0000 0.32132  0.83480  0.24569  Biso   1.000  N
  C110     1.0000 0.46650  0.90320  0.47610  Biso   1.000  C
  H74      1.0000 0.49180  0.87390  0.47780  Biso   1.000  H
  C111     1.0000 0.18240  0.96010  0.09870  Biso   1.000  C
  H75      1.0000 0.17030  0.93080  0.07330  Biso   1.000  H
  C112     1.0000 0.34160  0.55890  0.24730  Biso   1.000  C
  H76      1.0000 0.36260  0.53460  0.26760  Biso   1.000  H
  C113     1.0000 0.22980  0.95670  0.16250  Biso   1.000  C
  C114     1.0000 0.32340  0.06320  0.29400  Biso   1.000  C
  H77      1.0000 0.30320  0.09490  0.27550  Biso   1.000  H
  C115     1.0000 0.30610  0.68800  0.21530  Biso   1.000  C
  C116     1.0000 0.26158  0.91210  0.19240  Biso   1.000  C
  C117     1.0000 0.34360  0.10580  0.32920  Biso   1.000  C
  H78      1.0000 0.33650  0.16670  0.33510  Biso   1.000  H
  C118     1.0000 0.33610  0.65200  0.24550  Biso   1.000  C
  H79      1.0000 0.35270  0.69100  0.26460  Biso   1.000  H
  C119     1.0000 0.29843  0.78830  0.21500  Biso   1.000  C
  C120     1.0000 0.31050  0.92200  0.24910  Biso   1.000  C
  C121     1.0000 0.43835  0.87130  0.49960  Biso   1.000  C
  C122     1.0000 0.21740  0.04390  0.17060  Biso   1.000  C
  H80      1.0000 0.22940  0.07520  0.19550  Biso   1.000  H
  C123     1.0000 0.33270  0.97350  0.28570  Biso   1.000  C
  C124     1.0000 0.45730  0.97870  0.45010  Biso   1.000  C
  H81      1.0000 0.47680  0.00060  0.43410  Biso   1.000  H
  C125     1.0000 0.43030  0.70750  0.58140  Biso   1.000  C
  C126     1.0000 0.18760  0.08550  0.14220  Biso   1.000  C
  H82      1.0000 0.17890  0.14500  0.14850  Biso   1.000  H
  C127     1.0000 0.44646  0.79190  0.52800  Biso   1.000  C
  C128     1.0000 0.51846  0.60850  0.55083  Biso   1.000  C
  C129     1.0000 0.53718  0.59420  0.51563  Biso   1.000  C
  H83      1.0000 0.52770  0.62480  0.48980  Biso   1.000  H
  C130     1.0000 0.56973  0.53490  0.51829  Biso   1.000  C
  H84      1.0000 0.58250  0.52510  0.49420  Biso   1.000  H
  N45      1.0000 0.58355  0.49010  0.55613  Biso   1.000  N
  C131     1.0000 0.56480  0.50440  0.59133  Biso   1.000  C
  H85      1.0000 0.57430  0.47380  0.61720  Biso   1.000  H
  C132     1.0000 0.53230  0.56360  0.58868  Biso   1.000  C
  H86      1.0000 0.51950  0.57350  0.61270  Biso   1.000  H
  C133     1.0000 0.39440  0.99100  0.46970  Biso   1.000  C
  H87      1.0000 0.36920  0.02110  0.46730  Biso   1.000  H
  C134     1.0000 0.40180  0.91680  0.49660  Biso   1.000  C
  H88      1.0000 0.38210  0.89710  0.51280  Biso   1.000  H
  C135     1.0000 0.21120  0.91350  0.12570  Biso   1.000  C
  H89      1.0000 0.21830  0.85280  0.11940  Biso   1.000  H
  C136     1.0000 0.36300  0.93050  0.31290  Biso   1.000  C
  H90      1.0000 0.37030  0.86910  0.30810  Biso   1.000  H
  N46      1.0000 0.28064  0.96390  0.22389  Biso   1.000  N
  C137     1.0000 0.38240  0.97880  0.34710  Biso   1.000  C
  H91      1.0000 0.40370  0.94970  0.36540  Biso   1.000  H
  C138     1.0000 0.28950  0.53620  0.19270  Biso   1.000  C
  H92      1.0000 0.27290  0.49560  0.17440  Biso   1.000  H
  N47      1.0000 0.45834  0.64570  0.57760  Biso   1.000  N
  C139     1.0000 0.48120  0.66430  0.54850  Biso   1.000  C
  C140     1.0000 0.37980  0.75560  0.62610  Biso   1.000  C
  H93      1.0000 0.37710  0.81300  0.61210  Biso   1.000  H
  C141     1.0000 0.40510  0.69120  0.61460  Biso   1.000  C
  C142     1.0000 0.35840  0.73700  0.65810  Biso   1.000  C
  H94      1.0000 0.34100  0.78290  0.66580  Biso   1.000  H
  C143     1.0000 0.40510  0.60720  0.63370  Biso   1.000  C
  H95      1.0000 0.42060  0.55860  0.62490  Biso   1.000  H
  C144     1.0000 0.38270  0.59340  0.66560  Biso   1.000  C
  H96      1.0000 0.38320  0.53510  0.67870  Biso   1.000  H
  N48      1.0000 0.36046  0.65920  0.67870  Biso   1.000  N
  I25      1.0000 0.23549  0.22715  0.79290  Biso   1.000  I
  I26      1.0000 0.40061  0.26242  0.89412  Biso   1.000  I
  I27      1.0000 0.34694  0.36741  0.00467  Biso   1.000  I
  I28      1.0000 0.12489  0.16038  0.70124  Biso   1.000  I
  I29      1.0000 0.14003  0.26725  0.56072  Biso   1.000  I
  I30      1.0000 0.02932  0.32364  0.62252  Biso   1.000  I
  Zn13     1.0000 0.17068  0.13743  0.77159  Biso   1.000  Zn
  Zn14     1.0000 0.37325  0.39018  0.93586  Biso   1.000  Zn
  Zn15     1.0000 0.09278  0.36932  0.59419  Biso   1.000  Zn
  N49      1.0000 0.18139  0.99850  0.77826  Biso   1.000  N
  N50      1.0000 0.07829  0.47830  0.55308  Biso   1.000  N
  N51      1.0000 0.32950  0.45500  0.89349  Biso   1.000  N
  N52      1.0000 0.02417  0.76570  0.47858  Biso   1.000  N
  N53      1.0000 0.23106  0.67700  0.81312  Biso   1.000  N
  C145     1.0000 0.21730  0.87100  0.81160  Biso   1.000  C
  H97      1.0000 0.23790  0.84820  0.83290  Biso   1.000  H
  N54      1.0000 0.07639  0.71670  0.44177  Biso   1.000  N
  N55      1.0000 0.12706  0.43550  0.64420  Biso   1.000  N
  N56      1.0000 0.17868  0.66520  0.75431  Biso   1.000  N
  C146     1.0000 0.03350  0.59680  0.52390  Biso   1.000  C
  H98      1.0000 0.00820  0.62610  0.52220  Biso   1.000  H
  C147     1.0000 0.31760  0.53990  0.90130  Biso   1.000  C
  H99      1.0000 0.32970  0.56920  0.92670  Biso   1.000  H
  C148     1.0000 0.15840  0.94110  0.75270  Biso   1.000  C
  H100     1.0000 0.13740  0.96540  0.73240  Biso   1.000  H
  C149     1.0000 0.27020  0.54330  0.83750  Biso   1.000  C
  C150     1.0000 0.17660  0.43680  0.70600  Biso   1.000  C
  H101     1.0000 0.19680  0.40510  0.72450  Biso   1.000  H
  C151     1.0000 0.19390  0.81200  0.78470  Biso   1.000  C
  C152     1.0000 0.23842  0.58790  0.80760  Biso   1.000  C
  C153     1.0000 0.15640  0.39420  0.67080  Biso   1.000  C
  H102     1.0000 0.16350  0.33330  0.66490  Biso   1.000  H
  C154     1.0000 0.16390  0.84800  0.75450  Biso   1.000  C
  H103     1.0000 0.14730  0.80900  0.73540  Biso   1.000  H
  C155     1.0000 0.20157  0.71170  0.78500  Biso   1.000  C
  C156     1.0000 0.18950  0.57800  0.75090  Biso   1.000  C
  C157     1.0000 0.06165  0.62870  0.50040  Biso   1.000  C
  C158     1.0000 0.28260  0.45610  0.82940  Biso   1.000  C
  H104     1.0000 0.27060  0.42480  0.80450  Biso   1.000  H
  C159     1.0000 0.16730  0.52650  0.71430  Biso   1.000  C
  C160     1.0000 0.04270  0.52130  0.54990  Biso   1.000  C
  H105     1.0000 0.02320  0.49940  0.56590  Biso   1.000  H
  C161     1.0000 0.06970  0.79250  0.41860  Biso   1.000  C
  C162     1.0000 0.31240  0.41450  0.85780  Biso   1.000  C
  H106     1.0000 0.32110  0.35500  0.85150  Biso   1.000  H
  C163     1.0000 0.05354  0.70810  0.47200  Biso   1.000  C
  C164     1.0000 0.98154  0.89150  0.44917  Biso   1.000  C
  C165     1.0000 0.96282  0.90580  0.48437  Biso   1.000  C
  H107     1.0000 0.97230  0.87520  0.51020  Biso   1.000  H
  C166     1.0000 0.93027  0.96510  0.48171  Biso   1.000  C
  H108     1.0000 0.91750  0.97490  0.50580  Biso   1.000  H
  N57      1.0000 0.91645  0.00990  0.44387  Biso   1.000  N
  C167     1.0000 0.93520  0.99560  0.40867  Biso   1.000  C
  H109     1.0000 0.92570  0.02620  0.38280  Biso   1.000  H
  C168     1.0000 0.96770  0.93640  0.41132  Biso   1.000  C
  H110     1.0000 0.98050  0.92650  0.38730  Biso   1.000  H
  C169     1.0000 0.10560  0.50900  0.53030  Biso   1.000  C
  H111     1.0000 0.13080  0.47890  0.53270  Biso   1.000  H
  C170     1.0000 0.09820  0.58320  0.50340  Biso   1.000  C
  H112     1.0000 0.11790  0.60290  0.48720  Biso   1.000  H
  C171     1.0000 0.28880  0.58650  0.87430  Biso   1.000  C
  H113     1.0000 0.28170  0.64720  0.88060  Biso   1.000  H
  C172     1.0000 0.13700  0.56950  0.68710  Biso   1.000  C
  H114     1.0000 0.12970  0.63090  0.69190  Biso   1.000  H
  N58      1.0000 0.21936  0.53610  0.77611  Biso   1.000  N
  C173     1.0000 0.11760  0.52120  0.65290  Biso   1.000  C
  H115     1.0000 0.09630  0.55030  0.63460  Biso   1.000  H
  C174     1.0000 0.21050  0.96380  0.80730  Biso   1.000  C
  H116     1.0000 0.22710  0.00440  0.82560  Biso   1.000  H
  N59      1.0000 0.04166  0.85430  0.42240  Biso   1.000  N
  C175     1.0000 0.01880  0.83570  0.45150  Biso   1.000  C
  C176     1.0000 0.12020  0.74440  0.37390  Biso   1.000  C
  H117     1.0000 0.12290  0.68700  0.38790  Biso   1.000  H
  C177     1.0000 0.09490  0.80880  0.38540  Biso   1.000  C
  C178     1.0000 0.14160  0.76300  0.34190  Biso   1.000  C
  H118     1.0000 0.15900  0.71710  0.33420  Biso   1.000  H
  C179     1.0000 0.09490  0.89280  0.36630  Biso   1.000  C
  H119     1.0000 0.07940  0.94140  0.37510  Biso   1.000  H
  C180     1.0000 0.11730  0.90660  0.33440  Biso   1.000  C
  H120     1.0000 0.11680  0.96490  0.32130  Biso   1.000  H
  N60      1.0000 0.13954  0.84080  0.32130  Biso   1.000  N
  I31      1.0000 0.73549  0.72715  0.79290  Biso   1.000  I
  I32      1.0000 0.90061  0.76242  0.89412  Biso   1.000  I
  I33      1.0000 0.84694  0.86741  0.00467  Biso   1.000  I
  I34      1.0000 0.62489  0.66038  0.70124  Biso   1.000  I
  I35      1.0000 0.64003  0.76725  0.56072  Biso   1.000  I
  I36      1.0000 0.52932  0.82364  0.62252  Biso   1.000  I
  Zn16     1.0000 0.67068  0.63743  0.77159  Biso   1.000  Zn
  Zn17     1.0000 0.87325  0.89018  0.93586  Biso   1.000  Zn
  Zn18     1.0000 0.59278  0.86932  0.59419  Biso   1.000  Zn
  N61      1.0000 0.68139  0.49850  0.77826  Biso   1.000  N
  N62      1.0000 0.57829  0.97830  0.55308  Biso   1.000  N
  N63      1.0000 0.82950  0.95500  0.89349  Biso   1.000  N
  N64      1.0000 0.52417  0.26570  0.47858  Biso   1.000  N
  N65      1.0000 0.73106  0.17700  0.81312  Biso   1.000  N
  C181     1.0000 0.71730  0.37100  0.81160  Biso   1.000  C
  H121     1.0000 0.73790  0.34820  0.83290  Biso   1.000  H
  N66      1.0000 0.57639  0.21670  0.44177  Biso   1.000  N
  N67      1.0000 0.62706  0.93550  0.64420  Biso   1.000  N
  N68      1.0000 0.67868  0.16520  0.75431  Biso   1.000  N
  C182     1.0000 0.53350  0.09680  0.52390  Biso   1.000  C
  H122     1.0000 0.50820  0.12610  0.52220  Biso   1.000  H
  C183     1.0000 0.81760  0.03990  0.90130  Biso   1.000  C
  H123     1.0000 0.82970  0.06920  0.92670  Biso   1.000  H
  C184     1.0000 0.65840  0.44110  0.75270  Biso   1.000  C
  H124     1.0000 0.63740  0.46540  0.73240  Biso   1.000  H
  C185     1.0000 0.77020  0.04330  0.83750  Biso   1.000  C
  C186     1.0000 0.67660  0.93680  0.70600  Biso   1.000  C
  H125     1.0000 0.69680  0.90510  0.72450  Biso   1.000  H
  C187     1.0000 0.69390  0.31200  0.78470  Biso   1.000  C
  C188     1.0000 0.73842  0.08790  0.80760  Biso   1.000  C
  C189     1.0000 0.65640  0.89420  0.67080  Biso   1.000  C
  H126     1.0000 0.66350  0.83330  0.66490  Biso   1.000  H
  C190     1.0000 0.66390  0.34800  0.75450  Biso   1.000  C
  H127     1.0000 0.64730  0.30900  0.73540  Biso   1.000  H
  C191     1.0000 0.70157  0.21170  0.78500  Biso   1.000  C
  C192     1.0000 0.68950  0.07800  0.75090  Biso   1.000  C
  C193     1.0000 0.56165  0.12870  0.50040  Biso   1.000  C
  C194     1.0000 0.78260  0.95610  0.82940  Biso   1.000  C
  H128     1.0000 0.77060  0.92480  0.80450  Biso   1.000  H
  C195     1.0000 0.66730  0.02650  0.71430  Biso   1.000  C
  C196     1.0000 0.54270  0.02130  0.54990  Biso   1.000  C
  H129     1.0000 0.52320  0.99940  0.56590  Biso   1.000  H
  C197     1.0000 0.56970  0.29250  0.41860  Biso   1.000  C
  C198     1.0000 0.81240  0.91450  0.85780  Biso   1.000  C
  H130     1.0000 0.82110  0.85500  0.85150  Biso   1.000  H
  C199     1.0000 0.55354  0.20810  0.47200  Biso   1.000  C
  C200     1.0000 0.48154  0.39150  0.44917  Biso   1.000  C
  C201     1.0000 0.46282  0.40580  0.48437  Biso   1.000  C
  H131     1.0000 0.47230  0.37520  0.51020  Biso   1.000  H
  C202     1.0000 0.43027  0.46510  0.48171  Biso   1.000  C
  H132     1.0000 0.41750  0.47490  0.50580  Biso   1.000  H
  N69      1.0000 0.41645  0.50990  0.44387  Biso   1.000  N
  C203     1.0000 0.43520  0.49560  0.40867  Biso   1.000  C
  H133     1.0000 0.42570  0.52620  0.38280  Biso   1.000  H
  C204     1.0000 0.46770  0.43640  0.41132  Biso   1.000  C
  H134     1.0000 0.48050  0.42650  0.38730  Biso   1.000  H
  C205     1.0000 0.60560  0.00900  0.53030  Biso   1.000  C
  H135     1.0000 0.63080  0.97890  0.53270  Biso   1.000  H
  C206     1.0000 0.59820  0.08320  0.50340  Biso   1.000  C
  H136     1.0000 0.61790  0.10290  0.48720  Biso   1.000  H
  C207     1.0000 0.78880  0.08650  0.87430  Biso   1.000  C
  H137     1.0000 0.78170  0.14720  0.88060  Biso   1.000  H
  C208     1.0000 0.63700  0.06950  0.68710  Biso   1.000  C
  H138     1.0000 0.62970  0.13090  0.69190  Biso   1.000  H
  N70      1.0000 0.71936  0.03610  0.77611  Biso   1.000  N
  C209     1.0000 0.61760  0.02120  0.65290  Biso   1.000  C
  H139     1.0000 0.59630  0.05030  0.63460  Biso   1.000  H
  C210     1.0000 0.71050  0.46380  0.80730  Biso   1.000  C
  H140     1.0000 0.72710  0.50440  0.82560  Biso   1.000  H
  N71      1.0000 0.54166  0.35430  0.42240  Biso   1.000  N
  C211     1.0000 0.51880  0.33570  0.45150  Biso   1.000  C
  C212     1.0000 0.62020  0.24440  0.37390  Biso   1.000  C
  H141     1.0000 0.62290  0.18700  0.38790  Biso   1.000  H
  C213     1.0000 0.59490  0.30880  0.38540  Biso   1.000  C
  C214     1.0000 0.64160  0.26300  0.34190  Biso   1.000  C
  H142     1.0000 0.65900  0.21710  0.33420  Biso   1.000  H
  C215     1.0000 0.59490  0.39280  0.36630  Biso   1.000  C
  H143     1.0000 0.57940  0.44140  0.37510  Biso   1.000  H
  C216     1.0000 0.61730  0.40660  0.33440  Biso   1.000  C
  H144     1.0000 0.61680  0.46490  0.32130  Biso   1.000  H
  N72      1.0000 0.63954  0.34080  0.32130  Biso   1.000  N
  I37      1.0000 0.23549  0.77285  0.29290  Biso   1.000  I
  I38      1.0000 0.40061  0.73758  0.39412  Biso   1.000  I
  I39      1.0000 0.34694  0.63259  0.50467  Biso   1.000  I
  I40      1.0000 0.12489  0.83962  0.20124  Biso   1.000  I
  I41      1.0000 0.14003  0.73275  0.06072  Biso   1.000  I
  I42      1.0000 0.02932  0.67636  0.12252  Biso   1.000  I
  Zn19     1.0000 0.17068  0.86257  0.27159  Biso   1.000  Zn
  Zn20     1.0000 0.37325  0.60982  0.43586  Biso   1.000  Zn
  Zn21     1.0000 0.09278  0.63068  0.09419  Biso   1.000  Zn
  N73      1.0000 0.18139  0.00150  0.27826  Biso   1.000  N
  N74      1.0000 0.07829  0.52170  0.05308  Biso   1.000  N
  N75      1.0000 0.32950  0.54500  0.39349  Biso   1.000  N
  N76      1.0000 0.02417  0.23430  0.97858  Biso   1.000  N
  N77      1.0000 0.23106  0.32300  0.31312  Biso   1.000  N
  C217     1.0000 0.21730  0.12900  0.31160  Biso   1.000  C
  H145     1.0000 0.23790  0.15180  0.33290  Biso   1.000  H
  N78      1.0000 0.07639  0.28330  0.94177  Biso   1.000  N
  N79      1.0000 0.12706  0.56450  0.14420  Biso   1.000  N
  N80      1.0000 0.17868  0.33480  0.25431  Biso   1.000  N
  C218     1.0000 0.03350  0.40320  0.02390  Biso   1.000  C
  H146     1.0000 0.00820  0.37390  0.02220  Biso   1.000  H
  C219     1.0000 0.31760  0.46010  0.40130  Biso   1.000  C
  H147     1.0000 0.32970  0.43080  0.42670  Biso   1.000  H
  C220     1.0000 0.15840  0.05890  0.25270  Biso   1.000  C
  H148     1.0000 0.13740  0.03460  0.23240  Biso   1.000  H
  C221     1.0000 0.27020  0.45670  0.33750  Biso   1.000  C
  C222     1.0000 0.17660  0.56320  0.20600  Biso   1.000  C
  H149     1.0000 0.19680  0.59490  0.22450  Biso   1.000  H
  C223     1.0000 0.19390  0.18800  0.28470  Biso   1.000  C
  C224     1.0000 0.23842  0.41210  0.30760  Biso   1.000  C
  C225     1.0000 0.15640  0.60580  0.17080  Biso   1.000  C
  H150     1.0000 0.16350  0.66670  0.16490  Biso   1.000  H
  C226     1.0000 0.16390  0.15200  0.25450  Biso   1.000  C
  H151     1.0000 0.14730  0.19100  0.23540  Biso   1.000  H
  C227     1.0000 0.20157  0.28830  0.28500  Biso   1.000  C
  C228     1.0000 0.18950  0.42200  0.25090  Biso   1.000  C
  C229     1.0000 0.06165  0.37130  0.00040  Biso   1.000  C
  C230     1.0000 0.28260  0.54390  0.32940  Biso   1.000  C
  H152     1.0000 0.27060  0.57520  0.30450  Biso   1.000  H
  C231     1.0000 0.16730  0.47350  0.21430  Biso   1.000  C
  C232     1.0000 0.04270  0.47870  0.04990  Biso   1.000  C
  H153     1.0000 0.02320  0.50060  0.06590  Biso   1.000  H
  C233     1.0000 0.06970  0.20750  0.91860  Biso   1.000  C
  C234     1.0000 0.31240  0.58550  0.35780  Biso   1.000  C
  H154     1.0000 0.32110  0.64500  0.35150  Biso   1.000  H
  C235     1.0000 0.05354  0.29190  0.97200  Biso   1.000  C
  C236     1.0000 0.98154  0.10850  0.94917  Biso   1.000  C
  C237     1.0000 0.96282  0.09420  0.98437  Biso   1.000  C
  H155     1.0000 0.97230  0.12480  0.01020  Biso   1.000  H
  C238     1.0000 0.93027  0.03490  0.98171  Biso   1.000  C
  H156     1.0000 0.91750  0.02510  0.00580  Biso   1.000  H
  N81      1.0000 0.91645  0.99010  0.94387  Biso   1.000  N
  C239     1.0000 0.93520  0.00440  0.90867  Biso   1.000  C
  H157     1.0000 0.92570  0.97380  0.88280  Biso   1.000  H
  C240     1.0000 0.96770  0.06360  0.91132  Biso   1.000  C
  H158     1.0000 0.98050  0.07350  0.88730  Biso   1.000  H
  C241     1.0000 0.10560  0.49100  0.03030  Biso   1.000  C
  H159     1.0000 0.13080  0.52110  0.03270  Biso   1.000  H
  C242     1.0000 0.09820  0.41680  0.00340  Biso   1.000  C
  H160     1.0000 0.11790  0.39710  0.98720  Biso   1.000  H
  C243     1.0000 0.28880  0.41350  0.37430  Biso   1.000  C
  H161     1.0000 0.28170  0.35280  0.38060  Biso   1.000  H
  C244     1.0000 0.13700  0.43050  0.18710  Biso   1.000  C
  H162     1.0000 0.12970  0.36910  0.19190  Biso   1.000  H
  N82      1.0000 0.21936  0.46390  0.27611  Biso   1.000  N
  C245     1.0000 0.11760  0.47880  0.15290  Biso   1.000  C
  H163     1.0000 0.09630  0.44970  0.13460  Biso   1.000  H
  C246     1.0000 0.21050  0.03620  0.30730  Biso   1.000  C
  H164     1.0000 0.22710  0.99560  0.32560  Biso   1.000  H
  N83      1.0000 0.04166  0.14570  0.92240  Biso   1.000  N
  C247     1.0000 0.01880  0.16430  0.95150  Biso   1.000  C
  C248     1.0000 0.12020  0.25560  0.87390  Biso   1.000  C
  H165     1.0000 0.12290  0.31300  0.88790  Biso   1.000  H
  C249     1.0000 0.09490  0.19120  0.88540  Biso   1.000  C
  C250     1.0000 0.14160  0.23700  0.84190  Biso   1.000  C
  H166     1.0000 0.15900  0.28290  0.83420  Biso   1.000  H
  C251     1.0000 0.09490  0.10720  0.86630  Biso   1.000  C
  H167     1.0000 0.07940  0.05860  0.87510  Biso   1.000  H
  C252     1.0000 0.11730  0.09340  0.83440  Biso   1.000  C
  H168     1.0000 0.11680  0.03510  0.82130  Biso   1.000  H
  N84      1.0000 0.13954  0.15920  0.82130  Biso   1.000  N
  I43      1.0000 0.73549  0.27285  0.29290  Biso   1.000  I
  I44      1.0000 0.90061  0.23758  0.39412  Biso   1.000  I
  I45      1.0000 0.84694  0.13259  0.50467  Biso   1.000  I
  I46      1.0000 0.62489  0.33962  0.20124  Biso   1.000  I
  I47      1.0000 0.64003  0.23275  0.06072  Biso   1.000  I
  I48      1.0000 0.52932  0.17636  0.12252  Biso   1.000  I
  Zn22     1.0000 0.67068  0.36257  0.27159  Biso   1.000  Zn
  Zn23     1.0000 0.87325  0.10982  0.43586  Biso   1.000  Zn
  Zn24     1.0000 0.59278  0.13068  0.09419  Biso   1.000  Zn
  N85      1.0000 0.68139  0.50150  0.27826  Biso   1.000  N
  N86      1.0000 0.57829  0.02170  0.05308  Biso   1.000  N
  N87      1.0000 0.82950  0.04500  0.39349  Biso   1.000  N
  N88      1.0000 0.52417  0.73430  0.97858  Biso   1.000  N
  N89      1.0000 0.73106  0.82300  0.31312  Biso   1.000  N
  C253     1.0000 0.71730  0.62900  0.31160  Biso   1.000  C
  H169     1.0000 0.73790  0.65180  0.33290  Biso   1.000  H
  N90      1.0000 0.57639  0.78330  0.94177  Biso   1.000  N
  N91      1.0000 0.62706  0.06450  0.14420  Biso   1.000  N
  N92      1.0000 0.67868  0.83480  0.25431  Biso   1.000  N
  C254     1.0000 0.53350  0.90320  0.02390  Biso   1.000  C
  H170     1.0000 0.50820  0.87390  0.02220  Biso   1.000  H
  C255     1.0000 0.81760  0.96010  0.40130  Biso   1.000  C
  H171     1.0000 0.82970  0.93080  0.42670  Biso   1.000  H
  C256     1.0000 0.65840  0.55890  0.25270  Biso   1.000  C
  H172     1.0000 0.63740  0.53460  0.23240  Biso   1.000  H
  C257     1.0000 0.77020  0.95670  0.33750  Biso   1.000  C
  C258     1.0000 0.67660  0.06320  0.20600  Biso   1.000  C
  H173     1.0000 0.69680  0.09490  0.22450  Biso   1.000  H
  C259     1.0000 0.69390  0.68800  0.28470  Biso   1.000  C
  C260     1.0000 0.73842  0.91210  0.30760  Biso   1.000  C
  C261     1.0000 0.65640  0.10580  0.17080  Biso   1.000  C
  H174     1.0000 0.66350  0.16670  0.16490  Biso   1.000  H
  C262     1.0000 0.66390  0.65200  0.25450  Biso   1.000  C
  H175     1.0000 0.64730  0.69100  0.23540  Biso   1.000  H
  C263     1.0000 0.70157  0.78830  0.28500  Biso   1.000  C
  C264     1.0000 0.68950  0.92200  0.25090  Biso   1.000  C
  C265     1.0000 0.56165  0.87130  0.00040  Biso   1.000  C
  C266     1.0000 0.78260  0.04390  0.32940  Biso   1.000  C
  H176     1.0000 0.77060  0.07520  0.30450  Biso   1.000  H
  C267     1.0000 0.66730  0.97350  0.21430  Biso   1.000  C
  C268     1.0000 0.54270  0.97870  0.04990  Biso   1.000  C
  H177     1.0000 0.52320  0.00060  0.06590  Biso   1.000  H
  C269     1.0000 0.56970  0.70750  0.91860  Biso   1.000  C
  C270     1.0000 0.81240  0.08550  0.35780  Biso   1.000  C
  H178     1.0000 0.82110  0.14500  0.35150  Biso   1.000  H
  C271     1.0000 0.55354  0.79190  0.97200  Biso   1.000  C
  C272     1.0000 0.48154  0.60850  0.94917  Biso   1.000  C
  C273     1.0000 0.46282  0.59420  0.98437  Biso   1.000  C
  H179     1.0000 0.47230  0.62480  0.01020  Biso   1.000  H
  C274     1.0000 0.43027  0.53490  0.98171  Biso   1.000  C
  H180     1.0000 0.41750  0.52510  0.00580  Biso   1.000  H
  N93      1.0000 0.41645  0.49010  0.94387  Biso   1.000  N
  C275     1.0000 0.43520  0.50440  0.90867  Biso   1.000  C
  H181     1.0000 0.42570  0.47380  0.88280  Biso   1.000  H
  C276     1.0000 0.46770  0.56360  0.91132  Biso   1.000  C
  H182     1.0000 0.48050  0.57350  0.88730  Biso   1.000  H
  C277     1.0000 0.60560  0.99100  0.03030  Biso   1.000  C
  H183     1.0000 0.63080  0.02110  0.03270  Biso   1.000  H
  C278     1.0000 0.59820  0.91680  0.00340  Biso   1.000  C
  H184     1.0000 0.61790  0.89710  0.98720  Biso   1.000  H
  C279     1.0000 0.78880  0.91350  0.37430  Biso   1.000  C
  H185     1.0000 0.78170  0.85280  0.38060  Biso   1.000  H
  C280     1.0000 0.63700  0.93050  0.18710  Biso   1.000  C
  H186     1.0000 0.62970  0.86910  0.19190  Biso   1.000  H
  N94      1.0000 0.71936  0.96390  0.27611  Biso   1.000  N
  C281     1.0000 0.61760  0.97880  0.15290  Biso   1.000  C
  H187     1.0000 0.59630  0.94970  0.13460  Biso   1.000  H
  C282     1.0000 0.71050  0.53620  0.30730  Biso   1.000  C
  H188     1.0000 0.72710  0.49560  0.32560  Biso   1.000  H
  N95      1.0000 0.54166  0.64570  0.92240  Biso   1.000  N
  C283     1.0000 0.51880  0.66430  0.95150  Biso   1.000  C
  C284     1.0000 0.62020  0.75560  0.87390  Biso   1.000  C
  H189     1.0000 0.62290  0.81300  0.88790  Biso   1.000  H
  C285     1.0000 0.59490  0.69120  0.88540  Biso   1.000  C
  C286     1.0000 0.64160  0.73700  0.84190  Biso   1.000  C
  H190     1.0000 0.65900  0.78290  0.83420  Biso   1.000  H
  C287     1.0000 0.59490  0.60720  0.86630  Biso   1.000  C
  H191     1.0000 0.57940  0.55860  0.87510  Biso   1.000  H
  C288     1.0000 0.61730  0.59340  0.83440  Biso   1.000  C
  H192     1.0000 0.61680  0.53510  0.82130  Biso   1.000  H
  N96      1.0000 0.63954  0.65920  0.82130  Biso   1.000  N
