data_image0
_cell_length_a       24.7139
_cell_length_b       20.7704
_cell_length_c       24.9502
_cell_angle_alpha    90
_cell_angle_beta     99.081
_cell_angle_gamma    90

_symmetry_space_group_name_H-M    "P 1"
_symmetry_int_tables_number       1

loop_
  _symmetry_equiv_pos_as_xyz
  'x, y, z'

loop_
  _atom_site_label
  _atom_site_occupancy
  _atom_site_fract_x
  _atom_site_fract_y
  _atom_site_fract_z
  _atom_site_thermal_displace_type
  _atom_site_B_iso_or_equiv
  _atom_site_type_symbol
  Gd1      1.0000 0.78815  0.53497  0.87552  Biso   1.000  Gd
  O1       1.0000 0.81375  0.56430  0.79120  Biso   1.000  O
  O2       1.0000 0.76546  0.45000  0.81090  Biso   1.000  O
  O3       1.0000 0.86988  0.47900  0.86959  Biso   1.000  O
  O4       1.0000 0.85090  0.62000  0.90340  Biso   1.000  O
  O5       1.0000 0.70850  0.59630  0.83720  Biso   1.000  O
  O6       1.0000 0.74160  0.61180  0.92440  Biso   1.000  O
  O7       1.0000 0.80450  0.47550  0.95670  Biso   1.000  O
  Gd2      1.0000 0.91354  0.53312  0.80463  Biso   1.000  Gd
  Gd3      1.0000 0.77177  0.49412  0.72173  Biso   1.000  Gd
  H1       1.0000 0.80830  0.60390  0.78350  Biso   1.000  H
  Gd4      1.0000 0.84192  0.37577  0.83473  Biso   1.000  Gd
  H2       1.0000 0.73460  0.43290  0.81260  Biso   1.000  H
  H3       1.0000 0.89050  0.47650  0.90020  Biso   1.000  H
  O8       1.0000 0.85669  0.45120  0.76318  Biso   1.000  O
  O9       1.0000 0.96870  0.44240  0.80820  Biso   1.000  O
  O10      1.0000 0.90550  0.63640  0.84140  Biso   1.000  O
  O11      1.0000 0.90590  0.59040  0.72340  Biso   1.000  O
  O12      1.0000 0.70127  0.42500  0.68292  Biso   1.000  O
  O13      1.0000 0.72600  0.53520  0.63538  Biso   1.000  O
  O14      1.0000 0.68238  0.53860  0.73011  Biso   1.000  O
  O15      1.0000 0.81390  0.42290  0.66312  Biso   1.000  O
  O16      1.0000 0.82760  0.56130  0.67320  Biso   1.000  O
  O17      1.0000 0.87550  0.27380  0.88100  Biso   1.000  O
  O18      1.0000 0.91790  0.36220  0.91430  Biso   1.000  O
  O19      1.0000 0.92760  0.34670  0.80180  Biso   1.000  O
  O20      1.0000 0.75980  0.30650  0.81417  Biso   1.000  O
  O21      1.0000 0.81210  0.31690  0.75088  Biso   1.000  O
  O22      1.0000 0.80180  0.37580  0.91931  Biso   1.000  O
  H4       1.0000 0.87220  0.43200  0.73960  Biso   1.000  H
  Gd5      1.0000 0.68220  0.45027  0.58335  Biso   1.000  Gd
  Gd6      1.0000 0.61574  0.45181  0.70796  Biso   1.000  Gd
  H5       1.0000 0.70940  0.38560  0.68890  Biso   1.000  H
  Gd7      1.0000 0.65736  0.60991  0.65586  Biso   1.000  Gd
  H6       1.0000 0.74870  0.55400  0.61840  Biso   1.000  H
  H7       1.0000 0.68120  0.55580  0.76080  Biso   1.000  H
  C1       1.0000 0.80910  0.40140  0.61660  Biso   1.000  C
  C2       1.0000 0.91150  0.30340  0.91480  Biso   1.000  C
  O23      1.0000 0.61796  0.50940  0.62751  Biso   1.000  O
  O24      1.0000 0.67090  0.53600  0.52318  Biso   1.000  O
  O25      1.0000 0.77010  0.41230  0.57900  Biso   1.000  O
  O26      1.0000 0.66440  0.34170  0.60180  Biso   1.000  O
  O27      1.0000 0.60170  0.35250  0.65780  Biso   1.000  O
  O28      1.0000 0.56740  0.53390  0.74490  Biso   1.000  O
  O29      1.0000 0.65190  0.40470  0.79390  Biso   1.000  O
  O30      1.0000 0.56600  0.38310  0.76140  Biso   1.000  O
  O31      1.0000 0.66830  0.63180  0.56370  Biso   1.000  O
  O32      1.0000 0.57153  0.61650  0.68760  Biso   1.000  O
  O33      1.0000 0.67370  0.68230  0.73707  Biso   1.000  O
  O34      1.0000 0.74140  0.66330  0.69140  Biso   1.000  O
  C3       1.0000 0.85560  0.36080  0.60280  Biso   1.000  C
  H8       1.0000 0.93420  0.27880  0.94160  Biso   1.000  H
  H9       1.0000 0.58660  0.51290  0.60810  Biso   1.000  H
  C4       1.0000 0.68120  0.59570  0.52730  Biso   1.000  C
  C5       1.0000 0.61970  0.32740  0.61900  Biso   1.000  C
  C6       1.0000 0.54860  0.58600  0.72160  Biso   1.000  C
  C7       1.0000 0.89550  0.33600  0.64310  Biso   1.000  C
  C8       1.0000 0.86170  0.35110  0.54900  Biso   1.000  C
  C9       1.0000 0.70970  0.62440  0.48370  Biso   1.000  C
  C10      1.0000 0.58520  0.27700  0.58660  Biso   1.000  C
  C11      1.0000 0.49670  0.61160  0.73740  Biso   1.000  C
  H10      1.0000 0.89130  0.34090  0.68010  Biso   1.000  H
  C12      1.0000 0.94150  0.30410  0.63020  Biso   1.000  C
  C13      1.0000 0.90790  0.31970  0.53630  Biso   1.000  C
  H11      1.0000 0.83420  0.36590  0.52070  Biso   1.000  H
  C14      1.0000 0.73160  0.58520  0.44780  Biso   1.000  C
  C15      1.0000 0.71350  0.69040  0.47790  Biso   1.000  C
  C16      1.0000 0.59990  0.25660  0.53800  Biso   1.000  C
  C17      1.0000 0.53660  0.25650  0.60170  Biso   1.000  C
  C18      1.0000 0.46470  0.57320  0.76430  Biso   1.000  C
  C19      1.0000 0.48100  0.67550  0.72720  Biso   1.000  C
  H12      1.0000 0.96810  0.28680  0.65830  Biso   1.000  H
  C20      1.0000 0.94840  0.29760  0.57640  Biso   1.000  C
  H13      1.0000 0.91150  0.31340  0.49930  Biso   1.000  H
  H14      1.0000 0.73070  0.53980  0.45240  Biso   1.000  H
  C21      1.0000 0.75480  0.61010  0.40580  Biso   1.000  C
  C22      1.0000 0.73710  0.71660  0.43580  Biso   1.000  C
  H15      1.0000 0.69990  0.71820  0.50300  Biso   1.000  H
  C23      1.0000 0.56500  0.21740  0.50330  Biso   1.000  C
  H16      1.0000 0.63400  0.26960  0.52840  Biso   1.000  H
  H17      1.0000 0.52760  0.26980  0.63560  Biso   1.000  H
  C24      1.0000 0.50070  0.21660  0.56820  Biso   1.000  C
  H18      1.0000 0.47560  0.52990  0.77210  Biso   1.000  H
  C25      1.0000 0.41660  0.59560  0.78050  Biso   1.000  C
  C26      1.0000 0.43370  0.69980  0.74420  Biso   1.000  C
  H19      1.0000 0.50260  0.70280  0.70850  Biso   1.000  H
  C27      1.0000 0.00070  0.27010  0.56230  Biso   1.000  C
  H20      1.0000 0.76910  0.58200  0.38150  Biso   1.000  H
  C28      1.0000 0.75730  0.67650  0.39880  Biso   1.000  C
  H21      1.0000 0.73950  0.76200  0.43220  Biso   1.000  H
  C29      1.0000 0.57830  0.19850  0.44970  Biso   1.000  C
  C30      1.0000 0.51570  0.19730  0.51850  Biso   1.000  C
  C31      1.0000 0.44810  0.19500  0.58210  Biso   1.000  C
  H22      1.0000 0.39470  0.56750  0.79810  Biso   1.000  H
  C32      1.0000 0.40070  0.65980  0.77070  Biso   1.000  C
  H23      1.0000 0.42400  0.74360  0.73780  Biso   1.000  H
  C33      1.0000 0.03100  0.22390  0.59420  Biso   1.000  C
  C34      1.0000 0.02060  0.29360  0.51670  Biso   1.000  C
  C35      1.0000 0.77670  0.70390  0.35030  Biso   1.000  C
  C36      1.0000 0.63150  0.18180  0.44290  Biso   1.000  C
  C37      1.0000 0.53590  0.19670  0.40490  Biso   1.000  C
  H24      1.0000 0.49180  0.17010  0.49500  Biso   1.000  H
  C38      1.0000 0.44210  0.18060  0.63560  Biso   1.000  C
  C39      1.0000 0.40250  0.18830  0.54060  Biso   1.000  C
  C40      1.0000 0.34890  0.68500  0.78790  Biso   1.000  C
  H25      1.0000 0.01830  0.20780  0.62560  Biso   1.000  H
  C41      1.0000 0.08020  0.20070  0.58040  Biso   1.000  C
  C42      1.0000 0.06940  0.27130  0.50270  Biso   1.000  C
  H26      1.0000 0.00040  0.32550  0.49480  Biso   1.000  H
  C43      1.0000 0.74350  0.74630  0.31640  Biso   1.000  C
  C44      1.0000 0.82810  0.68620  0.33640  Biso   1.000  C
  C45      1.0000 0.64110  0.15920  0.39270  Biso   1.000  C
  H27      1.0000 0.66090  0.18590  0.47220  Biso   1.000  H
  H28      1.0000 0.50020  0.21090  0.40870  Biso   1.000  H
  C46      1.0000 0.54610  0.17440  0.35540  Biso   1.000  C
  H29      1.0000 0.47210  0.18660  0.66410  Biso   1.000  H
  C47      1.0000 0.39220  0.15750  0.64730  Biso   1.000  C
  C48      1.0000 0.35430  0.16390  0.55340  Biso   1.000  C
  H30      1.0000 0.40510  0.20040  0.50430  Biso   1.000  H
  C49      1.0000 0.33290  0.66430  0.83660  Biso   1.000  C
  C50      1.0000 0.31600  0.72770  0.75450  Biso   1.000  C
  C51      1.0000 0.10020  0.22440  0.53530  Biso   1.000  C
  C52      1.0000 0.10950  0.14790  0.61490  Biso   1.000  C
  C53      1.0000 0.08810  0.29950  0.45380  Biso   1.000  C
  H31      1.0000 0.70880  0.75850  0.32500  Biso   1.000  H
  C54      1.0000 0.76080  0.77080  0.26990  Biso   1.000  C
  C55      1.0000 0.84550  0.71120  0.29060  Biso   1.000  C
  H32      1.0000 0.85080  0.65680  0.35880  Biso   1.000  H
  C56      1.0000 0.59860  0.15330  0.34900  Biso   1.000  C
  H33      1.0000 0.67720  0.14770  0.38810  Biso   1.000  H
  H34      1.0000 0.51720  0.17340  0.32530  Biso   1.000  H
  H35      1.0000 0.38800  0.14810  0.68370  Biso   1.000  H
  C57      1.0000 0.34910  0.14850  0.60540  Biso   1.000  C
  H36      1.0000 0.32400  0.15780  0.52530  Biso   1.000  H
  H37      1.0000 0.35540  0.63500  0.85940  Biso   1.000  H
  C58      1.0000 0.28420  0.68650  0.85180  Biso   1.000  C
  C59      1.0000 0.26670  0.75000  0.76960  Biso   1.000  C
  H38      1.0000 0.32670  0.74190  0.72160  Biso   1.000  H
  H39      1.0000 0.13400  0.20930  0.52650  Biso   1.000  H
  C60      1.0000 0.14120  0.32030  0.45420  Biso   1.000  C
  C61      1.0000 0.04980  0.30800  0.40650  Biso   1.000  C
  C62      1.0000 0.81170  0.75380  0.25790  Biso   1.000  C
  C63      1.0000 0.72310  0.81100  0.23120  Biso   1.000  C
  C64      1.0000 0.89680  0.68970  0.27270  Biso   1.000  C
  C65      1.0000 0.60650  0.12110  0.29840  Biso   1.000  C
  C66      1.0000 0.29650  0.11720  0.61560  Biso   1.000  C
  C67      1.0000 0.25220  0.73000  0.81890  Biso   1.000  C
  C68      1.0000 0.26610  0.66250  0.90300  Biso   1.000  C
  C69      1.0000 0.22970  0.79370  0.73220  Biso   1.000  C
  H40      1.0000 0.16830  0.31190  0.48480  Biso   1.000  H
  C70      1.0000 0.15510  0.35360  0.41000  Biso   1.000  C
  C71      1.0000 0.06450  0.34020  0.36250  Biso   1.000  C
  H41      1.0000 0.01370  0.29150  0.40470  Biso   1.000  H
  H42      1.0000 0.82380  0.77160  0.22680  Biso   1.000  H
  C72      1.0000 0.90960  0.62360  0.27410  Biso   1.000  C
  C73      1.0000 0.93090  0.73130  0.25080  Biso   1.000  C
  H43      1.0000 0.21990  0.74650  0.82990  Biso   1.000  H
  C74      1.0000 0.27570  0.59780  0.91940  Biso   1.000  C
  C75      1.0000 0.23780  0.70180  0.93420  Biso   1.000  C
  H44      1.0000 0.19150  0.36880  0.41130  Biso   1.000  H
  C76      1.0000 0.11680  0.36520  0.36400  Biso   1.000  C
  H45      1.0000 0.03830  0.34530  0.33060  Biso   1.000  H
  H46      1.0000 0.88780  0.59430  0.29060  Biso   1.000  H
  C77      1.0000 0.95370  0.60110  0.25180  Biso   1.000  C
  C78      1.0000 0.97610  0.70870  0.22900  Biso   1.000  C
  H47      1.0000 0.92360  0.77620  0.25050  Biso   1.000  H
  H48      1.0000 0.29570  0.57020  0.89930  Biso   1.000  H
  C79      1.0000 0.25580  0.57440  0.96520  Biso   1.000  C
  C80      1.0000 0.21990  0.67740  0.98080  Biso   1.000  C
  H49      1.0000 0.23050  0.74530  0.92390  Biso   1.000  H
  C81      1.0000 0.12980  0.40660  0.31830  Biso   1.000  C
  H50      1.0000 0.96120  0.55620  0.25220  Biso   1.000  H
  C82      1.0000 0.98730  0.64340  0.22880  Biso   1.000  C
  H51      1.0000 0.99910  0.73820  0.21420  Biso   1.000  H
  H52      1.0000 0.26080  0.53020  0.97460  Biso   1.000  H
  C83      1.0000 0.22960  0.61340  0.99640  Biso   1.000  C
  H53      1.0000 0.20100  0.70490  0.00210  Biso   1.000  H
  C84      1.0000 0.03430  0.61720  0.20450  Biso   1.000  C
  C85      1.0000 0.20780  0.58670  0.04640  Biso   1.000  C
  O35      1.0000 0.24000  0.53970  0.06780  Biso   1.000  O
  Gd8      1.0000 0.21185  0.03497  0.62448  Biso   1.000  Gd
  O36      1.0000 0.18625  0.06430  0.70880  Biso   1.000  O
  O37      1.0000 0.23454  0.95000  0.68910  Biso   1.000  O
  O38      1.0000 0.13012  0.97900  0.63041  Biso   1.000  O
  O39      1.0000 0.14910  0.12000  0.59660  Biso   1.000  O
  O40      1.0000 0.29150  0.09630  0.66280  Biso   1.000  O
  O41      1.0000 0.25840  0.11180  0.57560  Biso   1.000  O
  O42      1.0000 0.19550  0.97550  0.54330  Biso   1.000  O
  Gd9      1.0000 0.08646  0.03312  0.69537  Biso   1.000  Gd
  Gd10     1.0000 0.22823  0.99412  0.77827  Biso   1.000  Gd
  H54      1.0000 0.19170  0.10390  0.71650  Biso   1.000  H
  Gd11     1.0000 0.15808  0.87577  0.66527  Biso   1.000  Gd
  H55      1.0000 0.26540  0.93290  0.68740  Biso   1.000  H
  H56      1.0000 0.10950  0.97650  0.59980  Biso   1.000  H
  O43      1.0000 0.14331  0.95120  0.73682  Biso   1.000  O
  O44      1.0000 0.03130  0.94240  0.69180  Biso   1.000  O
  O45      1.0000 0.09450  0.13640  0.65860  Biso   1.000  O
  O46      1.0000 0.09410  0.09040  0.77660  Biso   1.000  O
  O47      1.0000 0.29873  0.92500  0.81708  Biso   1.000  O
  O48      1.0000 0.27400  0.03520  0.86462  Biso   1.000  O
  O49      1.0000 0.31762  0.03860  0.76989  Biso   1.000  O
  O50      1.0000 0.18610  0.92290  0.83688  Biso   1.000  O
  O51      1.0000 0.17240  0.06130  0.82680  Biso   1.000  O
  O52      1.0000 0.12450  0.77380  0.61900  Biso   1.000  O
  O53      1.0000 0.08210  0.86220  0.58570  Biso   1.000  O
  O54      1.0000 0.07240  0.84670  0.69820  Biso   1.000  O
  O55      1.0000 0.24020  0.80650  0.68583  Biso   1.000  O
  O56      1.0000 0.18790  0.81690  0.74912  Biso   1.000  O
  O57      1.0000 0.19820  0.87580  0.58069  Biso   1.000  O
  H57      1.0000 0.12780  0.93200  0.76040  Biso   1.000  H
  Gd12     1.0000 0.31780  0.95027  0.91665  Biso   1.000  Gd
  Gd13     1.0000 0.38426  0.95181  0.79204  Biso   1.000  Gd
  H58      1.0000 0.29060  0.88560  0.81110  Biso   1.000  H
  Gd14     1.0000 0.34264  0.10991  0.84414  Biso   1.000  Gd
  H59      1.0000 0.25130  0.05400  0.88160  Biso   1.000  H
  H60      1.0000 0.31880  0.05580  0.73920  Biso   1.000  H
  C86      1.0000 0.19090  0.90140  0.88340  Biso   1.000  C
  C87      1.0000 0.08850  0.80340  0.58520  Biso   1.000  C
  O58      1.0000 0.38204  0.00940  0.87249  Biso   1.000  O
  O59      1.0000 0.32910  0.03600  0.97682  Biso   1.000  O
  O60      1.0000 0.22990  0.91230  0.92100  Biso   1.000  O
  O61      1.0000 0.33560  0.84170  0.89820  Biso   1.000  O
  O62      1.0000 0.39830  0.85250  0.84220  Biso   1.000  O
  O63      1.0000 0.43260  0.03390  0.75510  Biso   1.000  O
  O64      1.0000 0.34810  0.90470  0.70610  Biso   1.000  O
  O65      1.0000 0.43400  0.88310  0.73860  Biso   1.000  O
  O66      1.0000 0.33170  0.13180  0.93630  Biso   1.000  O
  O67      1.0000 0.42847  0.11650  0.81240  Biso   1.000  O
  O68      1.0000 0.32630  0.18230  0.76293  Biso   1.000  O
  O69      1.0000 0.25860  0.16330  0.80860  Biso   1.000  O
  C88      1.0000 0.14440  0.86080  0.89720  Biso   1.000  C
  H61      1.0000 0.06580  0.77880  0.55840  Biso   1.000  H
  H62      1.0000 0.41340  0.01290  0.89190  Biso   1.000  H
  C89      1.0000 0.31880  0.09570  0.97270  Biso   1.000  C
  C90      1.0000 0.38030  0.82740  0.88100  Biso   1.000  C
  C91      1.0000 0.45140  0.08600  0.77840  Biso   1.000  C
  C92      1.0000 0.10450  0.83600  0.85690  Biso   1.000  C
  C93      1.0000 0.13830  0.85110  0.95100  Biso   1.000  C
  C94      1.0000 0.29030  0.12440  0.01630  Biso   1.000  C
  C95      1.0000 0.41480  0.77700  0.91340  Biso   1.000  C
  C96      1.0000 0.50330  0.11160  0.76260  Biso   1.000  C
  H63      1.0000 0.10870  0.84090  0.81990  Biso   1.000  H
  C97      1.0000 0.05850  0.80410  0.86980  Biso   1.000  C
  C98      1.0000 0.09210  0.81970  0.96370  Biso   1.000  C
  H64      1.0000 0.16580  0.86590  0.97930  Biso   1.000  H
  C99      1.0000 0.26840  0.08520  0.05220  Biso   1.000  C
  C100     1.0000 0.28650  0.19040  0.02210  Biso   1.000  C
  C101     1.0000 0.40010  0.75660  0.96200  Biso   1.000  C
  C102     1.0000 0.46340  0.75650  0.89830  Biso   1.000  C
  C103     1.0000 0.53530  0.07320  0.73570  Biso   1.000  C
  C104     1.0000 0.51900  0.17550  0.77280  Biso   1.000  C
  H65      1.0000 0.03190  0.78680  0.84170  Biso   1.000  H
  C105     1.0000 0.05160  0.79760  0.92360  Biso   1.000  C
  H66      1.0000 0.08850  0.81340  0.00070  Biso   1.000  H
  H67      1.0000 0.26930  0.03980  0.04760  Biso   1.000  H
  C106     1.0000 0.24520  0.11010  0.09420  Biso   1.000  C
  C107     1.0000 0.26290  0.21660  0.06420  Biso   1.000  C
  H68      1.0000 0.30010  0.21820  0.99700  Biso   1.000  H
  C108     1.0000 0.43500  0.71740  0.99670  Biso   1.000  C
  H69      1.0000 0.36600  0.76960  0.97160  Biso   1.000  H
  H70      1.0000 0.47240  0.76980  0.86440  Biso   1.000  H
  C109     1.0000 0.49930  0.71660  0.93180  Biso   1.000  C
  H71      1.0000 0.52440  0.02990  0.72790  Biso   1.000  H
  C110     1.0000 0.58340  0.09560  0.71950  Biso   1.000  C
  C111     1.0000 0.56630  0.19980  0.75580  Biso   1.000  C
  H72      1.0000 0.49740  0.20280  0.79150  Biso   1.000  H
  C112     1.0000 0.99930  0.77010  0.93770  Biso   1.000  C
  H73      1.0000 0.23090  0.08200  0.11850  Biso   1.000  H
  C113     1.0000 0.24270  0.17650  0.10120  Biso   1.000  C
  H74      1.0000 0.26050  0.26200  0.06780  Biso   1.000  H
  C114     1.0000 0.42170  0.69850  0.05030  Biso   1.000  C
  C115     1.0000 0.48430  0.69730  0.98150  Biso   1.000  C
  C116     1.0000 0.55190  0.69500  0.91790  Biso   1.000  C
  H75      1.0000 0.60530  0.06750  0.70190  Biso   1.000  H
  C117     1.0000 0.59930  0.15980  0.72930  Biso   1.000  C
  H76      1.0000 0.57600  0.24360  0.76220  Biso   1.000  H
  C118     1.0000 0.96900  0.72390  0.90580  Biso   1.000  C
  C119     1.0000 0.97940  0.79360  0.98330  Biso   1.000  C
  C120     1.0000 0.22330  0.20390  0.14970  Biso   1.000  C
  C121     1.0000 0.36850  0.68180  0.05710  Biso   1.000  C
  C122     1.0000 0.46410  0.69670  0.09510  Biso   1.000  C
  H77      1.0000 0.50820  0.67010  0.00500  Biso   1.000  H
  C123     1.0000 0.55790  0.68060  0.86440  Biso   1.000  C
  C124     1.0000 0.59750  0.68830  0.95940  Biso   1.000  C
  C125     1.0000 0.65110  0.18500  0.71210  Biso   1.000  C
  H78      1.0000 0.98170  0.70780  0.87440  Biso   1.000  H
  C126     1.0000 0.91980  0.70070  0.91960  Biso   1.000  C
  C127     1.0000 0.93060  0.77130  0.99730  Biso   1.000  C
  H79      1.0000 0.99960  0.82550  0.00520  Biso   1.000  H
  C128     1.0000 0.25650  0.24630  0.18360  Biso   1.000  C
  C129     1.0000 0.17190  0.18620  0.16360  Biso   1.000  C
  C130     1.0000 0.35890  0.65920  0.10730  Biso   1.000  C
  H80      1.0000 0.33910  0.68590  0.02780  Biso   1.000  H
  H81      1.0000 0.49980  0.71090  0.09130  Biso   1.000  H
  C131     1.0000 0.45390  0.67440  0.14460  Biso   1.000  C
  H82      1.0000 0.52790  0.68660  0.83590  Biso   1.000  H
  C132     1.0000 0.60780  0.65750  0.85270  Biso   1.000  C
  C133     1.0000 0.64570  0.66390  0.94660  Biso   1.000  C
  H83      1.0000 0.59490  0.70040  0.99570  Biso   1.000  H
  C134     1.0000 0.66710  0.16430  0.66340  Biso   1.000  C
  C135     1.0000 0.68400  0.22770  0.74550  Biso   1.000  C
  C136     1.0000 0.89980  0.72440  0.96470  Biso   1.000  C
  C137     1.0000 0.89050  0.64790  0.88510  Biso   1.000  C
  C138     1.0000 0.91190  0.79950  0.04620  Biso   1.000  C
  H84      1.0000 0.29120  0.25850  0.17500  Biso   1.000  H
  C139     1.0000 0.23920  0.27080  0.23010  Biso   1.000  C
  C140     1.0000 0.15450  0.21120  0.20940  Biso   1.000  C
  H85      1.0000 0.14920  0.15680  0.14120  Biso   1.000  H
  C141     1.0000 0.40140  0.65330  0.15100  Biso   1.000  C
  H86      1.0000 0.32280  0.64770  0.11190  Biso   1.000  H
  H87      1.0000 0.48280  0.67340  0.17470  Biso   1.000  H
  H88      1.0000 0.61200  0.64810  0.81630  Biso   1.000  H
  C142     1.0000 0.65090  0.64850  0.89460  Biso   1.000  C
  H89      1.0000 0.67600  0.65780  0.97470  Biso   1.000  H
  H90      1.0000 0.64460  0.13500  0.64060  Biso   1.000  H
  C143     1.0000 0.71580  0.18650  0.64820  Biso   1.000  C
  C144     1.0000 0.73330  0.25000  0.73040  Biso   1.000  C
  H91      1.0000 0.67330  0.24190  0.77840  Biso   1.000  H
  H92      1.0000 0.86600  0.70930  0.97350  Biso   1.000  H
  C145     1.0000 0.85880  0.82030  0.04580  Biso   1.000  C
  C146     1.0000 0.95020  0.80800  0.09350  Biso   1.000  C
  C147     1.0000 0.18830  0.25380  0.24210  Biso   1.000  C
  C148     1.0000 0.27690  0.31100  0.26880  Biso   1.000  C
  C149     1.0000 0.10320  0.18970  0.22730  Biso   1.000  C
  C150     1.0000 0.39350  0.62110  0.20160  Biso   1.000  C
  C151     1.0000 0.70350  0.61720  0.88440  Biso   1.000  C
  C152     1.0000 0.74780  0.23000  0.68110  Biso   1.000  C
  C153     1.0000 0.73390  0.16250  0.59700  Biso   1.000  C
  C154     1.0000 0.77030  0.29370  0.76780  Biso   1.000  C
  H93      1.0000 0.83170  0.81190  0.01520  Biso   1.000  H
  C155     1.0000 0.84490  0.85360  0.09000  Biso   1.000  C
  C156     1.0000 0.93550  0.84020  0.13750  Biso   1.000  C
  H94      1.0000 0.98630  0.79150  0.09530  Biso   1.000  H
  H95      1.0000 0.17620  0.27160  0.27320  Biso   1.000  H
  C157     1.0000 0.09040  0.12360  0.22590  Biso   1.000  C
  C158     1.0000 0.06910  0.23130  0.24920  Biso   1.000  C
  H96      1.0000 0.78010  0.24650  0.67010  Biso   1.000  H
  C159     1.0000 0.72430  0.09780  0.58060  Biso   1.000  C
  C160     1.0000 0.76220  0.20180  0.56580  Biso   1.000  C
  H97      1.0000 0.80850  0.86880  0.08870  Biso   1.000  H
  C161     1.0000 0.88320  0.86520  0.13600  Biso   1.000  C
  H98      1.0000 0.96170  0.84530  0.16940  Biso   1.000  H
  H99      1.0000 0.11220  0.09430  0.20940  Biso   1.000  H
  C162     1.0000 0.04630  0.10110  0.24820  Biso   1.000  C
  C163     1.0000 0.02390  0.20870  0.27100  Biso   1.000  C
  H100     1.0000 0.07640  0.27620  0.24950  Biso   1.000  H
  H101     1.0000 0.70430  0.07020  0.60070  Biso   1.000  H
  C164     1.0000 0.74420  0.07440  0.53480  Biso   1.000  C
  C165     1.0000 0.78010  0.17740  0.51920  Biso   1.000  C
  H102     1.0000 0.76950  0.24530  0.57610  Biso   1.000  H
  C166     1.0000 0.87020  0.90660  0.18170  Biso   1.000  C
  H103     1.0000 0.03880  0.05620  0.24780  Biso   1.000  H
  C167     1.0000 0.01270  0.14340  0.27120  Biso   1.000  C
  H104     1.0000 0.00090  0.23820  0.28580  Biso   1.000  H
  H105     1.0000 0.73920  0.03020  0.52540  Biso   1.000  H
  C168     1.0000 0.77040  0.11340  0.50360  Biso   1.000  C
  H106     1.0000 0.79900  0.20490  0.49790  Biso   1.000  H
  C169     1.0000 0.96570  0.11720  0.29550  Biso   1.000  C
  C170     1.0000 0.79220  0.08670  0.45360  Biso   1.000  C
  O70      1.0000 0.76000  0.03970  0.43220  Biso   1.000  O
  Gd15     1.0000 0.21185  0.46503  0.12448  Biso   1.000  Gd
  O71      1.0000 0.18625  0.43570  0.20880  Biso   1.000  O
  O72      1.0000 0.23454  0.55000  0.18910  Biso   1.000  O
  O73      1.0000 0.13012  0.52100  0.13041  Biso   1.000  O
  O74      1.0000 0.14910  0.38000  0.09660  Biso   1.000  O
  O75      1.0000 0.29150  0.40370  0.16280  Biso   1.000  O
  O76      1.0000 0.25840  0.38820  0.07560  Biso   1.000  O
  O77      1.0000 0.19550  0.52450  0.04330  Biso   1.000  O
  Gd16     1.0000 0.08646  0.46688  0.19537  Biso   1.000  Gd
  Gd17     1.0000 0.22823  0.50588  0.27827  Biso   1.000  Gd
  H107     1.0000 0.19170  0.39610  0.21650  Biso   1.000  H
  Gd18     1.0000 0.15808  0.62423  0.16527  Biso   1.000  Gd
  H108     1.0000 0.26540  0.56710  0.18740  Biso   1.000  H
  H109     1.0000 0.10950  0.52350  0.09980  Biso   1.000  H
  O78      1.0000 0.14331  0.54880  0.23682  Biso   1.000  O
  O79      1.0000 0.03130  0.55760  0.19180  Biso   1.000  O
  O80      1.0000 0.09450  0.36360  0.15860  Biso   1.000  O
  O81      1.0000 0.09410  0.40960  0.27660  Biso   1.000  O
  O82      1.0000 0.29873  0.57500  0.31708  Biso   1.000  O
  O83      1.0000 0.27400  0.46480  0.36462  Biso   1.000  O
  O84      1.0000 0.31762  0.46140  0.26989  Biso   1.000  O
  O85      1.0000 0.18610  0.57710  0.33688  Biso   1.000  O
  O86      1.0000 0.17240  0.43870  0.32680  Biso   1.000  O
  O87      1.0000 0.12450  0.72620  0.11900  Biso   1.000  O
  O88      1.0000 0.08210  0.63780  0.08570  Biso   1.000  O
  O89      1.0000 0.07240  0.65330  0.19820  Biso   1.000  O
  O90      1.0000 0.24020  0.69350  0.18583  Biso   1.000  O
  O91      1.0000 0.18790  0.68310  0.24912  Biso   1.000  O
  O92      1.0000 0.19820  0.62420  0.08069  Biso   1.000  O
  H110     1.0000 0.12780  0.56800  0.26040  Biso   1.000  H
  Gd19     1.0000 0.31780  0.54973  0.41665  Biso   1.000  Gd
  Gd20     1.0000 0.38426  0.54819  0.29204  Biso   1.000  Gd
  H111     1.0000 0.29060  0.61440  0.31110  Biso   1.000  H
  Gd21     1.0000 0.34264  0.39009  0.34414  Biso   1.000  Gd
  H112     1.0000 0.25130  0.44600  0.38160  Biso   1.000  H
  H113     1.0000 0.31880  0.44420  0.23920  Biso   1.000  H
  C171     1.0000 0.19090  0.59860  0.38340  Biso   1.000  C
  C172     1.0000 0.08850  0.69660  0.08520  Biso   1.000  C
  O93      1.0000 0.38204  0.49060  0.37249  Biso   1.000  O
  O94      1.0000 0.32910  0.46400  0.47682  Biso   1.000  O
  O95      1.0000 0.22990  0.58770  0.42100  Biso   1.000  O
  O96      1.0000 0.33560  0.65830  0.39820  Biso   1.000  O
  O97      1.0000 0.39830  0.64750  0.34220  Biso   1.000  O
  O98      1.0000 0.43260  0.46610  0.25510  Biso   1.000  O
  O99      1.0000 0.34810  0.59530  0.20610  Biso   1.000  O
  O100     1.0000 0.43400  0.61690  0.23860  Biso   1.000  O
  O101     1.0000 0.33170  0.36820  0.43630  Biso   1.000  O
  O102     1.0000 0.42847  0.38350  0.31240  Biso   1.000  O
  O103     1.0000 0.32630  0.31770  0.26293  Biso   1.000  O
  O104     1.0000 0.25860  0.33670  0.30860  Biso   1.000  O
  C173     1.0000 0.14440  0.63920  0.39720  Biso   1.000  C
  H114     1.0000 0.06580  0.72120  0.05840  Biso   1.000  H
  H115     1.0000 0.41340  0.48710  0.39190  Biso   1.000  H
  C174     1.0000 0.31880  0.40430  0.47270  Biso   1.000  C
  C175     1.0000 0.38030  0.67260  0.38100  Biso   1.000  C
  C176     1.0000 0.45140  0.41400  0.27840  Biso   1.000  C
  C177     1.0000 0.10450  0.66400  0.35690  Biso   1.000  C
  C178     1.0000 0.13830  0.64890  0.45100  Biso   1.000  C
  C179     1.0000 0.29030  0.37560  0.51630  Biso   1.000  C
  C180     1.0000 0.41480  0.72300  0.41340  Biso   1.000  C
  C181     1.0000 0.50330  0.38840  0.26260  Biso   1.000  C
  H116     1.0000 0.10870  0.65910  0.31990  Biso   1.000  H
  C182     1.0000 0.05850  0.69590  0.36980  Biso   1.000  C
  C183     1.0000 0.09210  0.68030  0.46370  Biso   1.000  C
  H117     1.0000 0.16580  0.63410  0.47930  Biso   1.000  H
  C184     1.0000 0.26840  0.41480  0.55220  Biso   1.000  C
  C185     1.0000 0.28650  0.30960  0.52210  Biso   1.000  C
  C186     1.0000 0.40010  0.74340  0.46200  Biso   1.000  C
  C187     1.0000 0.46340  0.74350  0.39830  Biso   1.000  C
  C188     1.0000 0.53530  0.42680  0.23570  Biso   1.000  C
  C189     1.0000 0.51900  0.32450  0.27280  Biso   1.000  C
  H118     1.0000 0.03190  0.71320  0.34170  Biso   1.000  H
  C190     1.0000 0.05160  0.70240  0.42360  Biso   1.000  C
  H119     1.0000 0.08850  0.68660  0.50070  Biso   1.000  H
  H120     1.0000 0.26930  0.46020  0.54760  Biso   1.000  H
  C191     1.0000 0.24520  0.38990  0.59420  Biso   1.000  C
  C192     1.0000 0.26290  0.28340  0.56420  Biso   1.000  C
  H121     1.0000 0.30010  0.28180  0.49700  Biso   1.000  H
  C193     1.0000 0.43500  0.78260  0.49670  Biso   1.000  C
  H122     1.0000 0.36600  0.73040  0.47160  Biso   1.000  H
  H123     1.0000 0.47240  0.73020  0.36440  Biso   1.000  H
  C194     1.0000 0.49930  0.78340  0.43180  Biso   1.000  C
  H124     1.0000 0.52440  0.47010  0.22790  Biso   1.000  H
  C195     1.0000 0.58340  0.40440  0.21950  Biso   1.000  C
  C196     1.0000 0.56630  0.30020  0.25580  Biso   1.000  C
  H125     1.0000 0.49740  0.29720  0.29150  Biso   1.000  H
  C197     1.0000 0.99930  0.72990  0.43770  Biso   1.000  C
  H126     1.0000 0.23090  0.41800  0.61850  Biso   1.000  H
  C198     1.0000 0.24270  0.32350  0.60120  Biso   1.000  C
  H127     1.0000 0.26050  0.23800  0.56780  Biso   1.000  H
  C199     1.0000 0.42170  0.80150  0.55030  Biso   1.000  C
  C200     1.0000 0.48430  0.80270  0.48150  Biso   1.000  C
  C201     1.0000 0.55190  0.80500  0.41790  Biso   1.000  C
  H128     1.0000 0.60530  0.43250  0.20190  Biso   1.000  H
  C202     1.0000 0.59930  0.34020  0.22930  Biso   1.000  C
  H129     1.0000 0.57600  0.25640  0.26220  Biso   1.000  H
  C203     1.0000 0.96900  0.77610  0.40580  Biso   1.000  C
  C204     1.0000 0.97940  0.70640  0.48330  Biso   1.000  C
  C205     1.0000 0.22330  0.29610  0.64970  Biso   1.000  C
  C206     1.0000 0.36850  0.81820  0.55710  Biso   1.000  C
  C207     1.0000 0.46410  0.80330  0.59510  Biso   1.000  C
  H130     1.0000 0.50820  0.82990  0.50500  Biso   1.000  H
  C208     1.0000 0.55790  0.81940  0.36440  Biso   1.000  C
  C209     1.0000 0.59750  0.81170  0.45940  Biso   1.000  C
  C210     1.0000 0.65110  0.31500  0.21210  Biso   1.000  C
  H131     1.0000 0.98170  0.79220  0.37440  Biso   1.000  H
  C211     1.0000 0.91980  0.79930  0.41960  Biso   1.000  C
  C212     1.0000 0.93060  0.72870  0.49730  Biso   1.000  C
  H132     1.0000 0.99960  0.67450  0.50520  Biso   1.000  H
  C213     1.0000 0.25650  0.25370  0.68360  Biso   1.000  C
  C214     1.0000 0.17190  0.31380  0.66360  Biso   1.000  C
  C215     1.0000 0.35890  0.84080  0.60730  Biso   1.000  C
  H133     1.0000 0.33910  0.81410  0.52780  Biso   1.000  H
  H134     1.0000 0.49980  0.78910  0.59130  Biso   1.000  H
  C216     1.0000 0.45390  0.82560  0.64460  Biso   1.000  C
  H135     1.0000 0.52790  0.81340  0.33590  Biso   1.000  H
  C217     1.0000 0.60780  0.84250  0.35270  Biso   1.000  C
  C218     1.0000 0.64570  0.83610  0.44660  Biso   1.000  C
  H136     1.0000 0.59490  0.79960  0.49570  Biso   1.000  H
  C219     1.0000 0.66710  0.33570  0.16340  Biso   1.000  C
  C220     1.0000 0.68400  0.27230  0.24550  Biso   1.000  C
  C221     1.0000 0.89980  0.77560  0.46470  Biso   1.000  C
  C222     1.0000 0.89050  0.85210  0.38510  Biso   1.000  C
  C223     1.0000 0.91190  0.70050  0.54620  Biso   1.000  C
  H137     1.0000 0.29120  0.24150  0.67500  Biso   1.000  H
  C224     1.0000 0.23920  0.22920  0.73010  Biso   1.000  C
  C225     1.0000 0.15450  0.28880  0.70940  Biso   1.000  C
  H138     1.0000 0.14920  0.34320  0.64120  Biso   1.000  H
  C226     1.0000 0.40140  0.84670  0.65100  Biso   1.000  C
  H139     1.0000 0.32280  0.85230  0.61190  Biso   1.000  H
  H140     1.0000 0.48280  0.82660  0.67470  Biso   1.000  H
  H141     1.0000 0.61200  0.85190  0.31630  Biso   1.000  H
  C227     1.0000 0.65090  0.85150  0.39460  Biso   1.000  C
  H142     1.0000 0.67600  0.84220  0.47470  Biso   1.000  H
  H143     1.0000 0.64460  0.36500  0.14060  Biso   1.000  H
  C228     1.0000 0.71580  0.31350  0.14820  Biso   1.000  C
  C229     1.0000 0.73330  0.25000  0.23040  Biso   1.000  C
  H144     1.0000 0.67330  0.25810  0.27840  Biso   1.000  H
  H145     1.0000 0.86600  0.79070  0.47350  Biso   1.000  H
  C230     1.0000 0.85880  0.67970  0.54580  Biso   1.000  C
  C231     1.0000 0.95020  0.69200  0.59350  Biso   1.000  C
  C232     1.0000 0.18830  0.24620  0.74210  Biso   1.000  C
  C233     1.0000 0.27690  0.18900  0.76880  Biso   1.000  C
  C234     1.0000 0.10320  0.31030  0.72730  Biso   1.000  C
  C235     1.0000 0.39350  0.87890  0.70160  Biso   1.000  C
  C236     1.0000 0.70350  0.88280  0.38440  Biso   1.000  C
  C237     1.0000 0.74780  0.27000  0.18110  Biso   1.000  C
  C238     1.0000 0.73390  0.33750  0.09700  Biso   1.000  C
  C239     1.0000 0.77030  0.20630  0.26780  Biso   1.000  C
  H146     1.0000 0.83170  0.68810  0.51520  Biso   1.000  H
  C240     1.0000 0.84490  0.64640  0.59000  Biso   1.000  C
  C241     1.0000 0.93550  0.65980  0.63750  Biso   1.000  C
  H147     1.0000 0.98630  0.70850  0.59530  Biso   1.000  H
  H148     1.0000 0.17620  0.22840  0.77320  Biso   1.000  H
  C242     1.0000 0.09040  0.37640  0.72590  Biso   1.000  C
  C243     1.0000 0.06910  0.26870  0.74920  Biso   1.000  C
  H149     1.0000 0.78010  0.25350  0.17010  Biso   1.000  H
  C244     1.0000 0.72430  0.40220  0.08060  Biso   1.000  C
  C245     1.0000 0.76220  0.29820  0.06580  Biso   1.000  C
  H150     1.0000 0.80850  0.63120  0.58870  Biso   1.000  H
  C246     1.0000 0.88320  0.63480  0.63600  Biso   1.000  C
  H151     1.0000 0.96170  0.65470  0.66940  Biso   1.000  H
  H152     1.0000 0.11220  0.40570  0.70940  Biso   1.000  H
  C247     1.0000 0.04630  0.39890  0.74820  Biso   1.000  C
  C248     1.0000 0.02390  0.29130  0.77100  Biso   1.000  C
  H153     1.0000 0.07640  0.22380  0.74950  Biso   1.000  H
  H154     1.0000 0.70430  0.42980  0.10070  Biso   1.000  H
  C249     1.0000 0.74420  0.42560  0.03480  Biso   1.000  C
  C250     1.0000 0.78010  0.32260  0.01920  Biso   1.000  C
  H155     1.0000 0.76950  0.25470  0.07610  Biso   1.000  H
  C251     1.0000 0.87020  0.59340  0.68170  Biso   1.000  C
  H156     1.0000 0.03880  0.44380  0.74780  Biso   1.000  H
  C252     1.0000 0.01270  0.35660  0.77120  Biso   1.000  C
  H157     1.0000 0.00090  0.26180  0.78580  Biso   1.000  H
  H158     1.0000 0.73920  0.46980  0.02540  Biso   1.000  H
  C253     1.0000 0.77040  0.38660  0.00360  Biso   1.000  C
  H159     1.0000 0.79900  0.29510  0.99790  Biso   1.000  H
  C254     1.0000 0.96570  0.38280  0.79550  Biso   1.000  C
  C255     1.0000 0.79220  0.41330  0.95360  Biso   1.000  C
  O105     1.0000 0.76000  0.46030  0.93220  Biso   1.000  O
  Gd22     1.0000 0.78815  0.96503  0.37552  Biso   1.000  Gd
  O106     1.0000 0.81375  0.93570  0.29120  Biso   1.000  O
  O107     1.0000 0.76546  0.05000  0.31090  Biso   1.000  O
  O108     1.0000 0.86988  0.02100  0.36959  Biso   1.000  O
  O109     1.0000 0.85090  0.88000  0.40340  Biso   1.000  O
  O110     1.0000 0.70850  0.90370  0.33720  Biso   1.000  O
  O111     1.0000 0.74160  0.88820  0.42440  Biso   1.000  O
  O112     1.0000 0.80450  0.02450  0.45670  Biso   1.000  O
  Gd23     1.0000 0.91354  0.96688  0.30463  Biso   1.000  Gd
  Gd24     1.0000 0.77177  0.00588  0.22173  Biso   1.000  Gd
  H160     1.0000 0.80830  0.89610  0.28350  Biso   1.000  H
  Gd25     1.0000 0.84192  0.12423  0.33473  Biso   1.000  Gd
  H161     1.0000 0.73460  0.06710  0.31260  Biso   1.000  H
  H162     1.0000 0.89050  0.02350  0.40020  Biso   1.000  H
  O113     1.0000 0.85669  0.04880  0.26318  Biso   1.000  O
  O114     1.0000 0.96870  0.05760  0.30820  Biso   1.000  O
  O115     1.0000 0.90550  0.86360  0.34140  Biso   1.000  O
  O116     1.0000 0.90590  0.90960  0.22340  Biso   1.000  O
  O117     1.0000 0.70127  0.07500  0.18292  Biso   1.000  O
  O118     1.0000 0.72600  0.96480  0.13538  Biso   1.000  O
  O119     1.0000 0.68238  0.96140  0.23011  Biso   1.000  O
  O120     1.0000 0.81390  0.07710  0.16312  Biso   1.000  O
  O121     1.0000 0.82760  0.93870  0.17320  Biso   1.000  O
  O122     1.0000 0.87550  0.22620  0.38100  Biso   1.000  O
  O123     1.0000 0.91790  0.13780  0.41430  Biso   1.000  O
  O124     1.0000 0.92760  0.15330  0.30180  Biso   1.000  O
  O125     1.0000 0.75980  0.19350  0.31417  Biso   1.000  O
  O126     1.0000 0.81210  0.18310  0.25088  Biso   1.000  O
  O127     1.0000 0.80180  0.12420  0.41931  Biso   1.000  O
  H163     1.0000 0.87220  0.06800  0.23960  Biso   1.000  H
  Gd26     1.0000 0.68220  0.04973  0.08335  Biso   1.000  Gd
  Gd27     1.0000 0.61574  0.04819  0.20796  Biso   1.000  Gd
  H164     1.0000 0.70940  0.11440  0.18890  Biso   1.000  H
  Gd28     1.0000 0.65736  0.89009  0.15586  Biso   1.000  Gd
  H165     1.0000 0.74870  0.94600  0.11840  Biso   1.000  H
  H166     1.0000 0.68120  0.94420  0.26080  Biso   1.000  H
  C256     1.0000 0.80910  0.09860  0.11660  Biso   1.000  C
  C257     1.0000 0.91150  0.19660  0.41480  Biso   1.000  C
  O128     1.0000 0.61796  0.99060  0.12751  Biso   1.000  O
  O129     1.0000 0.67090  0.96400  0.02318  Biso   1.000  O
  O130     1.0000 0.77010  0.08770  0.07900  Biso   1.000  O
  O131     1.0000 0.66440  0.15830  0.10180  Biso   1.000  O
  O132     1.0000 0.60170  0.14750  0.15780  Biso   1.000  O
  O133     1.0000 0.56740  0.96610  0.24490  Biso   1.000  O
  O134     1.0000 0.65190  0.09530  0.29390  Biso   1.000  O
  O135     1.0000 0.56600  0.11690  0.26140  Biso   1.000  O
  O136     1.0000 0.66830  0.86820  0.06370  Biso   1.000  O
  O137     1.0000 0.57153  0.88350  0.18760  Biso   1.000  O
  O138     1.0000 0.67370  0.81770  0.23707  Biso   1.000  O
  O139     1.0000 0.74140  0.83670  0.19140  Biso   1.000  O
  C258     1.0000 0.85560  0.13920  0.10280  Biso   1.000  C
  H167     1.0000 0.93420  0.22120  0.44160  Biso   1.000  H
  H168     1.0000 0.58660  0.98710  0.10810  Biso   1.000  H
  C259     1.0000 0.68120  0.90430  0.02730  Biso   1.000  C
  C260     1.0000 0.61970  0.17260  0.11900  Biso   1.000  C
  C261     1.0000 0.54860  0.91400  0.22160  Biso   1.000  C
  C262     1.0000 0.89550  0.16400  0.14310  Biso   1.000  C
  C263     1.0000 0.86170  0.14890  0.04900  Biso   1.000  C
  C264     1.0000 0.70970  0.87560  0.98370  Biso   1.000  C
  C265     1.0000 0.58520  0.22300  0.08660  Biso   1.000  C
  C266     1.0000 0.49670  0.88840  0.23740  Biso   1.000  C
  H169     1.0000 0.89130  0.15910  0.18010  Biso   1.000  H
  C267     1.0000 0.94150  0.19590  0.13020  Biso   1.000  C
  C268     1.0000 0.90790  0.18030  0.03630  Biso   1.000  C
  H170     1.0000 0.83420  0.13410  0.02070  Biso   1.000  H
  C269     1.0000 0.73160  0.91480  0.94780  Biso   1.000  C
  C270     1.0000 0.71350  0.80960  0.97790  Biso   1.000  C
  C271     1.0000 0.59990  0.24340  0.03800  Biso   1.000  C
  C272     1.0000 0.53660  0.24350  0.10170  Biso   1.000  C
  C273     1.0000 0.46470  0.92680  0.26430  Biso   1.000  C
  C274     1.0000 0.48100  0.82450  0.22720  Biso   1.000  C
  H171     1.0000 0.96810  0.21320  0.15830  Biso   1.000  H
  C275     1.0000 0.94840  0.20240  0.07640  Biso   1.000  C
  H172     1.0000 0.91150  0.18660  0.99930  Biso   1.000  H
  H173     1.0000 0.73070  0.96020  0.95240  Biso   1.000  H
  C276     1.0000 0.75480  0.88990  0.90580  Biso   1.000  C
  C277     1.0000 0.73710  0.78340  0.93580  Biso   1.000  C
  H174     1.0000 0.69990  0.78180  0.00300  Biso   1.000  H
  C278     1.0000 0.56500  0.28260  0.00330  Biso   1.000  C
  H175     1.0000 0.63400  0.23040  0.02840  Biso   1.000  H
  H176     1.0000 0.52760  0.23020  0.13560  Biso   1.000  H
  C279     1.0000 0.50070  0.28340  0.06820  Biso   1.000  C
  H177     1.0000 0.47560  0.97010  0.27210  Biso   1.000  H
  C280     1.0000 0.41660  0.90440  0.28050  Biso   1.000  C
  C281     1.0000 0.43370  0.80020  0.24420  Biso   1.000  C
  H178     1.0000 0.50260  0.79720  0.20850  Biso   1.000  H
  C282     1.0000 0.00070  0.22990  0.06230  Biso   1.000  C
  H179     1.0000 0.76910  0.91800  0.88150  Biso   1.000  H
  C283     1.0000 0.75730  0.82350  0.89880  Biso   1.000  C
  H180     1.0000 0.73950  0.73800  0.93220  Biso   1.000  H
  C284     1.0000 0.57830  0.30150  0.94970  Biso   1.000  C
  C285     1.0000 0.51570  0.30270  0.01850  Biso   1.000  C
  C286     1.0000 0.44810  0.30500  0.08210  Biso   1.000  C
  H181     1.0000 0.39470  0.93250  0.29810  Biso   1.000  H
  C287     1.0000 0.40070  0.84020  0.27070  Biso   1.000  C
  H182     1.0000 0.42400  0.75640  0.23780  Biso   1.000  H
  C288     1.0000 0.03100  0.27610  0.09420  Biso   1.000  C
  C289     1.0000 0.02060  0.20640  0.01670  Biso   1.000  C
  C290     1.0000 0.77670  0.79610  0.85030  Biso   1.000  C
  C291     1.0000 0.63150  0.31820  0.94290  Biso   1.000  C
  C292     1.0000 0.53590  0.30330  0.90490  Biso   1.000  C
  H183     1.0000 0.49180  0.32990  0.99500  Biso   1.000  H
  C293     1.0000 0.44210  0.31940  0.13560  Biso   1.000  C
  C294     1.0000 0.40250  0.31170  0.04060  Biso   1.000  C
  C295     1.0000 0.34890  0.81500  0.28790  Biso   1.000  C
  H184     1.0000 0.01830  0.29220  0.12560  Biso   1.000  H
  C296     1.0000 0.08020  0.29930  0.08040  Biso   1.000  C
  C297     1.0000 0.06940  0.22870  0.00270  Biso   1.000  C
  H185     1.0000 0.00040  0.17450  0.99480  Biso   1.000  H
  C298     1.0000 0.74350  0.75370  0.81640  Biso   1.000  C
  C299     1.0000 0.82810  0.81380  0.83640  Biso   1.000  C
  C300     1.0000 0.64110  0.34080  0.89270  Biso   1.000  C
  H186     1.0000 0.66090  0.31410  0.97220  Biso   1.000  H
  H187     1.0000 0.50020  0.28910  0.90870  Biso   1.000  H
  C301     1.0000 0.54610  0.32560  0.85540  Biso   1.000  C
  H188     1.0000 0.47210  0.31340  0.16410  Biso   1.000  H
  C302     1.0000 0.39220  0.34250  0.14730  Biso   1.000  C
  C303     1.0000 0.35430  0.33610  0.05340  Biso   1.000  C
  H189     1.0000 0.40510  0.29960  0.00430  Biso   1.000  H
  C304     1.0000 0.33290  0.83570  0.33660  Biso   1.000  C
  C305     1.0000 0.31600  0.77230  0.25450  Biso   1.000  C
  C306     1.0000 0.10020  0.27560  0.03530  Biso   1.000  C
  C307     1.0000 0.10950  0.35210  0.11490  Biso   1.000  C
  C308     1.0000 0.08810  0.20050  0.95380  Biso   1.000  C
  H190     1.0000 0.70880  0.74150  0.82500  Biso   1.000  H
  C309     1.0000 0.76080  0.72920  0.76990  Biso   1.000  C
  C310     1.0000 0.84550  0.78880  0.79060  Biso   1.000  C
  H191     1.0000 0.85080  0.84320  0.85880  Biso   1.000  H
  C311     1.0000 0.59860  0.34670  0.84900  Biso   1.000  C
  H192     1.0000 0.67720  0.35230  0.88810  Biso   1.000  H
  H193     1.0000 0.51720  0.32660  0.82530  Biso   1.000  H
  H194     1.0000 0.38800  0.35190  0.18370  Biso   1.000  H
  C312     1.0000 0.34910  0.35150  0.10540  Biso   1.000  C
  H195     1.0000 0.32400  0.34220  0.02530  Biso   1.000  H
  H196     1.0000 0.35540  0.86500  0.35940  Biso   1.000  H
  C313     1.0000 0.28420  0.81350  0.35180  Biso   1.000  C
  C314     1.0000 0.26670  0.75000  0.26960  Biso   1.000  C
  H197     1.0000 0.32670  0.75810  0.22160  Biso   1.000  H
  H198     1.0000 0.13400  0.29070  0.02650  Biso   1.000  H
  C315     1.0000 0.14120  0.17970  0.95420  Biso   1.000  C
  C316     1.0000 0.04980  0.19200  0.90650  Biso   1.000  C
  C317     1.0000 0.81170  0.74620  0.75790  Biso   1.000  C
  C318     1.0000 0.72310  0.68900  0.73120  Biso   1.000  C
  C319     1.0000 0.89680  0.81030  0.77270  Biso   1.000  C
  C320     1.0000 0.60650  0.37890  0.79840  Biso   1.000  C
  C321     1.0000 0.29650  0.38280  0.11560  Biso   1.000  C
  C322     1.0000 0.25220  0.77000  0.31890  Biso   1.000  C
  C323     1.0000 0.26610  0.83750  0.40300  Biso   1.000  C
  C324     1.0000 0.22970  0.70630  0.23220  Biso   1.000  C
  H199     1.0000 0.16830  0.18810  0.98480  Biso   1.000  H
  C325     1.0000 0.15510  0.14640  0.91000  Biso   1.000  C
  C326     1.0000 0.06450  0.15980  0.86250  Biso   1.000  C
  H200     1.0000 0.01370  0.20850  0.90470  Biso   1.000  H
  H201     1.0000 0.82380  0.72840  0.72680  Biso   1.000  H
  C327     1.0000 0.90960  0.87640  0.77410  Biso   1.000  C
  C328     1.0000 0.93090  0.76870  0.75080  Biso   1.000  C
  H202     1.0000 0.21990  0.75350  0.32990  Biso   1.000  H
  C329     1.0000 0.27570  0.90220  0.41940  Biso   1.000  C
  C330     1.0000 0.23780  0.79820  0.43420  Biso   1.000  C
  H203     1.0000 0.19150  0.13120  0.91130  Biso   1.000  H
  C331     1.0000 0.11680  0.13480  0.86400  Biso   1.000  C
  H204     1.0000 0.03830  0.15470  0.83060  Biso   1.000  H
  H205     1.0000 0.88780  0.90570  0.79060  Biso   1.000  H
  C332     1.0000 0.95370  0.89890  0.75180  Biso   1.000  C
  C333     1.0000 0.97610  0.79130  0.72900  Biso   1.000  C
  H206     1.0000 0.92360  0.72380  0.75050  Biso   1.000  H
  H207     1.0000 0.29570  0.92980  0.39930  Biso   1.000  H
  C334     1.0000 0.25580  0.92560  0.46520  Biso   1.000  C
  C335     1.0000 0.21990  0.82260  0.48080  Biso   1.000  C
  H208     1.0000 0.23050  0.75470  0.42390  Biso   1.000  H
  C336     1.0000 0.12980  0.09340  0.81830  Biso   1.000  C
  H209     1.0000 0.96120  0.94380  0.75220  Biso   1.000  H
  C337     1.0000 0.98730  0.85660  0.72880  Biso   1.000  C
  H210     1.0000 0.99910  0.76180  0.71420  Biso   1.000  H
  H211     1.0000 0.26080  0.96980  0.47460  Biso   1.000  H
  C338     1.0000 0.22960  0.88660  0.49640  Biso   1.000  C
  H212     1.0000 0.20100  0.79510  0.50210  Biso   1.000  H
  C339     1.0000 0.03430  0.88280  0.70450  Biso   1.000  C
  C340     1.0000 0.20780  0.91330  0.54640  Biso   1.000  C
  O140     1.0000 0.24000  0.96030  0.56780  Biso   1.000  O
