data_image0
_cell_length_a       35.8341
_cell_length_b       35.8341
_cell_length_c       15.5903
_cell_angle_alpha    90
_cell_angle_beta     90
_cell_angle_gamma    120

_symmetry_space_group_name_H-M    "P 1"
_symmetry_int_tables_number       1

loop_
  _symmetry_equiv_pos_as_xyz
  'x, y, z'

loop_
  _atom_site_label
  _atom_site_occupancy
  _atom_site_fract_x
  _atom_site_fract_y
  _atom_site_fract_z
  _atom_site_thermal_displace_type
  _atom_site_B_iso_or_equiv
  _atom_site_type_symbol
  O1       1.0000 0.55765  0.03806  0.57693  Biso   1.000  O
  O2       1.0000 0.56402  0.05072  0.43508  Biso   1.000  O
  C1       1.0000 0.57845  0.05705  0.50930  Biso   1.000  C
  C2       1.0000 0.62543  0.08913  0.52350  Biso   1.000  C
  C3       1.0000 0.65272  0.10926  0.45680  Biso   1.000  C
  H1       1.0000 0.64190  0.10360  0.39980  Biso   1.000  H
  C4       1.0000 0.69621  0.13801  0.47090  Biso   1.000  C
  H2       1.0000 0.71440  0.15260  0.42360  Biso   1.000  H
  C5       1.0000 0.71323  0.14557  0.55220  Biso   1.000  C
  C6       1.0000 0.68536  0.12635  0.61960  Biso   1.000  C
  H3       1.0000 0.69610  0.13210  0.67670  Biso   1.000  H
  C7       1.0000 0.64170  0.09858  0.60560  Biso   1.000  C
  H4       1.0000 0.62290  0.08600  0.65310  Biso   1.000  H
  C8       1.0000 0.76038  0.17238  0.56980  Biso   1.000  C
  C9       1.0000 0.78002  0.15395  0.61710  Biso   1.000  C
  H5       1.0000 0.76330  0.12450  0.63310  Biso   1.000  H
  H6       1.0000 0.76980  0.27490  0.59560  Biso   1.000  H
  O3       1.0000 0.22432  0.37139  0.91026  Biso   1.000  O
  O4       1.0000 0.23069  0.38405  0.76841  Biso   1.000  O
  C10      1.0000 0.24512  0.39038  0.84263  Biso   1.000  C
  C11      1.0000 0.29210  0.42246  0.85683  Biso   1.000  C
  C12      1.0000 0.31939  0.44259  0.79013  Biso   1.000  C
  H7       1.0000 0.30857  0.43693  0.73313  Biso   1.000  H
  C13      1.0000 0.36288  0.47134  0.80423  Biso   1.000  C
  H8       1.0000 0.38107  0.48593  0.75693  Biso   1.000  H
  C14      1.0000 0.37990  0.47890  0.88553  Biso   1.000  C
  C15      1.0000 0.35203  0.45968  0.95293  Biso   1.000  C
  H9       1.0000 0.36277  0.46543  0.01003  Biso   1.000  H
  C16      1.0000 0.30837  0.43191  0.93893  Biso   1.000  C
  H10      1.0000 0.28957  0.41933  0.98643  Biso   1.000  H
  C17      1.0000 0.42705  0.50571  0.90313  Biso   1.000  C
  C18      1.0000 0.44669  0.48728  0.95043  Biso   1.000  C
  H11      1.0000 0.42997  0.45783  0.96643  Biso   1.000  H
  H12      1.0000 0.43647  0.60823  0.92893  Biso   1.000  H
  O5       1.0000 0.89098  0.70473  0.24360  Biso   1.000  O
  O6       1.0000 0.89735  0.71739  0.10175  Biso   1.000  O
  C19      1.0000 0.91178  0.72372  0.17597  Biso   1.000  C
  C20      1.0000 0.95876  0.75580  0.19017  Biso   1.000  C
  C21      1.0000 0.98605  0.77593  0.12347  Biso   1.000  C
  H13      1.0000 0.97523  0.77027  0.06647  Biso   1.000  H
  C22      1.0000 0.02954  0.80468  0.13757  Biso   1.000  C
  H14      1.0000 0.04773  0.81927  0.09027  Biso   1.000  H
  C23      1.0000 0.04656  0.81224  0.21887  Biso   1.000  C
  C24      1.0000 0.01869  0.79302  0.28627  Biso   1.000  C
  H15      1.0000 0.02943  0.79877  0.34337  Biso   1.000  H
  C25      1.0000 0.97503  0.76525  0.27227  Biso   1.000  C
  H16      1.0000 0.95623  0.75267  0.31977  Biso   1.000  H
  C26      1.0000 0.09371  0.83905  0.23647  Biso   1.000  C
  C27      1.0000 0.11335  0.82062  0.28377  Biso   1.000  C
  H17      1.0000 0.09663  0.79117  0.29977  Biso   1.000  H
  H18      1.0000 0.10313  0.94157  0.26227  Biso   1.000  H
  O7       1.0000 0.96194  0.51959  0.57693  Biso   1.000  O
  O8       1.0000 0.94928  0.51330  0.43508  Biso   1.000  O
  C28      1.0000 0.94295  0.52140  0.50930  Biso   1.000  C
  C29      1.0000 0.91087  0.53630  0.52350  Biso   1.000  C
  C30      1.0000 0.89074  0.54346  0.45680  Biso   1.000  C
  H19      1.0000 0.89640  0.53830  0.39980  Biso   1.000  H
  C31      1.0000 0.86199  0.55820  0.47090  Biso   1.000  C
  H20      1.0000 0.84740  0.56180  0.42360  Biso   1.000  H
  C32      1.0000 0.85443  0.56766  0.55220  Biso   1.000  C
  C33      1.0000 0.87365  0.55901  0.61960  Biso   1.000  C
  H21      1.0000 0.86790  0.56400  0.67670  Biso   1.000  H
  C34      1.0000 0.90142  0.54312  0.60560  Biso   1.000  C
  H22      1.0000 0.91400  0.53690  0.65310  Biso   1.000  H
  C35      1.0000 0.82762  0.58800  0.56980  Biso   1.000  C
  C36      1.0000 0.84605  0.62607  0.61710  Biso   1.000  C
  H23      1.0000 0.87550  0.63880  0.63310  Biso   1.000  H
  H24      1.0000 0.72510  0.49490  0.59560  Biso   1.000  H
  O9       1.0000 0.62861  0.85292  0.91026  Biso   1.000  O
  O10      1.0000 0.61595  0.84663  0.76841  Biso   1.000  O
  C37      1.0000 0.60962  0.85473  0.84263  Biso   1.000  C
  C38      1.0000 0.57754  0.86963  0.85683  Biso   1.000  C
  C39      1.0000 0.55741  0.87679  0.79013  Biso   1.000  C
  H25      1.0000 0.56307  0.87163  0.73313  Biso   1.000  H
  C40      1.0000 0.52866  0.89153  0.80423  Biso   1.000  C
  H26      1.0000 0.51407  0.89513  0.75693  Biso   1.000  H
  C41      1.0000 0.52110  0.90099  0.88553  Biso   1.000  C
  C42      1.0000 0.54032  0.89234  0.95293  Biso   1.000  C
  H27      1.0000 0.53457  0.89733  0.01003  Biso   1.000  H
  C43      1.0000 0.56809  0.87645  0.93893  Biso   1.000  C
  H28      1.0000 0.58067  0.87023  0.98643  Biso   1.000  H
  C44      1.0000 0.49429  0.92133  0.90313  Biso   1.000  C
  C45      1.0000 0.51272  0.95940  0.95043  Biso   1.000  C
  H29      1.0000 0.54217  0.97213  0.96643  Biso   1.000  H
  H30      1.0000 0.39177  0.82823  0.92893  Biso   1.000  H
  O11      1.0000 0.29527  0.18626  0.24360  Biso   1.000  O
  O12      1.0000 0.28261  0.17997  0.10175  Biso   1.000  O
  C46      1.0000 0.27628  0.18807  0.17597  Biso   1.000  C
  C47      1.0000 0.24420  0.20297  0.19017  Biso   1.000  C
  C48      1.0000 0.22407  0.21013  0.12347  Biso   1.000  C
  H31      1.0000 0.22973  0.20497  0.06647  Biso   1.000  H
  C49      1.0000 0.19532  0.22487  0.13757  Biso   1.000  C
  H32      1.0000 0.18073  0.22847  0.09027  Biso   1.000  H
  C50      1.0000 0.18776  0.23433  0.21887  Biso   1.000  C
  C51      1.0000 0.20698  0.22568  0.28627  Biso   1.000  C
  H33      1.0000 0.20123  0.23067  0.34337  Biso   1.000  H
  C52      1.0000 0.23475  0.20979  0.27227  Biso   1.000  C
  H34      1.0000 0.24733  0.20357  0.31977  Biso   1.000  H
  C53      1.0000 0.16095  0.25467  0.23647  Biso   1.000  C
  C54      1.0000 0.17938  0.29274  0.28377  Biso   1.000  C
  H35      1.0000 0.20883  0.30547  0.29977  Biso   1.000  H
  H36      1.0000 0.05843  0.16157  0.26227  Biso   1.000  H
  O13      1.0000 0.48041  0.44235  0.57693  Biso   1.000  O
  O14      1.0000 0.48670  0.43598  0.43508  Biso   1.000  O
  C55      1.0000 0.47860  0.42155  0.50930  Biso   1.000  C
  C56      1.0000 0.46370  0.37457  0.52350  Biso   1.000  C
  C57      1.0000 0.45654  0.34728  0.45680  Biso   1.000  C
  H37      1.0000 0.46170  0.35810  0.39980  Biso   1.000  H
  C58      1.0000 0.44180  0.30379  0.47090  Biso   1.000  C
  H38      1.0000 0.43820  0.28560  0.42360  Biso   1.000  H
  C59      1.0000 0.43234  0.28677  0.55220  Biso   1.000  C
  C60      1.0000 0.44099  0.31464  0.61960  Biso   1.000  C
  H39      1.0000 0.43600  0.30390  0.67670  Biso   1.000  H
  C61      1.0000 0.45688  0.35830  0.60560  Biso   1.000  C
  H40      1.0000 0.46310  0.37710  0.65310  Biso   1.000  H
  C62      1.0000 0.41200  0.23962  0.56980  Biso   1.000  C
  C63      1.0000 0.37393  0.21998  0.61710  Biso   1.000  C
  H41      1.0000 0.36120  0.23670  0.63310  Biso   1.000  H
  H42      1.0000 0.50510  0.23020  0.59560  Biso   1.000  H
  O15      1.0000 0.14708  0.77568  0.91026  Biso   1.000  O
  O16      1.0000 0.15337  0.76931  0.76841  Biso   1.000  O
  C64      1.0000 0.14527  0.75488  0.84263  Biso   1.000  C
  C65      1.0000 0.13037  0.70790  0.85683  Biso   1.000  C
  C66      1.0000 0.12321  0.68061  0.79013  Biso   1.000  C
  H43      1.0000 0.12837  0.69143  0.73313  Biso   1.000  H
  C67      1.0000 0.10847  0.63712  0.80423  Biso   1.000  C
  H44      1.0000 0.10487  0.61893  0.75693  Biso   1.000  H
  C68      1.0000 0.09901  0.62010  0.88553  Biso   1.000  C
  C69      1.0000 0.10766  0.64797  0.95293  Biso   1.000  C
  H45      1.0000 0.10267  0.63723  0.01003  Biso   1.000  H
  C70      1.0000 0.12355  0.69163  0.93893  Biso   1.000  C
  H46      1.0000 0.12977  0.71043  0.98643  Biso   1.000  H
  C71      1.0000 0.07867  0.57295  0.90313  Biso   1.000  C
  C72      1.0000 0.04060  0.55331  0.95043  Biso   1.000  C
  H47      1.0000 0.02787  0.57003  0.96643  Biso   1.000  H
  H48      1.0000 0.17177  0.56353  0.92893  Biso   1.000  H
  O17      1.0000 0.81374  0.10902  0.24360  Biso   1.000  O
  O18      1.0000 0.82003  0.10265  0.10175  Biso   1.000  O
  C73      1.0000 0.81193  0.08822  0.17597  Biso   1.000  C
  C74      1.0000 0.79703  0.04124  0.19017  Biso   1.000  C
  C75      1.0000 0.78987  0.01395  0.12347  Biso   1.000  C
  H49      1.0000 0.79503  0.02477  0.06647  Biso   1.000  H
  C76      1.0000 0.77513  0.97046  0.13757  Biso   1.000  C
  H50      1.0000 0.77153  0.95227  0.09027  Biso   1.000  H
  C77      1.0000 0.76567  0.95344  0.21887  Biso   1.000  C
  C78      1.0000 0.77432  0.98131  0.28627  Biso   1.000  C
  H51      1.0000 0.76933  0.97057  0.34337  Biso   1.000  H
  C79      1.0000 0.79021  0.02497  0.27227  Biso   1.000  C
  H52      1.0000 0.79643  0.04377  0.31977  Biso   1.000  H
  C80      1.0000 0.74533  0.90629  0.23647  Biso   1.000  C
  C81      1.0000 0.70726  0.88665  0.28377  Biso   1.000  C
  H53      1.0000 0.69453  0.90337  0.29977  Biso   1.000  H
  H54      1.0000 0.83843  0.89687  0.26227  Biso   1.000  H
  O19      1.0000 0.03806  0.55765  0.42307  Biso   1.000  O
  O20      1.0000 0.05072  0.56402  0.56492  Biso   1.000  O
  C82      1.0000 0.05705  0.57845  0.49070  Biso   1.000  C
  C83      1.0000 0.08913  0.62543  0.47650  Biso   1.000  C
  C84      1.0000 0.10926  0.65272  0.54320  Biso   1.000  C
  H55      1.0000 0.10360  0.64190  0.60020  Biso   1.000  H
  C85      1.0000 0.13801  0.69621  0.52910  Biso   1.000  C
  H56      1.0000 0.15260  0.71440  0.57640  Biso   1.000  H
  C86      1.0000 0.14557  0.71323  0.44780  Biso   1.000  C
  C87      1.0000 0.12635  0.68536  0.38040  Biso   1.000  C
  H57      1.0000 0.13210  0.69610  0.32330  Biso   1.000  H
  C88      1.0000 0.09858  0.64170  0.39440  Biso   1.000  C
  H58      1.0000 0.08600  0.62290  0.34690  Biso   1.000  H
  C89      1.0000 0.17238  0.76038  0.43020  Biso   1.000  C
  C90      1.0000 0.15395  0.78002  0.38290  Biso   1.000  C
  H59      1.0000 0.12450  0.76330  0.36690  Biso   1.000  H
  H60      1.0000 0.27490  0.76980  0.40440  Biso   1.000  H
  O21      1.0000 0.70473  0.89098  0.75640  Biso   1.000  O
  O22      1.0000 0.71739  0.89735  0.89825  Biso   1.000  O
  C91      1.0000 0.72372  0.91178  0.82403  Biso   1.000  C
  C92      1.0000 0.75580  0.95876  0.80983  Biso   1.000  C
  C93      1.0000 0.77593  0.98605  0.87653  Biso   1.000  C
  H61      1.0000 0.77027  0.97523  0.93353  Biso   1.000  H
  C94      1.0000 0.80468  0.02954  0.86243  Biso   1.000  C
  H62      1.0000 0.81927  0.04773  0.90973  Biso   1.000  H
  C95      1.0000 0.81224  0.04656  0.78113  Biso   1.000  C
  C96      1.0000 0.79302  0.01869  0.71373  Biso   1.000  C
  H63      1.0000 0.79877  0.02943  0.65663  Biso   1.000  H
  C97      1.0000 0.76525  0.97503  0.72773  Biso   1.000  C
  H64      1.0000 0.75267  0.95623  0.68023  Biso   1.000  H
  C98      1.0000 0.83905  0.09371  0.76353  Biso   1.000  C
  C99      1.0000 0.82062  0.11335  0.71623  Biso   1.000  C
  H65      1.0000 0.79117  0.09663  0.70023  Biso   1.000  H
  H66      1.0000 0.94157  0.10313  0.73773  Biso   1.000  H
  O23      1.0000 0.37139  0.22432  0.08974  Biso   1.000  O
  O24      1.0000 0.38405  0.23069  0.23159  Biso   1.000  O
  C100     1.0000 0.39038  0.24512  0.15737  Biso   1.000  C
  C101     1.0000 0.42246  0.29210  0.14317  Biso   1.000  C
  C102     1.0000 0.44259  0.31939  0.20987  Biso   1.000  C
  H67      1.0000 0.43693  0.30857  0.26687  Biso   1.000  H
  C103     1.0000 0.47134  0.36288  0.19577  Biso   1.000  C
  H68      1.0000 0.48593  0.38107  0.24307  Biso   1.000  H
  C104     1.0000 0.47890  0.37990  0.11447  Biso   1.000  C
  C105     1.0000 0.45968  0.35203  0.04707  Biso   1.000  C
  H69      1.0000 0.46543  0.36277  0.98997  Biso   1.000  H
  C106     1.0000 0.43191  0.30837  0.06107  Biso   1.000  C
  H70      1.0000 0.41933  0.28957  0.01357  Biso   1.000  H
  C107     1.0000 0.50571  0.42705  0.09687  Biso   1.000  C
  C108     1.0000 0.48728  0.44669  0.04957  Biso   1.000  C
  H71      1.0000 0.45783  0.42997  0.03357  Biso   1.000  H
  H72      1.0000 0.60823  0.43647  0.07107  Biso   1.000  H
  O25      1.0000 0.51959  0.96194  0.42307  Biso   1.000  O
  O26      1.0000 0.51330  0.94928  0.56492  Biso   1.000  O
  C109     1.0000 0.52140  0.94295  0.49070  Biso   1.000  C
  C110     1.0000 0.53630  0.91087  0.47650  Biso   1.000  C
  C111     1.0000 0.54346  0.89074  0.54320  Biso   1.000  C
  H73      1.0000 0.53830  0.89640  0.60020  Biso   1.000  H
  C112     1.0000 0.55820  0.86199  0.52910  Biso   1.000  C
  H74      1.0000 0.56180  0.84740  0.57640  Biso   1.000  H
  C113     1.0000 0.56766  0.85443  0.44780  Biso   1.000  C
  C114     1.0000 0.55901  0.87365  0.38040  Biso   1.000  C
  H75      1.0000 0.56400  0.86790  0.32330  Biso   1.000  H
  C115     1.0000 0.54312  0.90142  0.39440  Biso   1.000  C
  H76      1.0000 0.53690  0.91400  0.34690  Biso   1.000  H
  C116     1.0000 0.58800  0.82762  0.43020  Biso   1.000  C
  C117     1.0000 0.62607  0.84605  0.38290  Biso   1.000  C
  H77      1.0000 0.63880  0.87550  0.36690  Biso   1.000  H
  H78      1.0000 0.49490  0.72510  0.40440  Biso   1.000  H
  O27      1.0000 0.18626  0.29527  0.75640  Biso   1.000  O
  O28      1.0000 0.17997  0.28261  0.89825  Biso   1.000  O
  C118     1.0000 0.18807  0.27628  0.82403  Biso   1.000  C
  C119     1.0000 0.20297  0.24420  0.80983  Biso   1.000  C
  C120     1.0000 0.21013  0.22407  0.87653  Biso   1.000  C
  H79      1.0000 0.20497  0.22973  0.93353  Biso   1.000  H
  C121     1.0000 0.22487  0.19532  0.86243  Biso   1.000  C
  H80      1.0000 0.22847  0.18073  0.90973  Biso   1.000  H
  C122     1.0000 0.23433  0.18776  0.78113  Biso   1.000  C
  C123     1.0000 0.22568  0.20698  0.71373  Biso   1.000  C
  H81      1.0000 0.23067  0.20123  0.65663  Biso   1.000  H
  C124     1.0000 0.20979  0.23475  0.72773  Biso   1.000  C
  H82      1.0000 0.20357  0.24733  0.68023  Biso   1.000  H
  C125     1.0000 0.25467  0.16095  0.76353  Biso   1.000  C
  C126     1.0000 0.29274  0.17938  0.71623  Biso   1.000  C
  H83      1.0000 0.30547  0.20883  0.70023  Biso   1.000  H
  H84      1.0000 0.16157  0.05843  0.73773  Biso   1.000  H
  O29      1.0000 0.85292  0.62861  0.08974  Biso   1.000  O
  O30      1.0000 0.84663  0.61595  0.23159  Biso   1.000  O
  C127     1.0000 0.85473  0.60962  0.15737  Biso   1.000  C
  C128     1.0000 0.86963  0.57754  0.14317  Biso   1.000  C
  C129     1.0000 0.87679  0.55741  0.20987  Biso   1.000  C
  H85      1.0000 0.87163  0.56307  0.26687  Biso   1.000  H
  C130     1.0000 0.89153  0.52866  0.19577  Biso   1.000  C
  H86      1.0000 0.89513  0.51407  0.24307  Biso   1.000  H
  C131     1.0000 0.90099  0.52110  0.11447  Biso   1.000  C
  C132     1.0000 0.89234  0.54032  0.04707  Biso   1.000  C
  H87      1.0000 0.89733  0.53457  0.98997  Biso   1.000  H
  C133     1.0000 0.87645  0.56809  0.06107  Biso   1.000  C
  H88      1.0000 0.87023  0.58067  0.01357  Biso   1.000  H
  C134     1.0000 0.92133  0.49429  0.09687  Biso   1.000  C
  C135     1.0000 0.95940  0.51272  0.04957  Biso   1.000  C
  H89      1.0000 0.97213  0.54217  0.03357  Biso   1.000  H
  H90      1.0000 0.82823  0.39177  0.07107  Biso   1.000  H
  O31      1.0000 0.44235  0.48041  0.42307  Biso   1.000  O
  O32      1.0000 0.43598  0.48670  0.56492  Biso   1.000  O
  C136     1.0000 0.42155  0.47860  0.49070  Biso   1.000  C
  C137     1.0000 0.37457  0.46370  0.47650  Biso   1.000  C
  C138     1.0000 0.34728  0.45654  0.54320  Biso   1.000  C
  H91      1.0000 0.35810  0.46170  0.60020  Biso   1.000  H
  C139     1.0000 0.30379  0.44180  0.52910  Biso   1.000  C
  H92      1.0000 0.28560  0.43820  0.57640  Biso   1.000  H
  C140     1.0000 0.28677  0.43234  0.44780  Biso   1.000  C
  C141     1.0000 0.31464  0.44099  0.38040  Biso   1.000  C
  H93      1.0000 0.30390  0.43600  0.32330  Biso   1.000  H
  C142     1.0000 0.35830  0.45688  0.39440  Biso   1.000  C
  H94      1.0000 0.37710  0.46310  0.34690  Biso   1.000  H
  C143     1.0000 0.23962  0.41200  0.43020  Biso   1.000  C
  C144     1.0000 0.21998  0.37393  0.38290  Biso   1.000  C
  H95      1.0000 0.23670  0.36120  0.36690  Biso   1.000  H
  H96      1.0000 0.23020  0.50510  0.40440  Biso   1.000  H
  O33      1.0000 0.10902  0.81374  0.75640  Biso   1.000  O
  O34      1.0000 0.10265  0.82003  0.89825  Biso   1.000  O
  C145     1.0000 0.08822  0.81193  0.82403  Biso   1.000  C
  C146     1.0000 0.04124  0.79703  0.80983  Biso   1.000  C
  C147     1.0000 0.01395  0.78987  0.87653  Biso   1.000  C
  H97      1.0000 0.02477  0.79503  0.93353  Biso   1.000  H
  C148     1.0000 0.97046  0.77513  0.86243  Biso   1.000  C
  H98      1.0000 0.95227  0.77153  0.90973  Biso   1.000  H
  C149     1.0000 0.95344  0.76567  0.78113  Biso   1.000  C
  C150     1.0000 0.98131  0.77432  0.71373  Biso   1.000  C
  H99      1.0000 0.97057  0.76933  0.65663  Biso   1.000  H
  C151     1.0000 0.02497  0.79021  0.72773  Biso   1.000  C
  H100     1.0000 0.04377  0.79643  0.68023  Biso   1.000  H
  C152     1.0000 0.90629  0.74533  0.76353  Biso   1.000  C
  C153     1.0000 0.88665  0.70726  0.71623  Biso   1.000  C
  H101     1.0000 0.90337  0.69453  0.70023  Biso   1.000  H
  H102     1.0000 0.89687  0.83843  0.73773  Biso   1.000  H
  O35      1.0000 0.77568  0.14708  0.08974  Biso   1.000  O
  O36      1.0000 0.76931  0.15337  0.23159  Biso   1.000  O
  C154     1.0000 0.75488  0.14527  0.15737  Biso   1.000  C
  C155     1.0000 0.70790  0.13037  0.14317  Biso   1.000  C
  C156     1.0000 0.68061  0.12321  0.20987  Biso   1.000  C
  H103     1.0000 0.69143  0.12837  0.26687  Biso   1.000  H
  C157     1.0000 0.63712  0.10847  0.19577  Biso   1.000  C
  H104     1.0000 0.61893  0.10487  0.24307  Biso   1.000  H
  C158     1.0000 0.62010  0.09901  0.11447  Biso   1.000  C
  C159     1.0000 0.64797  0.10766  0.04707  Biso   1.000  C
  H105     1.0000 0.63723  0.10267  0.98997  Biso   1.000  H
  C160     1.0000 0.69163  0.12355  0.06107  Biso   1.000  C
  H106     1.0000 0.71043  0.12977  0.01357  Biso   1.000  H
  C161     1.0000 0.57295  0.07867  0.09687  Biso   1.000  C
  C162     1.0000 0.55331  0.04060  0.04957  Biso   1.000  C
  H107     1.0000 0.57003  0.02787  0.03357  Biso   1.000  H
  H108     1.0000 0.56353  0.17177  0.07107  Biso   1.000  H
  O37      1.0000 0.44235  0.96194  0.42307  Biso   1.000  O
  O38      1.0000 0.43598  0.94928  0.56492  Biso   1.000  O
  C163     1.0000 0.42155  0.94295  0.49070  Biso   1.000  C
  C164     1.0000 0.37457  0.91087  0.47650  Biso   1.000  C
  C165     1.0000 0.34728  0.89074  0.54320  Biso   1.000  C
  H109     1.0000 0.35810  0.89640  0.60020  Biso   1.000  H
  C166     1.0000 0.30379  0.86199  0.52910  Biso   1.000  C
  H110     1.0000 0.28560  0.84740  0.57640  Biso   1.000  H
  C167     1.0000 0.28677  0.85443  0.44780  Biso   1.000  C
  C168     1.0000 0.31464  0.87365  0.38040  Biso   1.000  C
  H111     1.0000 0.30390  0.86790  0.32330  Biso   1.000  H
  C169     1.0000 0.35830  0.90142  0.39440  Biso   1.000  C
  H112     1.0000 0.37710  0.91400  0.34690  Biso   1.000  H
  C170     1.0000 0.23962  0.82762  0.43020  Biso   1.000  C
  C171     1.0000 0.21998  0.84605  0.38290  Biso   1.000  C
  H113     1.0000 0.23670  0.87550  0.36690  Biso   1.000  H
  H114     1.0000 0.23020  0.72510  0.40440  Biso   1.000  H
  O39      1.0000 0.10902  0.29527  0.75640  Biso   1.000  O
  O40      1.0000 0.10265  0.28261  0.89825  Biso   1.000  O
  C172     1.0000 0.08822  0.27628  0.82403  Biso   1.000  C
  C173     1.0000 0.04124  0.24420  0.80983  Biso   1.000  C
  C174     1.0000 0.01395  0.22407  0.87653  Biso   1.000  C
  H115     1.0000 0.02477  0.22973  0.93353  Biso   1.000  H
  C175     1.0000 0.97046  0.19532  0.86243  Biso   1.000  C
  H116     1.0000 0.95227  0.18073  0.90973  Biso   1.000  H
  C176     1.0000 0.95344  0.18776  0.78113  Biso   1.000  C
  C177     1.0000 0.98131  0.20698  0.71373  Biso   1.000  C
  H117     1.0000 0.97057  0.20123  0.65663  Biso   1.000  H
  C178     1.0000 0.02497  0.23475  0.72773  Biso   1.000  C
  H118     1.0000 0.04377  0.24733  0.68023  Biso   1.000  H
  C179     1.0000 0.90629  0.16095  0.76353  Biso   1.000  C
  C180     1.0000 0.88665  0.17938  0.71623  Biso   1.000  C
  H119     1.0000 0.90337  0.20883  0.70023  Biso   1.000  H
  H120     1.0000 0.89687  0.05843  0.73773  Biso   1.000  H
  O41      1.0000 0.77568  0.62861  0.08974  Biso   1.000  O
  O42      1.0000 0.76931  0.61595  0.23159  Biso   1.000  O
  C181     1.0000 0.75488  0.60962  0.15737  Biso   1.000  C
  C182     1.0000 0.70790  0.57754  0.14317  Biso   1.000  C
  C183     1.0000 0.68061  0.55741  0.20987  Biso   1.000  C
  H121     1.0000 0.69143  0.56307  0.26687  Biso   1.000  H
  C184     1.0000 0.63712  0.52866  0.19577  Biso   1.000  C
  H122     1.0000 0.61893  0.51407  0.24307  Biso   1.000  H
  C185     1.0000 0.62010  0.52110  0.11447  Biso   1.000  C
  C186     1.0000 0.64797  0.54032  0.04707  Biso   1.000  C
  H123     1.0000 0.63723  0.53457  0.98997  Biso   1.000  H
  C187     1.0000 0.69163  0.56809  0.06107  Biso   1.000  C
  H124     1.0000 0.71043  0.58067  0.01357  Biso   1.000  H
  C188     1.0000 0.57295  0.49429  0.09687  Biso   1.000  C
  C189     1.0000 0.55331  0.51272  0.04957  Biso   1.000  C
  H125     1.0000 0.57003  0.54217  0.03357  Biso   1.000  H
  H126     1.0000 0.56353  0.39177  0.07107  Biso   1.000  H
  O43      1.0000 0.03806  0.48041  0.42307  Biso   1.000  O
  O44      1.0000 0.05072  0.48670  0.56492  Biso   1.000  O
  C190     1.0000 0.05705  0.47860  0.49070  Biso   1.000  C
  C191     1.0000 0.08913  0.46370  0.47650  Biso   1.000  C
  C192     1.0000 0.10926  0.45654  0.54320  Biso   1.000  C
  H127     1.0000 0.10360  0.46170  0.60020  Biso   1.000  H
  C193     1.0000 0.13801  0.44180  0.52910  Biso   1.000  C
  H128     1.0000 0.15260  0.43820  0.57640  Biso   1.000  H
  C194     1.0000 0.14557  0.43234  0.44780  Biso   1.000  C
  C195     1.0000 0.12635  0.44099  0.38040  Biso   1.000  C
  H129     1.0000 0.13210  0.43600  0.32330  Biso   1.000  H
  C196     1.0000 0.09858  0.45688  0.39440  Biso   1.000  C
  H130     1.0000 0.08600  0.46310  0.34690  Biso   1.000  H
  C197     1.0000 0.17238  0.41200  0.43020  Biso   1.000  C
  C198     1.0000 0.15395  0.37393  0.38290  Biso   1.000  C
  H131     1.0000 0.12450  0.36120  0.36690  Biso   1.000  H
  H132     1.0000 0.27490  0.50510  0.40440  Biso   1.000  H
  O45      1.0000 0.70473  0.81374  0.75640  Biso   1.000  O
  O46      1.0000 0.71739  0.82003  0.89825  Biso   1.000  O
  C199     1.0000 0.72372  0.81193  0.82403  Biso   1.000  C
  C200     1.0000 0.75580  0.79703  0.80983  Biso   1.000  C
  C201     1.0000 0.77593  0.78987  0.87653  Biso   1.000  C
  H133     1.0000 0.77027  0.79503  0.93353  Biso   1.000  H
  C202     1.0000 0.80468  0.77513  0.86243  Biso   1.000  C
  H134     1.0000 0.81927  0.77153  0.90973  Biso   1.000  H
  C203     1.0000 0.81224  0.76567  0.78113  Biso   1.000  C
  C204     1.0000 0.79302  0.77432  0.71373  Biso   1.000  C
  H135     1.0000 0.79877  0.76933  0.65663  Biso   1.000  H
  C205     1.0000 0.76525  0.79021  0.72773  Biso   1.000  C
  H136     1.0000 0.75267  0.79643  0.68023  Biso   1.000  H
  C206     1.0000 0.83905  0.74533  0.76353  Biso   1.000  C
  C207     1.0000 0.82062  0.70726  0.71623  Biso   1.000  C
  H137     1.0000 0.79117  0.69453  0.70023  Biso   1.000  H
  H138     1.0000 0.94157  0.83843  0.73773  Biso   1.000  H
  O47      1.0000 0.37139  0.14708  0.08974  Biso   1.000  O
  O48      1.0000 0.38405  0.15337  0.23159  Biso   1.000  O
  C208     1.0000 0.39038  0.14527  0.15737  Biso   1.000  C
  C209     1.0000 0.42246  0.13037  0.14317  Biso   1.000  C
  C210     1.0000 0.44259  0.12321  0.20987  Biso   1.000  C
  H139     1.0000 0.43693  0.12837  0.26687  Biso   1.000  H
  C211     1.0000 0.47134  0.10847  0.19577  Biso   1.000  C
  H140     1.0000 0.48593  0.10487  0.24307  Biso   1.000  H
  C212     1.0000 0.47890  0.09901  0.11447  Biso   1.000  C
  C213     1.0000 0.45968  0.10766  0.04707  Biso   1.000  C
  H141     1.0000 0.46543  0.10267  0.98997  Biso   1.000  H
  C214     1.0000 0.43191  0.12355  0.06107  Biso   1.000  C
  H142     1.0000 0.41933  0.12977  0.01357  Biso   1.000  H
  C215     1.0000 0.50571  0.07867  0.09687  Biso   1.000  C
  C216     1.0000 0.48728  0.04060  0.04957  Biso   1.000  C
  H143     1.0000 0.45783  0.02787  0.03357  Biso   1.000  H
  H144     1.0000 0.60823  0.17177  0.07107  Biso   1.000  H
  O49      1.0000 0.51959  0.55765  0.42307  Biso   1.000  O
  O50      1.0000 0.51330  0.56402  0.56492  Biso   1.000  O
  C217     1.0000 0.52140  0.57845  0.49070  Biso   1.000  C
  C218     1.0000 0.53630  0.62543  0.47650  Biso   1.000  C
  C219     1.0000 0.54346  0.65272  0.54320  Biso   1.000  C
  H145     1.0000 0.53830  0.64190  0.60020  Biso   1.000  H
  C220     1.0000 0.55820  0.69621  0.52910  Biso   1.000  C
  H146     1.0000 0.56180  0.71440  0.57640  Biso   1.000  H
  C221     1.0000 0.56766  0.71323  0.44780  Biso   1.000  C
  C222     1.0000 0.55901  0.68536  0.38040  Biso   1.000  C
  H147     1.0000 0.56400  0.69610  0.32330  Biso   1.000  H
  C223     1.0000 0.54312  0.64170  0.39440  Biso   1.000  C
  H148     1.0000 0.53690  0.62290  0.34690  Biso   1.000  H
  C224     1.0000 0.58800  0.76038  0.43020  Biso   1.000  C
  C225     1.0000 0.62607  0.78002  0.38290  Biso   1.000  C
  H149     1.0000 0.63880  0.76330  0.36690  Biso   1.000  H
  H150     1.0000 0.49490  0.76980  0.40440  Biso   1.000  H
  O51      1.0000 0.18626  0.89098  0.75640  Biso   1.000  O
  O52      1.0000 0.17997  0.89735  0.89825  Biso   1.000  O
  C226     1.0000 0.18807  0.91178  0.82403  Biso   1.000  C
  C227     1.0000 0.20297  0.95876  0.80983  Biso   1.000  C
  C228     1.0000 0.21013  0.98605  0.87653  Biso   1.000  C
  H151     1.0000 0.20497  0.97523  0.93353  Biso   1.000  H
  C229     1.0000 0.22487  0.02954  0.86243  Biso   1.000  C
  H152     1.0000 0.22847  0.04773  0.90973  Biso   1.000  H
  C230     1.0000 0.23433  0.04656  0.78113  Biso   1.000  C
  C231     1.0000 0.22568  0.01869  0.71373  Biso   1.000  C
  H153     1.0000 0.23067  0.02943  0.65663  Biso   1.000  H
  C232     1.0000 0.20979  0.97503  0.72773  Biso   1.000  C
  H154     1.0000 0.20357  0.95623  0.68023  Biso   1.000  H
  C233     1.0000 0.25467  0.09371  0.76353  Biso   1.000  C
  C234     1.0000 0.29274  0.11335  0.71623  Biso   1.000  C
  H155     1.0000 0.30547  0.09663  0.70023  Biso   1.000  H
  H156     1.0000 0.16157  0.10313  0.73773  Biso   1.000  H
  O53      1.0000 0.85292  0.22432  0.08974  Biso   1.000  O
  O54      1.0000 0.84663  0.23069  0.23159  Biso   1.000  O
  C235     1.0000 0.85473  0.24512  0.15737  Biso   1.000  C
  C236     1.0000 0.86963  0.29210  0.14317  Biso   1.000  C
  C237     1.0000 0.87679  0.31939  0.20987  Biso   1.000  C
  H157     1.0000 0.87163  0.30857  0.26687  Biso   1.000  H
  C238     1.0000 0.89153  0.36288  0.19577  Biso   1.000  C
  H158     1.0000 0.89513  0.38107  0.24307  Biso   1.000  H
  C239     1.0000 0.90099  0.37990  0.11447  Biso   1.000  C
  C240     1.0000 0.89234  0.35203  0.04707  Biso   1.000  C
  H159     1.0000 0.89733  0.36277  0.98997  Biso   1.000  H
  C241     1.0000 0.87645  0.30837  0.06107  Biso   1.000  C
  H160     1.0000 0.87023  0.28957  0.01357  Biso   1.000  H
  C242     1.0000 0.92133  0.42705  0.09687  Biso   1.000  C
  C243     1.0000 0.95940  0.44669  0.04957  Biso   1.000  C
  H161     1.0000 0.97213  0.42997  0.03357  Biso   1.000  H
  H162     1.0000 0.82823  0.43647  0.07107  Biso   1.000  H
  O55      1.0000 0.96194  0.44235  0.57693  Biso   1.000  O
  O56      1.0000 0.94928  0.43598  0.43508  Biso   1.000  O
  C244     1.0000 0.94295  0.42155  0.50930  Biso   1.000  C
  C245     1.0000 0.91087  0.37457  0.52350  Biso   1.000  C
  C246     1.0000 0.89074  0.34728  0.45680  Biso   1.000  C
  H163     1.0000 0.89640  0.35810  0.39980  Biso   1.000  H
  C247     1.0000 0.86199  0.30379  0.47090  Biso   1.000  C
  H164     1.0000 0.84740  0.28560  0.42360  Biso   1.000  H
  C248     1.0000 0.85443  0.28677  0.55220  Biso   1.000  C
  C249     1.0000 0.87365  0.31464  0.61960  Biso   1.000  C
  H165     1.0000 0.86790  0.30390  0.67670  Biso   1.000  H
  C250     1.0000 0.90142  0.35830  0.60560  Biso   1.000  C
  H166     1.0000 0.91400  0.37710  0.65310  Biso   1.000  H
  C251     1.0000 0.82762  0.23962  0.56980  Biso   1.000  C
  C252     1.0000 0.84605  0.21998  0.61710  Biso   1.000  C
  H167     1.0000 0.87550  0.23670  0.63310  Biso   1.000  H
  H168     1.0000 0.72510  0.23020  0.59560  Biso   1.000  H
  O57      1.0000 0.62861  0.77568  0.91026  Biso   1.000  O
  O58      1.0000 0.61595  0.76931  0.76841  Biso   1.000  O
  C253     1.0000 0.60962  0.75488  0.84263  Biso   1.000  C
  C254     1.0000 0.57754  0.70790  0.85683  Biso   1.000  C
  C255     1.0000 0.55741  0.68061  0.79013  Biso   1.000  C
  H169     1.0000 0.56307  0.69143  0.73313  Biso   1.000  H
  C256     1.0000 0.52866  0.63712  0.80423  Biso   1.000  C
  H170     1.0000 0.51407  0.61893  0.75693  Biso   1.000  H
  C257     1.0000 0.52110  0.62010  0.88553  Biso   1.000  C
  C258     1.0000 0.54032  0.64797  0.95293  Biso   1.000  C
  H171     1.0000 0.53457  0.63723  0.01003  Biso   1.000  H
  C259     1.0000 0.56809  0.69163  0.93893  Biso   1.000  C
  H172     1.0000 0.58067  0.71043  0.98643  Biso   1.000  H
  C260     1.0000 0.49429  0.57295  0.90313  Biso   1.000  C
  C261     1.0000 0.51272  0.55331  0.95043  Biso   1.000  C
  H173     1.0000 0.54217  0.57003  0.96643  Biso   1.000  H
  H174     1.0000 0.39177  0.56353  0.92893  Biso   1.000  H
  O59      1.0000 0.29527  0.10902  0.24360  Biso   1.000  O
  O60      1.0000 0.28261  0.10265  0.10175  Biso   1.000  O
  C262     1.0000 0.27628  0.08822  0.17597  Biso   1.000  C
  C263     1.0000 0.24420  0.04124  0.19017  Biso   1.000  C
  C264     1.0000 0.22407  0.01395  0.12347  Biso   1.000  C
  H175     1.0000 0.22973  0.02477  0.06647  Biso   1.000  H
  C265     1.0000 0.19532  0.97046  0.13757  Biso   1.000  C
  H176     1.0000 0.18073  0.95227  0.09027  Biso   1.000  H
  C266     1.0000 0.18776  0.95344  0.21887  Biso   1.000  C
  C267     1.0000 0.20698  0.98131  0.28627  Biso   1.000  C
  H177     1.0000 0.20123  0.97057  0.34337  Biso   1.000  H
  C268     1.0000 0.23475  0.02497  0.27227  Biso   1.000  C
  H178     1.0000 0.24733  0.04377  0.31977  Biso   1.000  H
  C269     1.0000 0.16095  0.90629  0.23647  Biso   1.000  C
  C270     1.0000 0.17938  0.88665  0.28377  Biso   1.000  C
  H179     1.0000 0.20883  0.90337  0.29977  Biso   1.000  H
  H180     1.0000 0.05843  0.89687  0.26227  Biso   1.000  H
  O61      1.0000 0.48041  0.03806  0.57693  Biso   1.000  O
  O62      1.0000 0.48670  0.05072  0.43508  Biso   1.000  O
  C271     1.0000 0.47860  0.05705  0.50930  Biso   1.000  C
  C272     1.0000 0.46370  0.08913  0.52350  Biso   1.000  C
  C273     1.0000 0.45654  0.10926  0.45680  Biso   1.000  C
  H181     1.0000 0.46170  0.10360  0.39980  Biso   1.000  H
  C274     1.0000 0.44180  0.13801  0.47090  Biso   1.000  C
  H182     1.0000 0.43820  0.15260  0.42360  Biso   1.000  H
  C275     1.0000 0.43234  0.14557  0.55220  Biso   1.000  C
  C276     1.0000 0.44099  0.12635  0.61960  Biso   1.000  C
  H183     1.0000 0.43600  0.13210  0.67670  Biso   1.000  H
  C277     1.0000 0.45688  0.09858  0.60560  Biso   1.000  C
  H184     1.0000 0.46310  0.08600  0.65310  Biso   1.000  H
  C278     1.0000 0.41200  0.17238  0.56980  Biso   1.000  C
  C279     1.0000 0.37393  0.15395  0.61710  Biso   1.000  C
  H185     1.0000 0.36120  0.12450  0.63310  Biso   1.000  H
  H186     1.0000 0.50510  0.27490  0.59560  Biso   1.000  H
  O63      1.0000 0.14708  0.37139  0.91026  Biso   1.000  O
  O64      1.0000 0.15337  0.38405  0.76841  Biso   1.000  O
  C280     1.0000 0.14527  0.39038  0.84263  Biso   1.000  C
  C281     1.0000 0.13037  0.42246  0.85683  Biso   1.000  C
  C282     1.0000 0.12321  0.44259  0.79013  Biso   1.000  C
  H187     1.0000 0.12837  0.43693  0.73313  Biso   1.000  H
  C283     1.0000 0.10847  0.47134  0.80423  Biso   1.000  C
  H188     1.0000 0.10487  0.48593  0.75693  Biso   1.000  H
  C284     1.0000 0.09901  0.47890  0.88553  Biso   1.000  C
  C285     1.0000 0.10766  0.45968  0.95293  Biso   1.000  C
  H189     1.0000 0.10267  0.46543  0.01003  Biso   1.000  H
  C286     1.0000 0.12355  0.43191  0.93893  Biso   1.000  C
  H190     1.0000 0.12977  0.41933  0.98643  Biso   1.000  H
  C287     1.0000 0.07867  0.50571  0.90313  Biso   1.000  C
  C288     1.0000 0.04060  0.48728  0.95043  Biso   1.000  C
  H191     1.0000 0.02787  0.45783  0.96643  Biso   1.000  H
  H192     1.0000 0.17177  0.60823  0.92893  Biso   1.000  H
  O65      1.0000 0.81374  0.70473  0.24360  Biso   1.000  O
  O66      1.0000 0.82003  0.71739  0.10175  Biso   1.000  O
  C289     1.0000 0.81193  0.72372  0.17597  Biso   1.000  C
  C290     1.0000 0.79703  0.75580  0.19017  Biso   1.000  C
  C291     1.0000 0.78987  0.77593  0.12347  Biso   1.000  C
  H193     1.0000 0.79503  0.77027  0.06647  Biso   1.000  H
  C292     1.0000 0.77513  0.80468  0.13757  Biso   1.000  C
  H194     1.0000 0.77153  0.81927  0.09027  Biso   1.000  H
  C293     1.0000 0.76567  0.81224  0.21887  Biso   1.000  C
  C294     1.0000 0.77432  0.79302  0.28627  Biso   1.000  C
  H195     1.0000 0.76933  0.79877  0.34337  Biso   1.000  H
  C295     1.0000 0.79021  0.76525  0.27227  Biso   1.000  C
  H196     1.0000 0.79643  0.75267  0.31977  Biso   1.000  H
  C296     1.0000 0.74533  0.83905  0.23647  Biso   1.000  C
  C297     1.0000 0.70726  0.82062  0.28377  Biso   1.000  C
  H197     1.0000 0.69453  0.79117  0.29977  Biso   1.000  H
  H198     1.0000 0.83843  0.94157  0.26227  Biso   1.000  H
  O67      1.0000 0.55765  0.51959  0.57693  Biso   1.000  O
  O68      1.0000 0.56402  0.51330  0.43508  Biso   1.000  O
  C298     1.0000 0.57845  0.52140  0.50930  Biso   1.000  C
  C299     1.0000 0.62543  0.53630  0.52350  Biso   1.000  C
  C300     1.0000 0.65272  0.54346  0.45680  Biso   1.000  C
  H199     1.0000 0.64190  0.53830  0.39980  Biso   1.000  H
  C301     1.0000 0.69621  0.55820  0.47090  Biso   1.000  C
  H200     1.0000 0.71440  0.56180  0.42360  Biso   1.000  H
  C302     1.0000 0.71323  0.56766  0.55220  Biso   1.000  C
  C303     1.0000 0.68536  0.55901  0.61960  Biso   1.000  C
  H201     1.0000 0.69610  0.56400  0.67670  Biso   1.000  H
  C304     1.0000 0.64170  0.54312  0.60560  Biso   1.000  C
  H202     1.0000 0.62290  0.53690  0.65310  Biso   1.000  H
  C305     1.0000 0.76038  0.58800  0.56980  Biso   1.000  C
  C306     1.0000 0.78002  0.62607  0.61710  Biso   1.000  C
  H203     1.0000 0.76330  0.63880  0.63310  Biso   1.000  H
  H204     1.0000 0.76980  0.49490  0.59560  Biso   1.000  H
  O69      1.0000 0.22432  0.85292  0.91026  Biso   1.000  O
  O70      1.0000 0.23069  0.84663  0.76841  Biso   1.000  O
  C307     1.0000 0.24512  0.85473  0.84263  Biso   1.000  C
  C308     1.0000 0.29210  0.86963  0.85683  Biso   1.000  C
  C309     1.0000 0.31939  0.87679  0.79013  Biso   1.000  C
  H205     1.0000 0.30857  0.87163  0.73313  Biso   1.000  H
  C310     1.0000 0.36288  0.89153  0.80423  Biso   1.000  C
  H206     1.0000 0.38107  0.89513  0.75693  Biso   1.000  H
  C311     1.0000 0.37990  0.90099  0.88553  Biso   1.000  C
  C312     1.0000 0.35203  0.89234  0.95293  Biso   1.000  C
  H207     1.0000 0.36277  0.89733  0.01003  Biso   1.000  H
  C313     1.0000 0.30837  0.87645  0.93893  Biso   1.000  C
  H208     1.0000 0.28957  0.87023  0.98643  Biso   1.000  H
  C314     1.0000 0.42705  0.92133  0.90313  Biso   1.000  C
  C315     1.0000 0.44669  0.95940  0.95043  Biso   1.000  C
  H209     1.0000 0.42997  0.97213  0.96643  Biso   1.000  H
  H210     1.0000 0.43647  0.82823  0.92893  Biso   1.000  H
  O71      1.0000 0.89098  0.18626  0.24360  Biso   1.000  O
  O72      1.0000 0.89735  0.17997  0.10175  Biso   1.000  O
  C316     1.0000 0.91178  0.18807  0.17597  Biso   1.000  C
  C317     1.0000 0.95876  0.20297  0.19017  Biso   1.000  C
  C318     1.0000 0.98605  0.21013  0.12347  Biso   1.000  C
  H211     1.0000 0.97523  0.20497  0.06647  Biso   1.000  H
  C319     1.0000 0.02954  0.22487  0.13757  Biso   1.000  C
  H212     1.0000 0.04773  0.22847  0.09027  Biso   1.000  H
  C320     1.0000 0.04656  0.23433  0.21887  Biso   1.000  C
  C321     1.0000 0.01869  0.22568  0.28627  Biso   1.000  C
  H213     1.0000 0.02943  0.23067  0.34337  Biso   1.000  H
  C322     1.0000 0.97503  0.20979  0.27227  Biso   1.000  C
  H214     1.0000 0.95623  0.20357  0.31977  Biso   1.000  H
  C323     1.0000 0.09371  0.25467  0.23647  Biso   1.000  C
  C324     1.0000 0.11335  0.29274  0.28377  Biso   1.000  C
  H215     1.0000 0.09663  0.30547  0.29977  Biso   1.000  H
  H216     1.0000 0.10313  0.16157  0.26227  Biso   1.000  H
  Cu1      1.0000 0.50350  0.00699  0.41616  Biso   1.000  Cu
  Cu2      1.0000 0.17016  0.34032  0.74949  Biso   1.000  Cu
  Cu3      1.0000 0.83683  0.67366  0.08283  Biso   1.000  Cu
  Cu4      1.0000 0.99301  0.49650  0.41616  Biso   1.000  Cu
  Cu5      1.0000 0.65968  0.82984  0.74949  Biso   1.000  Cu
  Cu6      1.0000 0.32634  0.16317  0.08283  Biso   1.000  Cu
  Cu7      1.0000 0.50350  0.49650  0.41616  Biso   1.000  Cu
  Cu8      1.0000 0.17016  0.82984  0.74949  Biso   1.000  Cu
  Cu9      1.0000 0.83683  0.16317  0.08283  Biso   1.000  Cu
  Cu10     1.0000 0.00699  0.50350  0.58384  Biso   1.000  Cu
  Cu11     1.0000 0.67366  0.83683  0.91717  Biso   1.000  Cu
  Cu12     1.0000 0.34032  0.17016  0.25051  Biso   1.000  Cu
  Cu13     1.0000 0.49650  0.99301  0.58384  Biso   1.000  Cu
  Cu14     1.0000 0.16317  0.32634  0.91717  Biso   1.000  Cu
  Cu15     1.0000 0.82984  0.65968  0.25051  Biso   1.000  Cu
  Cu16     1.0000 0.49650  0.50350  0.58384  Biso   1.000  Cu
  Cu17     1.0000 0.16317  0.83683  0.91717  Biso   1.000  Cu
  Cu18     1.0000 0.82984  0.17016  0.25051  Biso   1.000  Cu
  O73      1.0000 0.76563  0.23437  0.50030  Biso   1.000  O
  C325     1.0000 0.82311  0.17689  0.64200  Biso   1.000  C
  C326     1.0000 0.78477  0.21523  0.54510  Biso   1.000  C
  C327     1.0000 0.74695  0.25305  0.55930  Biso   1.000  C
  H217     1.0000 0.73360  0.26640  0.52590  Biso   1.000  H
  O74      1.0000 0.43230  0.56770  0.83363  Biso   1.000  O
  C328     1.0000 0.48978  0.51022  0.97533  Biso   1.000  C
  C329     1.0000 0.45144  0.54856  0.87843  Biso   1.000  C
  C330     1.0000 0.41362  0.58638  0.89263  Biso   1.000  C
  H218     1.0000 0.40027  0.59973  0.85923  Biso   1.000  H
  O75      1.0000 0.09896  0.90104  0.16697  Biso   1.000  O
  C331     1.0000 0.15644  0.84356  0.30867  Biso   1.000  C
  C332     1.0000 0.11810  0.88190  0.21177  Biso   1.000  C
  C333     1.0000 0.08028  0.91972  0.22597  Biso   1.000  C
  H219     1.0000 0.06693  0.93307  0.19257  Biso   1.000  H
  O76      1.0000 0.76563  0.53126  0.50030  Biso   1.000  O
  C334     1.0000 0.82311  0.64622  0.64200  Biso   1.000  C
  C335     1.0000 0.78477  0.56954  0.54510  Biso   1.000  C
  C336     1.0000 0.74695  0.49390  0.55930  Biso   1.000  C
  H220     1.0000 0.73360  0.46720  0.52590  Biso   1.000  H
  O77      1.0000 0.43230  0.86459  0.83363  Biso   1.000  O
  C337     1.0000 0.48978  0.97955  0.97533  Biso   1.000  C
  C338     1.0000 0.45144  0.90287  0.87843  Biso   1.000  C
  C339     1.0000 0.41362  0.82723  0.89263  Biso   1.000  C
  H221     1.0000 0.40027  0.80053  0.85923  Biso   1.000  H
  O78      1.0000 0.09896  0.19793  0.16697  Biso   1.000  O
  C340     1.0000 0.15644  0.31289  0.30867  Biso   1.000  C
  C341     1.0000 0.11810  0.23621  0.21177  Biso   1.000  C
  C342     1.0000 0.08028  0.16057  0.22597  Biso   1.000  C
  H222     1.0000 0.06693  0.13387  0.19257  Biso   1.000  H
  O79      1.0000 0.46874  0.23437  0.50030  Biso   1.000  O
  C343     1.0000 0.35378  0.17689  0.64200  Biso   1.000  C
  C344     1.0000 0.43046  0.21523  0.54510  Biso   1.000  C
  C345     1.0000 0.50610  0.25305  0.55930  Biso   1.000  C
  H223     1.0000 0.53280  0.26640  0.52590  Biso   1.000  H
  O80      1.0000 0.13541  0.56770  0.83363  Biso   1.000  O
  C346     1.0000 0.02045  0.51022  0.97533  Biso   1.000  C
  C347     1.0000 0.09713  0.54856  0.87843  Biso   1.000  C
  C348     1.0000 0.17277  0.58638  0.89263  Biso   1.000  C
  H224     1.0000 0.19947  0.59973  0.85923  Biso   1.000  H
  O81      1.0000 0.80207  0.90104  0.16697  Biso   1.000  O
  C349     1.0000 0.68711  0.84356  0.30867  Biso   1.000  C
  C350     1.0000 0.76379  0.88190  0.21177  Biso   1.000  C
  C351     1.0000 0.83943  0.91972  0.22597  Biso   1.000  C
  H225     1.0000 0.86613  0.93307  0.19257  Biso   1.000  H
  O82      1.0000 0.23437  0.76563  0.49970  Biso   1.000  O
  C352     1.0000 0.17689  0.82311  0.35800  Biso   1.000  C
  C353     1.0000 0.21523  0.78477  0.45490  Biso   1.000  C
  C354     1.0000 0.25305  0.74695  0.44070  Biso   1.000  C
  H226     1.0000 0.26640  0.73360  0.47410  Biso   1.000  H
  O83      1.0000 0.90104  0.09896  0.83303  Biso   1.000  O
  C355     1.0000 0.84356  0.15644  0.69133  Biso   1.000  C
  C356     1.0000 0.88190  0.11810  0.78823  Biso   1.000  C
  C357     1.0000 0.91972  0.08028  0.77403  Biso   1.000  C
  H227     1.0000 0.93307  0.06693  0.80743  Biso   1.000  H
  O84      1.0000 0.56770  0.43230  0.16637  Biso   1.000  O
  C358     1.0000 0.51022  0.48978  0.02467  Biso   1.000  C
  C359     1.0000 0.54856  0.45144  0.12157  Biso   1.000  C
  C360     1.0000 0.58638  0.41362  0.10737  Biso   1.000  C
  H228     1.0000 0.59973  0.40027  0.14077  Biso   1.000  H
  O85      1.0000 0.53126  0.76563  0.49970  Biso   1.000  O
  C361     1.0000 0.64622  0.82311  0.35800  Biso   1.000  C
  C362     1.0000 0.56954  0.78477  0.45490  Biso   1.000  C
  C363     1.0000 0.49390  0.74695  0.44070  Biso   1.000  C
  H229     1.0000 0.46720  0.73360  0.47410  Biso   1.000  H
  O86      1.0000 0.19793  0.09896  0.83303  Biso   1.000  O
  C364     1.0000 0.31289  0.15644  0.69133  Biso   1.000  C
  C365     1.0000 0.23621  0.11810  0.78823  Biso   1.000  C
  C366     1.0000 0.16057  0.08028  0.77403  Biso   1.000  C
  H230     1.0000 0.13387  0.06693  0.80743  Biso   1.000  H
  O87      1.0000 0.86459  0.43230  0.16637  Biso   1.000  O
  C367     1.0000 0.97955  0.48978  0.02467  Biso   1.000  C
  C368     1.0000 0.90287  0.45144  0.12157  Biso   1.000  C
  C369     1.0000 0.82723  0.41362  0.10737  Biso   1.000  C
  H231     1.0000 0.80053  0.40027  0.14077  Biso   1.000  H
  O88      1.0000 0.23437  0.46874  0.49970  Biso   1.000  O
  C370     1.0000 0.17689  0.35378  0.35800  Biso   1.000  C
  C371     1.0000 0.21523  0.43046  0.45490  Biso   1.000  C
  C372     1.0000 0.25305  0.50610  0.44070  Biso   1.000  C
  H232     1.0000 0.26640  0.53280  0.47410  Biso   1.000  H
  O89      1.0000 0.90104  0.80207  0.83303  Biso   1.000  O
  C373     1.0000 0.84356  0.68711  0.69133  Biso   1.000  C
  C374     1.0000 0.88190  0.76379  0.78823  Biso   1.000  C
  C375     1.0000 0.91972  0.83943  0.77403  Biso   1.000  C
  H233     1.0000 0.93307  0.86613  0.80743  Biso   1.000  H
  O90      1.0000 0.56770  0.13541  0.16637  Biso   1.000  O
  C376     1.0000 0.51022  0.02045  0.02467  Biso   1.000  C
  C377     1.0000 0.54856  0.09713  0.12157  Biso   1.000  C
  C378     1.0000 0.58638  0.17277  0.10737  Biso   1.000  C
  H234     1.0000 0.59973  0.19947  0.14077  Biso   1.000  H
