data_image0
_cell_length_a       35.8186
_cell_length_b       35.8186
_cell_length_c       15.3205
_cell_angle_alpha    90
_cell_angle_beta     90
_cell_angle_gamma    120

_symmetry_space_group_name_H-M    "P 1"
_symmetry_int_tables_number       1

loop_
  _symmetry_equiv_pos_as_xyz
  'x, y, z'

loop_
  _atom_site_label
  _atom_site_occupancy
  _atom_site_fract_x
  _atom_site_fract_y
  _atom_site_fract_z
  _atom_site_thermal_displace_type
  _atom_site_B_iso_or_equiv
  _atom_site_type_symbol
  O1       1.0000 0.48067  0.44236  0.57767  Biso   1.000  O
  O2       1.0000 0.48660  0.43616  0.43336  Biso   1.000  O
  C1       1.0000 0.47861  0.42178  0.50850  Biso   1.000  C
  C2       1.0000 0.46411  0.37475  0.52260  Biso   1.000  C
  C3       1.0000 0.45685  0.34774  0.45660  Biso   1.000  C
  H1       1.0000 0.46200  0.35860  0.39860  Biso   1.000  H
  C4       1.0000 0.44196  0.30407  0.47020  Biso   1.000  C
  H2       1.0000 0.43830  0.28600  0.42170  Biso   1.000  H
  C5       1.0000 0.43261  0.28696  0.55130  Biso   1.000  C
  C6       1.0000 0.44214  0.31503  0.62090  Biso   1.000  C
  H3       1.0000 0.43810  0.30440  0.67890  Biso   1.000  H
  C7       1.0000 0.45748  0.35845  0.60650  Biso   1.000  C
  H4       1.0000 0.46350  0.37720  0.65480  Biso   1.000  H
  C8       1.0000 0.41235  0.23985  0.56960  Biso   1.000  C
  C9       1.0000 0.37417  0.22024  0.61750  Biso   1.000  C
  H5       1.0000 0.36160  0.23700  0.63430  Biso   1.000  H
  H6       1.0000 0.50550  0.23040  0.59500  Biso   1.000  H
  O3       1.0000 0.14734  0.77569  0.91100  Biso   1.000  O
  O4       1.0000 0.15327  0.76949  0.76669  Biso   1.000  O
  C10      1.0000 0.14528  0.75511  0.84183  Biso   1.000  C
  C11      1.0000 0.13078  0.70808  0.85593  Biso   1.000  C
  C12      1.0000 0.12352  0.68107  0.78993  Biso   1.000  C
  H7       1.0000 0.12867  0.69193  0.73193  Biso   1.000  H
  C13      1.0000 0.10863  0.63740  0.80353  Biso   1.000  C
  H8       1.0000 0.10497  0.61933  0.75503  Biso   1.000  H
  C14      1.0000 0.09928  0.62029  0.88463  Biso   1.000  C
  C15      1.0000 0.10881  0.64836  0.95423  Biso   1.000  C
  H9       1.0000 0.10477  0.63773  0.01223  Biso   1.000  H
  C16      1.0000 0.12415  0.69178  0.93983  Biso   1.000  C
  H10      1.0000 0.13017  0.71053  0.98813  Biso   1.000  H
  C17      1.0000 0.07902  0.57318  0.90293  Biso   1.000  C
  C18      1.0000 0.04084  0.55357  0.95083  Biso   1.000  C
  H11      1.0000 0.02827  0.57033  0.96763  Biso   1.000  H
  H12      1.0000 0.17217  0.56373  0.92833  Biso   1.000  H
  O5       1.0000 0.81400  0.10903  0.24434  Biso   1.000  O
  O6       1.0000 0.81993  0.10283  0.10003  Biso   1.000  O
  C19      1.0000 0.81194  0.08845  0.17517  Biso   1.000  C
  C20      1.0000 0.79744  0.04142  0.18927  Biso   1.000  C
  C21      1.0000 0.79018  0.01441  0.12327  Biso   1.000  C
  H13      1.0000 0.79533  0.02527  0.06527  Biso   1.000  H
  C22      1.0000 0.77529  0.97074  0.13687  Biso   1.000  C
  H14      1.0000 0.77163  0.95267  0.08837  Biso   1.000  H
  C23      1.0000 0.76594  0.95363  0.21797  Biso   1.000  C
  C24      1.0000 0.77547  0.98170  0.28757  Biso   1.000  C
  H15      1.0000 0.77143  0.97107  0.34557  Biso   1.000  H
  C25      1.0000 0.79081  0.02512  0.27317  Biso   1.000  C
  H16      1.0000 0.79683  0.04387  0.32147  Biso   1.000  H
  C26      1.0000 0.74568  0.90652  0.23627  Biso   1.000  C
  C27      1.0000 0.70750  0.88691  0.28417  Biso   1.000  C
  H17      1.0000 0.69493  0.90367  0.30097  Biso   1.000  H
  H18      1.0000 0.83883  0.89707  0.26167  Biso   1.000  H
  O7       1.0000 0.55764  0.03831  0.57767  Biso   1.000  O
  O8       1.0000 0.56384  0.05044  0.43336  Biso   1.000  O
  C28      1.0000 0.57822  0.05683  0.50850  Biso   1.000  C
  C29      1.0000 0.62525  0.08936  0.52260  Biso   1.000  C
  C30      1.0000 0.65226  0.10911  0.45660  Biso   1.000  C
  H19      1.0000 0.64140  0.10340  0.39860  Biso   1.000  H
  C31      1.0000 0.69593  0.13789  0.47020  Biso   1.000  C
  H20      1.0000 0.71400  0.15230  0.42170  Biso   1.000  H
  C32      1.0000 0.71304  0.14565  0.55130  Biso   1.000  C
  C33      1.0000 0.68497  0.12711  0.62090  Biso   1.000  C
  H21      1.0000 0.69560  0.13370  0.67890  Biso   1.000  H
  C34      1.0000 0.64155  0.09903  0.60650  Biso   1.000  C
  H22      1.0000 0.62280  0.08630  0.65480  Biso   1.000  H
  C35      1.0000 0.76015  0.17250  0.56960  Biso   1.000  C
  C36      1.0000 0.77976  0.15393  0.61750  Biso   1.000  C
  H23      1.0000 0.76300  0.12460  0.63430  Biso   1.000  H
  H24      1.0000 0.76960  0.27510  0.59500  Biso   1.000  H
  O9       1.0000 0.22431  0.37164  0.91100  Biso   1.000  O
  O10      1.0000 0.23051  0.38377  0.76669  Biso   1.000  O
  C37      1.0000 0.24489  0.39016  0.84183  Biso   1.000  C
  C38      1.0000 0.29192  0.42269  0.85593  Biso   1.000  C
  C39      1.0000 0.31893  0.44244  0.78993  Biso   1.000  C
  H25      1.0000 0.30807  0.43673  0.73193  Biso   1.000  H
  C40      1.0000 0.36260  0.47122  0.80353  Biso   1.000  C
  H26      1.0000 0.38067  0.48563  0.75503  Biso   1.000  H
  C41      1.0000 0.37971  0.47898  0.88463  Biso   1.000  C
  C42      1.0000 0.35164  0.46044  0.95423  Biso   1.000  C
  H27      1.0000 0.36227  0.46703  0.01223  Biso   1.000  H
  C43      1.0000 0.30822  0.43236  0.93983  Biso   1.000  C
  H28      1.0000 0.28947  0.41963  0.98813  Biso   1.000  H
  C44      1.0000 0.42682  0.50583  0.90293  Biso   1.000  C
  C45      1.0000 0.44643  0.48726  0.95083  Biso   1.000  C
  H29      1.0000 0.42967  0.45793  0.96763  Biso   1.000  H
  H30      1.0000 0.43627  0.60843  0.92833  Biso   1.000  H
  O11      1.0000 0.89097  0.70498  0.24434  Biso   1.000  O
  O12      1.0000 0.89717  0.71711  0.10003  Biso   1.000  O
  C46      1.0000 0.91155  0.72350  0.17517  Biso   1.000  C
  C47      1.0000 0.95858  0.75603  0.18927  Biso   1.000  C
  C48      1.0000 0.98559  0.77578  0.12327  Biso   1.000  C
  H31      1.0000 0.97473  0.77007  0.06527  Biso   1.000  H
  C49      1.0000 0.02926  0.80456  0.13687  Biso   1.000  C
  H32      1.0000 0.04733  0.81897  0.08837  Biso   1.000  H
  C50      1.0000 0.04637  0.81232  0.21797  Biso   1.000  C
  C51      1.0000 0.01830  0.79378  0.28757  Biso   1.000  C
  H33      1.0000 0.02893  0.80037  0.34557  Biso   1.000  H
  C52      1.0000 0.97488  0.76570  0.27317  Biso   1.000  C
  H34      1.0000 0.95613  0.75297  0.32147  Biso   1.000  H
  C53      1.0000 0.09348  0.83917  0.23627  Biso   1.000  C
  C54      1.0000 0.11309  0.82060  0.28417  Biso   1.000  C
  H35      1.0000 0.09633  0.79127  0.30097  Biso   1.000  H
  H36      1.0000 0.10293  0.94177  0.26167  Biso   1.000  H
  O13      1.0000 0.96169  0.51933  0.57767  Biso   1.000  O
  O14      1.0000 0.94956  0.51340  0.43336  Biso   1.000  O
  C55      1.0000 0.94317  0.52139  0.50850  Biso   1.000  C
  C56      1.0000 0.91064  0.53589  0.52260  Biso   1.000  C
  C57      1.0000 0.89089  0.54315  0.45660  Biso   1.000  C
  H37      1.0000 0.89660  0.53800  0.39860  Biso   1.000  H
  C58      1.0000 0.86211  0.55804  0.47020  Biso   1.000  C
  H38      1.0000 0.84770  0.56170  0.42170  Biso   1.000  H
  C59      1.0000 0.85435  0.56739  0.55130  Biso   1.000  C
  C60      1.0000 0.87289  0.55786  0.62090  Biso   1.000  C
  H39      1.0000 0.86630  0.56190  0.67890  Biso   1.000  H
  C61      1.0000 0.90097  0.54252  0.60650  Biso   1.000  C
  H40      1.0000 0.91370  0.53650  0.65480  Biso   1.000  H
  C62      1.0000 0.82750  0.58765  0.56960  Biso   1.000  C
  C63      1.0000 0.84607  0.62583  0.61750  Biso   1.000  C
  H41      1.0000 0.87540  0.63840  0.63430  Biso   1.000  H
  H42      1.0000 0.72490  0.49450  0.59500  Biso   1.000  H
  O15      1.0000 0.62836  0.85266  0.91100  Biso   1.000  O
  O16      1.0000 0.61623  0.84673  0.76669  Biso   1.000  O
  C64      1.0000 0.60984  0.85472  0.84183  Biso   1.000  C
  C65      1.0000 0.57731  0.86922  0.85593  Biso   1.000  C
  C66      1.0000 0.55756  0.87648  0.78993  Biso   1.000  C
  H43      1.0000 0.56327  0.87133  0.73193  Biso   1.000  H
  C67      1.0000 0.52878  0.89137  0.80353  Biso   1.000  C
  H44      1.0000 0.51437  0.89503  0.75503  Biso   1.000  H
  C68      1.0000 0.52102  0.90072  0.88463  Biso   1.000  C
  C69      1.0000 0.53956  0.89119  0.95423  Biso   1.000  C
  H45      1.0000 0.53297  0.89523  0.01223  Biso   1.000  H
  C70      1.0000 0.56764  0.87585  0.93983  Biso   1.000  C
  H46      1.0000 0.58037  0.86983  0.98813  Biso   1.000  H
  C71      1.0000 0.49417  0.92098  0.90293  Biso   1.000  C
  C72      1.0000 0.51274  0.95916  0.95083  Biso   1.000  C
  H47      1.0000 0.54207  0.97173  0.96763  Biso   1.000  H
  H48      1.0000 0.39157  0.82783  0.92833  Biso   1.000  H
  O17      1.0000 0.29502  0.18600  0.24434  Biso   1.000  O
  O18      1.0000 0.28289  0.18007  0.10003  Biso   1.000  O
  C73      1.0000 0.27650  0.18806  0.17517  Biso   1.000  C
  C74      1.0000 0.24397  0.20256  0.18927  Biso   1.000  C
  C75      1.0000 0.22422  0.20982  0.12327  Biso   1.000  C
  H49      1.0000 0.22993  0.20467  0.06527  Biso   1.000  H
  C76      1.0000 0.19544  0.22471  0.13687  Biso   1.000  C
  H50      1.0000 0.18103  0.22837  0.08837  Biso   1.000  H
  C77      1.0000 0.18768  0.23406  0.21797  Biso   1.000  C
  C78      1.0000 0.20622  0.22453  0.28757  Biso   1.000  C
  H51      1.0000 0.19963  0.22857  0.34557  Biso   1.000  H
  C79      1.0000 0.23430  0.20919  0.27317  Biso   1.000  C
  H52      1.0000 0.24703  0.20317  0.32147  Biso   1.000  H
  C80      1.0000 0.16083  0.25432  0.23627  Biso   1.000  C
  C81      1.0000 0.17940  0.29250  0.28417  Biso   1.000  C
  H53      1.0000 0.20873  0.30507  0.30097  Biso   1.000  H
  H54      1.0000 0.05823  0.16117  0.26167  Biso   1.000  H
  O19      1.0000 0.44236  0.48067  0.42233  Biso   1.000  O
  O20      1.0000 0.43616  0.48660  0.56664  Biso   1.000  O
  C82      1.0000 0.42178  0.47861  0.49150  Biso   1.000  C
  C83      1.0000 0.37475  0.46411  0.47740  Biso   1.000  C
  C84      1.0000 0.34774  0.45685  0.54340  Biso   1.000  C
  H55      1.0000 0.35860  0.46200  0.60140  Biso   1.000  H
  C85      1.0000 0.30407  0.44196  0.52980  Biso   1.000  C
  H56      1.0000 0.28600  0.43830  0.57830  Biso   1.000  H
  C86      1.0000 0.28696  0.43261  0.44870  Biso   1.000  C
  C87      1.0000 0.31503  0.44214  0.37910  Biso   1.000  C
  H57      1.0000 0.30440  0.43810  0.32110  Biso   1.000  H
  C88      1.0000 0.35845  0.45748  0.39350  Biso   1.000  C
  H58      1.0000 0.37720  0.46350  0.34520  Biso   1.000  H
  C89      1.0000 0.23985  0.41235  0.43040  Biso   1.000  C
  C90      1.0000 0.22024  0.37417  0.38250  Biso   1.000  C
  H59      1.0000 0.23700  0.36160  0.36570  Biso   1.000  H
  H60      1.0000 0.23040  0.50550  0.40500  Biso   1.000  H
  O21      1.0000 0.10903  0.81400  0.75566  Biso   1.000  O
  O22      1.0000 0.10283  0.81993  0.89997  Biso   1.000  O
  C91      1.0000 0.08845  0.81194  0.82483  Biso   1.000  C
  C92      1.0000 0.04142  0.79744  0.81073  Biso   1.000  C
  C93      1.0000 0.01441  0.79018  0.87673  Biso   1.000  C
  H61      1.0000 0.02527  0.79533  0.93473  Biso   1.000  H
  C94      1.0000 0.97074  0.77529  0.86313  Biso   1.000  C
  H62      1.0000 0.95267  0.77163  0.91163  Biso   1.000  H
  C95      1.0000 0.95363  0.76594  0.78203  Biso   1.000  C
  C96      1.0000 0.98170  0.77547  0.71243  Biso   1.000  C
  H63      1.0000 0.97107  0.77143  0.65443  Biso   1.000  H
  C97      1.0000 0.02512  0.79081  0.72683  Biso   1.000  C
  H64      1.0000 0.04387  0.79683  0.67853  Biso   1.000  H
  C98      1.0000 0.90652  0.74568  0.76373  Biso   1.000  C
  C99      1.0000 0.88691  0.70750  0.71583  Biso   1.000  C
  H65      1.0000 0.90367  0.69493  0.69903  Biso   1.000  H
  H66      1.0000 0.89707  0.83883  0.73833  Biso   1.000  H
  O23      1.0000 0.77569  0.14734  0.08900  Biso   1.000  O
  O24      1.0000 0.76949  0.15327  0.23331  Biso   1.000  O
  C100     1.0000 0.75511  0.14528  0.15817  Biso   1.000  C
  C101     1.0000 0.70808  0.13078  0.14407  Biso   1.000  C
  C102     1.0000 0.68107  0.12352  0.21007  Biso   1.000  C
  H67      1.0000 0.69193  0.12867  0.26807  Biso   1.000  H
  C103     1.0000 0.63740  0.10863  0.19647  Biso   1.000  C
  H68      1.0000 0.61933  0.10497  0.24497  Biso   1.000  H
  C104     1.0000 0.62029  0.09928  0.11537  Biso   1.000  C
  C105     1.0000 0.64836  0.10881  0.04577  Biso   1.000  C
  H69      1.0000 0.63773  0.10477  0.98777  Biso   1.000  H
  C106     1.0000 0.69178  0.12415  0.06017  Biso   1.000  C
  H70      1.0000 0.71053  0.13017  0.01187  Biso   1.000  H
  C107     1.0000 0.57318  0.07902  0.09707  Biso   1.000  C
  C108     1.0000 0.55357  0.04084  0.04917  Biso   1.000  C
  H71      1.0000 0.57033  0.02827  0.03237  Biso   1.000  H
  H72      1.0000 0.56373  0.17217  0.07167  Biso   1.000  H
  O25      1.0000 0.03831  0.55764  0.42233  Biso   1.000  O
  O26      1.0000 0.05044  0.56384  0.56664  Biso   1.000  O
  C109     1.0000 0.05683  0.57822  0.49150  Biso   1.000  C
  C110     1.0000 0.08936  0.62525  0.47740  Biso   1.000  C
  C111     1.0000 0.10911  0.65226  0.54340  Biso   1.000  C
  H73      1.0000 0.10340  0.64140  0.60140  Biso   1.000  H
  C112     1.0000 0.13789  0.69593  0.52980  Biso   1.000  C
  H74      1.0000 0.15230  0.71400  0.57830  Biso   1.000  H
  C113     1.0000 0.14565  0.71304  0.44870  Biso   1.000  C
  C114     1.0000 0.12711  0.68497  0.37910  Biso   1.000  C
  H75      1.0000 0.13370  0.69560  0.32110  Biso   1.000  H
  C115     1.0000 0.09903  0.64155  0.39350  Biso   1.000  C
  H76      1.0000 0.08630  0.62280  0.34520  Biso   1.000  H
  C116     1.0000 0.17250  0.76015  0.43040  Biso   1.000  C
  C117     1.0000 0.15393  0.77976  0.38250  Biso   1.000  C
  H77      1.0000 0.12460  0.76300  0.36570  Biso   1.000  H
  H78      1.0000 0.27510  0.76960  0.40500  Biso   1.000  H
  O27      1.0000 0.70498  0.89097  0.75566  Biso   1.000  O
  O28      1.0000 0.71711  0.89717  0.89997  Biso   1.000  O
  C118     1.0000 0.72350  0.91155  0.82483  Biso   1.000  C
  C119     1.0000 0.75603  0.95858  0.81073  Biso   1.000  C
  C120     1.0000 0.77578  0.98559  0.87673  Biso   1.000  C
  H79      1.0000 0.77007  0.97473  0.93473  Biso   1.000  H
  C121     1.0000 0.80456  0.02926  0.86313  Biso   1.000  C
  H80      1.0000 0.81897  0.04733  0.91163  Biso   1.000  H
  C122     1.0000 0.81232  0.04637  0.78203  Biso   1.000  C
  C123     1.0000 0.79378  0.01830  0.71243  Biso   1.000  C
  H81      1.0000 0.80037  0.02893  0.65443  Biso   1.000  H
  C124     1.0000 0.76570  0.97488  0.72683  Biso   1.000  C
  H82      1.0000 0.75297  0.95613  0.67853  Biso   1.000  H
  C125     1.0000 0.83917  0.09348  0.76373  Biso   1.000  C
  C126     1.0000 0.82060  0.11309  0.71583  Biso   1.000  C
  H83      1.0000 0.79127  0.09633  0.69903  Biso   1.000  H
  H84      1.0000 0.94177  0.10293  0.73833  Biso   1.000  H
  O29      1.0000 0.37164  0.22431  0.08900  Biso   1.000  O
  O30      1.0000 0.38377  0.23051  0.23331  Biso   1.000  O
  C127     1.0000 0.39016  0.24489  0.15817  Biso   1.000  C
  C128     1.0000 0.42269  0.29192  0.14407  Biso   1.000  C
  C129     1.0000 0.44244  0.31893  0.21007  Biso   1.000  C
  H85      1.0000 0.43673  0.30807  0.26807  Biso   1.000  H
  C130     1.0000 0.47122  0.36260  0.19647  Biso   1.000  C
  H86      1.0000 0.48563  0.38067  0.24497  Biso   1.000  H
  C131     1.0000 0.47898  0.37971  0.11537  Biso   1.000  C
  C132     1.0000 0.46044  0.35164  0.04577  Biso   1.000  C
  H87      1.0000 0.46703  0.36227  0.98777  Biso   1.000  H
  C133     1.0000 0.43236  0.30822  0.06017  Biso   1.000  C
  H88      1.0000 0.41963  0.28947  0.01187  Biso   1.000  H
  C134     1.0000 0.50583  0.42682  0.09707  Biso   1.000  C
  C135     1.0000 0.48726  0.44643  0.04917  Biso   1.000  C
  H89      1.0000 0.45793  0.42967  0.03237  Biso   1.000  H
  H90      1.0000 0.60843  0.43627  0.07167  Biso   1.000  H
  O31      1.0000 0.51933  0.96169  0.42233  Biso   1.000  O
  O32      1.0000 0.51340  0.94956  0.56664  Biso   1.000  O
  C136     1.0000 0.52139  0.94317  0.49150  Biso   1.000  C
  C137     1.0000 0.53589  0.91064  0.47740  Biso   1.000  C
  C138     1.0000 0.54315  0.89089  0.54340  Biso   1.000  C
  H91      1.0000 0.53800  0.89660  0.60140  Biso   1.000  H
  C139     1.0000 0.55804  0.86211  0.52980  Biso   1.000  C
  H92      1.0000 0.56170  0.84770  0.57830  Biso   1.000  H
  C140     1.0000 0.56739  0.85435  0.44870  Biso   1.000  C
  C141     1.0000 0.55786  0.87289  0.37910  Biso   1.000  C
  H93      1.0000 0.56190  0.86630  0.32110  Biso   1.000  H
  C142     1.0000 0.54252  0.90097  0.39350  Biso   1.000  C
  H94      1.0000 0.53650  0.91370  0.34520  Biso   1.000  H
  C143     1.0000 0.58765  0.82750  0.43040  Biso   1.000  C
  C144     1.0000 0.62583  0.84607  0.38250  Biso   1.000  C
  H95      1.0000 0.63840  0.87540  0.36570  Biso   1.000  H
  H96      1.0000 0.49450  0.72490  0.40500  Biso   1.000  H
  O33      1.0000 0.18600  0.29502  0.75566  Biso   1.000  O
  O34      1.0000 0.18007  0.28289  0.89997  Biso   1.000  O
  C145     1.0000 0.18806  0.27650  0.82483  Biso   1.000  C
  C146     1.0000 0.20256  0.24397  0.81073  Biso   1.000  C
  C147     1.0000 0.20982  0.22422  0.87673  Biso   1.000  C
  H97      1.0000 0.20467  0.22993  0.93473  Biso   1.000  H
  C148     1.0000 0.22471  0.19544  0.86313  Biso   1.000  C
  H98      1.0000 0.22837  0.18103  0.91163  Biso   1.000  H
  C149     1.0000 0.23406  0.18768  0.78203  Biso   1.000  C
  C150     1.0000 0.22453  0.20622  0.71243  Biso   1.000  C
  H99      1.0000 0.22857  0.19963  0.65443  Biso   1.000  H
  C151     1.0000 0.20919  0.23430  0.72683  Biso   1.000  C
  H100     1.0000 0.20317  0.24703  0.67853  Biso   1.000  H
  C152     1.0000 0.25432  0.16083  0.76373  Biso   1.000  C
  C153     1.0000 0.29250  0.17940  0.71583  Biso   1.000  C
  H101     1.0000 0.30507  0.20873  0.69903  Biso   1.000  H
  H102     1.0000 0.16117  0.05823  0.73833  Biso   1.000  H
  O35      1.0000 0.85266  0.62836  0.08900  Biso   1.000  O
  O36      1.0000 0.84673  0.61623  0.23331  Biso   1.000  O
  C154     1.0000 0.85472  0.60984  0.15817  Biso   1.000  C
  C155     1.0000 0.86922  0.57731  0.14407  Biso   1.000  C
  C156     1.0000 0.87648  0.55756  0.21007  Biso   1.000  C
  H103     1.0000 0.87133  0.56327  0.26807  Biso   1.000  H
  C157     1.0000 0.89137  0.52878  0.19647  Biso   1.000  C
  H104     1.0000 0.89503  0.51437  0.24497  Biso   1.000  H
  C158     1.0000 0.90072  0.52102  0.11537  Biso   1.000  C
  C159     1.0000 0.89119  0.53956  0.04577  Biso   1.000  C
  H105     1.0000 0.89523  0.53297  0.98777  Biso   1.000  H
  C160     1.0000 0.87585  0.56764  0.06017  Biso   1.000  C
  H106     1.0000 0.86983  0.58037  0.01187  Biso   1.000  H
  C161     1.0000 0.92098  0.49417  0.09707  Biso   1.000  C
  C162     1.0000 0.95916  0.51274  0.04917  Biso   1.000  C
  H107     1.0000 0.97173  0.54207  0.03237  Biso   1.000  H
  H108     1.0000 0.82783  0.39157  0.07167  Biso   1.000  H
  O37      1.0000 0.51933  0.55764  0.42233  Biso   1.000  O
  O38      1.0000 0.51340  0.56384  0.56664  Biso   1.000  O
  C163     1.0000 0.52139  0.57822  0.49150  Biso   1.000  C
  C164     1.0000 0.53589  0.62525  0.47740  Biso   1.000  C
  C165     1.0000 0.54315  0.65226  0.54340  Biso   1.000  C
  H109     1.0000 0.53800  0.64140  0.60140  Biso   1.000  H
  C166     1.0000 0.55804  0.69593  0.52980  Biso   1.000  C
  H110     1.0000 0.56170  0.71400  0.57830  Biso   1.000  H
  C167     1.0000 0.56739  0.71304  0.44870  Biso   1.000  C
  C168     1.0000 0.55786  0.68497  0.37910  Biso   1.000  C
  H111     1.0000 0.56190  0.69560  0.32110  Biso   1.000  H
  C169     1.0000 0.54252  0.64155  0.39350  Biso   1.000  C
  H112     1.0000 0.53650  0.62280  0.34520  Biso   1.000  H
  C170     1.0000 0.58765  0.76015  0.43040  Biso   1.000  C
  C171     1.0000 0.62583  0.77976  0.38250  Biso   1.000  C
  H113     1.0000 0.63840  0.76300  0.36570  Biso   1.000  H
  H114     1.0000 0.49450  0.76960  0.40500  Biso   1.000  H
  O39      1.0000 0.18600  0.89097  0.75566  Biso   1.000  O
  O40      1.0000 0.18007  0.89717  0.89997  Biso   1.000  O
  C172     1.0000 0.18806  0.91155  0.82483  Biso   1.000  C
  C173     1.0000 0.20256  0.95858  0.81073  Biso   1.000  C
  C174     1.0000 0.20982  0.98559  0.87673  Biso   1.000  C
  H115     1.0000 0.20467  0.97473  0.93473  Biso   1.000  H
  C175     1.0000 0.22471  0.02926  0.86313  Biso   1.000  C
  H116     1.0000 0.22837  0.04733  0.91163  Biso   1.000  H
  C176     1.0000 0.23406  0.04637  0.78203  Biso   1.000  C
  C177     1.0000 0.22453  0.01830  0.71243  Biso   1.000  C
  H117     1.0000 0.22857  0.02893  0.65443  Biso   1.000  H
  C178     1.0000 0.20919  0.97488  0.72683  Biso   1.000  C
  H118     1.0000 0.20317  0.95613  0.67853  Biso   1.000  H
  C179     1.0000 0.25432  0.09348  0.76373  Biso   1.000  C
  C180     1.0000 0.29250  0.11309  0.71583  Biso   1.000  C
  H119     1.0000 0.30507  0.09633  0.69903  Biso   1.000  H
  H120     1.0000 0.16117  0.10293  0.73833  Biso   1.000  H
  O41      1.0000 0.85266  0.22431  0.08900  Biso   1.000  O
  O42      1.0000 0.84673  0.23051  0.23331  Biso   1.000  O
  C181     1.0000 0.85472  0.24489  0.15817  Biso   1.000  C
  C182     1.0000 0.86922  0.29192  0.14407  Biso   1.000  C
  C183     1.0000 0.87648  0.31893  0.21007  Biso   1.000  C
  H121     1.0000 0.87133  0.30807  0.26807  Biso   1.000  H
  C184     1.0000 0.89137  0.36260  0.19647  Biso   1.000  C
  H122     1.0000 0.89503  0.38067  0.24497  Biso   1.000  H
  C185     1.0000 0.90072  0.37971  0.11537  Biso   1.000  C
  C186     1.0000 0.89119  0.35164  0.04577  Biso   1.000  C
  H123     1.0000 0.89523  0.36227  0.98777  Biso   1.000  H
  C187     1.0000 0.87585  0.30822  0.06017  Biso   1.000  C
  H124     1.0000 0.86983  0.28947  0.01187  Biso   1.000  H
  C188     1.0000 0.92098  0.42682  0.09707  Biso   1.000  C
  C189     1.0000 0.95916  0.44643  0.04917  Biso   1.000  C
  H125     1.0000 0.97173  0.42967  0.03237  Biso   1.000  H
  H126     1.0000 0.82783  0.43627  0.07167  Biso   1.000  H
  O43      1.0000 0.44236  0.96169  0.42233  Biso   1.000  O
  O44      1.0000 0.43616  0.94956  0.56664  Biso   1.000  O
  C190     1.0000 0.42178  0.94317  0.49150  Biso   1.000  C
  C191     1.0000 0.37475  0.91064  0.47740  Biso   1.000  C
  C192     1.0000 0.34774  0.89089  0.54340  Biso   1.000  C
  H127     1.0000 0.35860  0.89660  0.60140  Biso   1.000  H
  C193     1.0000 0.30407  0.86211  0.52980  Biso   1.000  C
  H128     1.0000 0.28600  0.84770  0.57830  Biso   1.000  H
  C194     1.0000 0.28696  0.85435  0.44870  Biso   1.000  C
  C195     1.0000 0.31503  0.87289  0.37910  Biso   1.000  C
  H129     1.0000 0.30440  0.86630  0.32110  Biso   1.000  H
  C196     1.0000 0.35845  0.90097  0.39350  Biso   1.000  C
  H130     1.0000 0.37720  0.91370  0.34520  Biso   1.000  H
  C197     1.0000 0.23985  0.82750  0.43040  Biso   1.000  C
  C198     1.0000 0.22024  0.84607  0.38250  Biso   1.000  C
  H131     1.0000 0.23700  0.87540  0.36570  Biso   1.000  H
  H132     1.0000 0.23040  0.72490  0.40500  Biso   1.000  H
  O45      1.0000 0.10903  0.29502  0.75566  Biso   1.000  O
  O46      1.0000 0.10283  0.28289  0.89997  Biso   1.000  O
  C199     1.0000 0.08845  0.27650  0.82483  Biso   1.000  C
  C200     1.0000 0.04142  0.24397  0.81073  Biso   1.000  C
  C201     1.0000 0.01441  0.22422  0.87673  Biso   1.000  C
  H133     1.0000 0.02527  0.22993  0.93473  Biso   1.000  H
  C202     1.0000 0.97074  0.19544  0.86313  Biso   1.000  C
  H134     1.0000 0.95267  0.18103  0.91163  Biso   1.000  H
  C203     1.0000 0.95363  0.18768  0.78203  Biso   1.000  C
  C204     1.0000 0.98170  0.20622  0.71243  Biso   1.000  C
  H135     1.0000 0.97107  0.19963  0.65443  Biso   1.000  H
  C205     1.0000 0.02512  0.23430  0.72683  Biso   1.000  C
  H136     1.0000 0.04387  0.24703  0.67853  Biso   1.000  H
  C206     1.0000 0.90652  0.16083  0.76373  Biso   1.000  C
  C207     1.0000 0.88691  0.17940  0.71583  Biso   1.000  C
  H137     1.0000 0.90367  0.20873  0.69903  Biso   1.000  H
  H138     1.0000 0.89707  0.05823  0.73833  Biso   1.000  H
  O47      1.0000 0.77569  0.62836  0.08900  Biso   1.000  O
  O48      1.0000 0.76949  0.61623  0.23331  Biso   1.000  O
  C208     1.0000 0.75511  0.60984  0.15817  Biso   1.000  C
  C209     1.0000 0.70808  0.57731  0.14407  Biso   1.000  C
  C210     1.0000 0.68107  0.55756  0.21007  Biso   1.000  C
  H139     1.0000 0.69193  0.56327  0.26807  Biso   1.000  H
  C211     1.0000 0.63740  0.52878  0.19647  Biso   1.000  C
  H140     1.0000 0.61933  0.51437  0.24497  Biso   1.000  H
  C212     1.0000 0.62029  0.52102  0.11537  Biso   1.000  C
  C213     1.0000 0.64836  0.53956  0.04577  Biso   1.000  C
  H141     1.0000 0.63773  0.53297  0.98777  Biso   1.000  H
  C214     1.0000 0.69178  0.56764  0.06017  Biso   1.000  C
  H142     1.0000 0.71053  0.58037  0.01187  Biso   1.000  H
  C215     1.0000 0.57318  0.49417  0.09707  Biso   1.000  C
  C216     1.0000 0.55357  0.51274  0.04917  Biso   1.000  C
  H143     1.0000 0.57033  0.54207  0.03237  Biso   1.000  H
  H144     1.0000 0.56373  0.39157  0.07167  Biso   1.000  H
  O49      1.0000 0.03831  0.48067  0.42233  Biso   1.000  O
  O50      1.0000 0.05044  0.48660  0.56664  Biso   1.000  O
  C217     1.0000 0.05683  0.47861  0.49150  Biso   1.000  C
  C218     1.0000 0.08936  0.46411  0.47740  Biso   1.000  C
  C219     1.0000 0.10911  0.45685  0.54340  Biso   1.000  C
  H145     1.0000 0.10340  0.46200  0.60140  Biso   1.000  H
  C220     1.0000 0.13789  0.44196  0.52980  Biso   1.000  C
  H146     1.0000 0.15230  0.43830  0.57830  Biso   1.000  H
  C221     1.0000 0.14565  0.43261  0.44870  Biso   1.000  C
  C222     1.0000 0.12711  0.44214  0.37910  Biso   1.000  C
  H147     1.0000 0.13370  0.43810  0.32110  Biso   1.000  H
  C223     1.0000 0.09903  0.45748  0.39350  Biso   1.000  C
  H148     1.0000 0.08630  0.46350  0.34520  Biso   1.000  H
  C224     1.0000 0.17250  0.41235  0.43040  Biso   1.000  C
  C225     1.0000 0.15393  0.37417  0.38250  Biso   1.000  C
  H149     1.0000 0.12460  0.36160  0.36570  Biso   1.000  H
  H150     1.0000 0.27510  0.50550  0.40500  Biso   1.000  H
  O51      1.0000 0.70498  0.81400  0.75566  Biso   1.000  O
  O52      1.0000 0.71711  0.81993  0.89997  Biso   1.000  O
  C226     1.0000 0.72350  0.81194  0.82483  Biso   1.000  C
  C227     1.0000 0.75603  0.79744  0.81073  Biso   1.000  C
  C228     1.0000 0.77578  0.79018  0.87673  Biso   1.000  C
  H151     1.0000 0.77007  0.79533  0.93473  Biso   1.000  H
  C229     1.0000 0.80456  0.77529  0.86313  Biso   1.000  C
  H152     1.0000 0.81897  0.77163  0.91163  Biso   1.000  H
  C230     1.0000 0.81232  0.76594  0.78203  Biso   1.000  C
  C231     1.0000 0.79378  0.77547  0.71243  Biso   1.000  C
  H153     1.0000 0.80037  0.77143  0.65443  Biso   1.000  H
  C232     1.0000 0.76570  0.79081  0.72683  Biso   1.000  C
  H154     1.0000 0.75297  0.79683  0.67853  Biso   1.000  H
  C233     1.0000 0.83917  0.74568  0.76373  Biso   1.000  C
  C234     1.0000 0.82060  0.70750  0.71583  Biso   1.000  C
  H155     1.0000 0.79127  0.69493  0.69903  Biso   1.000  H
  H156     1.0000 0.94177  0.83883  0.73833  Biso   1.000  H
  O53      1.0000 0.37164  0.14734  0.08900  Biso   1.000  O
  O54      1.0000 0.38377  0.15327  0.23331  Biso   1.000  O
  C235     1.0000 0.39016  0.14528  0.15817  Biso   1.000  C
  C236     1.0000 0.42269  0.13078  0.14407  Biso   1.000  C
  C237     1.0000 0.44244  0.12352  0.21007  Biso   1.000  C
  H157     1.0000 0.43673  0.12867  0.26807  Biso   1.000  H
  C238     1.0000 0.47122  0.10863  0.19647  Biso   1.000  C
  H158     1.0000 0.48563  0.10497  0.24497  Biso   1.000  H
  C239     1.0000 0.47898  0.09928  0.11537  Biso   1.000  C
  C240     1.0000 0.46044  0.10881  0.04577  Biso   1.000  C
  H159     1.0000 0.46703  0.10477  0.98777  Biso   1.000  H
  C241     1.0000 0.43236  0.12415  0.06017  Biso   1.000  C
  H160     1.0000 0.41963  0.13017  0.01187  Biso   1.000  H
  C242     1.0000 0.50583  0.07902  0.09707  Biso   1.000  C
  C243     1.0000 0.48726  0.04084  0.04917  Biso   1.000  C
  H161     1.0000 0.45793  0.02827  0.03237  Biso   1.000  H
  H162     1.0000 0.60843  0.17217  0.07167  Biso   1.000  H
  O55      1.0000 0.55764  0.51933  0.57767  Biso   1.000  O
  O56      1.0000 0.56384  0.51340  0.43336  Biso   1.000  O
  C244     1.0000 0.57822  0.52139  0.50850  Biso   1.000  C
  C245     1.0000 0.62525  0.53589  0.52260  Biso   1.000  C
  C246     1.0000 0.65226  0.54315  0.45660  Biso   1.000  C
  H163     1.0000 0.64140  0.53800  0.39860  Biso   1.000  H
  C247     1.0000 0.69593  0.55804  0.47020  Biso   1.000  C
  H164     1.0000 0.71400  0.56170  0.42170  Biso   1.000  H
  C248     1.0000 0.71304  0.56739  0.55130  Biso   1.000  C
  C249     1.0000 0.68497  0.55786  0.62090  Biso   1.000  C
  H165     1.0000 0.69560  0.56190  0.67890  Biso   1.000  H
  C250     1.0000 0.64155  0.54252  0.60650  Biso   1.000  C
  H166     1.0000 0.62280  0.53650  0.65480  Biso   1.000  H
  C251     1.0000 0.76015  0.58765  0.56960  Biso   1.000  C
  C252     1.0000 0.77976  0.62583  0.61750  Biso   1.000  C
  H167     1.0000 0.76300  0.63840  0.63430  Biso   1.000  H
  H168     1.0000 0.76960  0.49450  0.59500  Biso   1.000  H
  O57      1.0000 0.22431  0.85266  0.91100  Biso   1.000  O
  O58      1.0000 0.23051  0.84673  0.76669  Biso   1.000  O
  C253     1.0000 0.24489  0.85472  0.84183  Biso   1.000  C
  C254     1.0000 0.29192  0.86922  0.85593  Biso   1.000  C
  C255     1.0000 0.31893  0.87648  0.78993  Biso   1.000  C
  H169     1.0000 0.30807  0.87133  0.73193  Biso   1.000  H
  C256     1.0000 0.36260  0.89137  0.80353  Biso   1.000  C
  H170     1.0000 0.38067  0.89503  0.75503  Biso   1.000  H
  C257     1.0000 0.37971  0.90072  0.88463  Biso   1.000  C
  C258     1.0000 0.35164  0.89119  0.95423  Biso   1.000  C
  H171     1.0000 0.36227  0.89523  0.01223  Biso   1.000  H
  C259     1.0000 0.30822  0.87585  0.93983  Biso   1.000  C
  H172     1.0000 0.28947  0.86983  0.98813  Biso   1.000  H
  C260     1.0000 0.42682  0.92098  0.90293  Biso   1.000  C
  C261     1.0000 0.44643  0.95916  0.95083  Biso   1.000  C
  H173     1.0000 0.42967  0.97173  0.96763  Biso   1.000  H
  H174     1.0000 0.43627  0.82783  0.92833  Biso   1.000  H
  O59      1.0000 0.89097  0.18600  0.24434  Biso   1.000  O
  O60      1.0000 0.89717  0.18007  0.10003  Biso   1.000  O
  C262     1.0000 0.91155  0.18806  0.17517  Biso   1.000  C
  C263     1.0000 0.95858  0.20256  0.18927  Biso   1.000  C
  C264     1.0000 0.98559  0.20982  0.12327  Biso   1.000  C
  H175     1.0000 0.97473  0.20467  0.06527  Biso   1.000  H
  C265     1.0000 0.02926  0.22471  0.13687  Biso   1.000  C
  H176     1.0000 0.04733  0.22837  0.08837  Biso   1.000  H
  C266     1.0000 0.04637  0.23406  0.21797  Biso   1.000  C
  C267     1.0000 0.01830  0.22453  0.28757  Biso   1.000  C
  H177     1.0000 0.02893  0.22857  0.34557  Biso   1.000  H
  C268     1.0000 0.97488  0.20919  0.27317  Biso   1.000  C
  H178     1.0000 0.95613  0.20317  0.32147  Biso   1.000  H
  C269     1.0000 0.09348  0.25432  0.23627  Biso   1.000  C
  C270     1.0000 0.11309  0.29250  0.28417  Biso   1.000  C
  H179     1.0000 0.09633  0.30507  0.30097  Biso   1.000  H
  H180     1.0000 0.10293  0.16117  0.26167  Biso   1.000  H
  O61      1.0000 0.96169  0.44236  0.57767  Biso   1.000  O
  O62      1.0000 0.94956  0.43616  0.43336  Biso   1.000  O
  C271     1.0000 0.94317  0.42178  0.50850  Biso   1.000  C
  C272     1.0000 0.91064  0.37475  0.52260  Biso   1.000  C
  C273     1.0000 0.89089  0.34774  0.45660  Biso   1.000  C
  H181     1.0000 0.89660  0.35860  0.39860  Biso   1.000  H
  C274     1.0000 0.86211  0.30407  0.47020  Biso   1.000  C
  H182     1.0000 0.84770  0.28600  0.42170  Biso   1.000  H
  C275     1.0000 0.85435  0.28696  0.55130  Biso   1.000  C
  C276     1.0000 0.87289  0.31503  0.62090  Biso   1.000  C
  H183     1.0000 0.86630  0.30440  0.67890  Biso   1.000  H
  C277     1.0000 0.90097  0.35845  0.60650  Biso   1.000  C
  H184     1.0000 0.91370  0.37720  0.65480  Biso   1.000  H
  C278     1.0000 0.82750  0.23985  0.56960  Biso   1.000  C
  C279     1.0000 0.84607  0.22024  0.61750  Biso   1.000  C
  H185     1.0000 0.87540  0.23700  0.63430  Biso   1.000  H
  H186     1.0000 0.72490  0.23040  0.59500  Biso   1.000  H
  O63      1.0000 0.62836  0.77569  0.91100  Biso   1.000  O
  O64      1.0000 0.61623  0.76949  0.76669  Biso   1.000  O
  C280     1.0000 0.60984  0.75511  0.84183  Biso   1.000  C
  C281     1.0000 0.57731  0.70808  0.85593  Biso   1.000  C
  C282     1.0000 0.55756  0.68107  0.78993  Biso   1.000  C
  H187     1.0000 0.56327  0.69193  0.73193  Biso   1.000  H
  C283     1.0000 0.52878  0.63740  0.80353  Biso   1.000  C
  H188     1.0000 0.51437  0.61933  0.75503  Biso   1.000  H
  C284     1.0000 0.52102  0.62029  0.88463  Biso   1.000  C
  C285     1.0000 0.53956  0.64836  0.95423  Biso   1.000  C
  H189     1.0000 0.53297  0.63773  0.01223  Biso   1.000  H
  C286     1.0000 0.56764  0.69178  0.93983  Biso   1.000  C
  H190     1.0000 0.58037  0.71053  0.98813  Biso   1.000  H
  C287     1.0000 0.49417  0.57318  0.90293  Biso   1.000  C
  C288     1.0000 0.51274  0.55357  0.95083  Biso   1.000  C
  H191     1.0000 0.54207  0.57033  0.96763  Biso   1.000  H
  H192     1.0000 0.39157  0.56373  0.92833  Biso   1.000  H
  O65      1.0000 0.29502  0.10903  0.24434  Biso   1.000  O
  O66      1.0000 0.28289  0.10283  0.10003  Biso   1.000  O
  C289     1.0000 0.27650  0.08845  0.17517  Biso   1.000  C
  C290     1.0000 0.24397  0.04142  0.18927  Biso   1.000  C
  C291     1.0000 0.22422  0.01441  0.12327  Biso   1.000  C
  H193     1.0000 0.22993  0.02527  0.06527  Biso   1.000  H
  C292     1.0000 0.19544  0.97074  0.13687  Biso   1.000  C
  H194     1.0000 0.18103  0.95267  0.08837  Biso   1.000  H
  C293     1.0000 0.18768  0.95363  0.21797  Biso   1.000  C
  C294     1.0000 0.20622  0.98170  0.28757  Biso   1.000  C
  H195     1.0000 0.19963  0.97107  0.34557  Biso   1.000  H
  C295     1.0000 0.23430  0.02512  0.27317  Biso   1.000  C
  H196     1.0000 0.24703  0.04387  0.32147  Biso   1.000  H
  C296     1.0000 0.16083  0.90652  0.23627  Biso   1.000  C
  C297     1.0000 0.17940  0.88691  0.28417  Biso   1.000  C
  H197     1.0000 0.20873  0.90367  0.30097  Biso   1.000  H
  H198     1.0000 0.05823  0.89707  0.26167  Biso   1.000  H
  O67      1.0000 0.48067  0.03831  0.57767  Biso   1.000  O
  O68      1.0000 0.48660  0.05044  0.43336  Biso   1.000  O
  C298     1.0000 0.47861  0.05683  0.50850  Biso   1.000  C
  C299     1.0000 0.46411  0.08936  0.52260  Biso   1.000  C
  C300     1.0000 0.45685  0.10911  0.45660  Biso   1.000  C
  H199     1.0000 0.46200  0.10340  0.39860  Biso   1.000  H
  C301     1.0000 0.44196  0.13789  0.47020  Biso   1.000  C
  H200     1.0000 0.43830  0.15230  0.42170  Biso   1.000  H
  C302     1.0000 0.43261  0.14565  0.55130  Biso   1.000  C
  C303     1.0000 0.44214  0.12711  0.62090  Biso   1.000  C
  H201     1.0000 0.43810  0.13370  0.67890  Biso   1.000  H
  C304     1.0000 0.45748  0.09903  0.60650  Biso   1.000  C
  H202     1.0000 0.46350  0.08630  0.65480  Biso   1.000  H
  C305     1.0000 0.41235  0.17250  0.56960  Biso   1.000  C
  C306     1.0000 0.37417  0.15393  0.61750  Biso   1.000  C
  H203     1.0000 0.36160  0.12460  0.63430  Biso   1.000  H
  H204     1.0000 0.50550  0.27510  0.59500  Biso   1.000  H
  O69      1.0000 0.14734  0.37164  0.91100  Biso   1.000  O
  O70      1.0000 0.15327  0.38377  0.76669  Biso   1.000  O
  C307     1.0000 0.14528  0.39016  0.84183  Biso   1.000  C
  C308     1.0000 0.13078  0.42269  0.85593  Biso   1.000  C
  C309     1.0000 0.12352  0.44244  0.78993  Biso   1.000  C
  H205     1.0000 0.12867  0.43673  0.73193  Biso   1.000  H
  C310     1.0000 0.10863  0.47122  0.80353  Biso   1.000  C
  H206     1.0000 0.10497  0.48563  0.75503  Biso   1.000  H
  C311     1.0000 0.09928  0.47898  0.88463  Biso   1.000  C
  C312     1.0000 0.10881  0.46044  0.95423  Biso   1.000  C
  H207     1.0000 0.10477  0.46703  0.01223  Biso   1.000  H
  C313     1.0000 0.12415  0.43236  0.93983  Biso   1.000  C
  H208     1.0000 0.13017  0.41963  0.98813  Biso   1.000  H
  C314     1.0000 0.07902  0.50583  0.90293  Biso   1.000  C
  C315     1.0000 0.04084  0.48726  0.95083  Biso   1.000  C
  H209     1.0000 0.02827  0.45793  0.96763  Biso   1.000  H
  H210     1.0000 0.17217  0.60843  0.92833  Biso   1.000  H
  O71      1.0000 0.81400  0.70498  0.24434  Biso   1.000  O
  O72      1.0000 0.81993  0.71711  0.10003  Biso   1.000  O
  C316     1.0000 0.81194  0.72350  0.17517  Biso   1.000  C
  C317     1.0000 0.79744  0.75603  0.18927  Biso   1.000  C
  C318     1.0000 0.79018  0.77578  0.12327  Biso   1.000  C
  H211     1.0000 0.79533  0.77007  0.06527  Biso   1.000  H
  C319     1.0000 0.77529  0.80456  0.13687  Biso   1.000  C
  H212     1.0000 0.77163  0.81897  0.08837  Biso   1.000  H
  C320     1.0000 0.76594  0.81232  0.21797  Biso   1.000  C
  C321     1.0000 0.77547  0.79378  0.28757  Biso   1.000  C
  H213     1.0000 0.77143  0.80037  0.34557  Biso   1.000  H
  C322     1.0000 0.79081  0.76570  0.27317  Biso   1.000  C
  H214     1.0000 0.79683  0.75297  0.32147  Biso   1.000  H
  C323     1.0000 0.74568  0.83917  0.23627  Biso   1.000  C
  C324     1.0000 0.70750  0.82060  0.28417  Biso   1.000  C
  H215     1.0000 0.69493  0.79127  0.30097  Biso   1.000  H
  H216     1.0000 0.83883  0.94177  0.26167  Biso   1.000  H
  Cu1      1.0000 0.49661  0.50339  0.58522  Biso   1.000  Cu
  Cu2      1.0000 0.16328  0.83672  0.91855  Biso   1.000  Cu
  Cu3      1.0000 0.82994  0.17006  0.25189  Biso   1.000  Cu
  Cu4      1.0000 0.49661  0.99322  0.58522  Biso   1.000  Cu
  Cu5      1.0000 0.16328  0.32655  0.91855  Biso   1.000  Cu
  Cu6      1.0000 0.82994  0.65989  0.25189  Biso   1.000  Cu
  Cu7      1.0000 0.00678  0.50339  0.58522  Biso   1.000  Cu
  Cu8      1.0000 0.67345  0.83672  0.91855  Biso   1.000  Cu
  Cu9      1.0000 0.34011  0.17006  0.25189  Biso   1.000  Cu
  Cu10     1.0000 0.50339  0.49661  0.41478  Biso   1.000  Cu
  Cu11     1.0000 0.17006  0.82994  0.74811  Biso   1.000  Cu
  Cu12     1.0000 0.83672  0.16328  0.08145  Biso   1.000  Cu
  Cu13     1.0000 0.99322  0.49661  0.41478  Biso   1.000  Cu
  Cu14     1.0000 0.65989  0.82994  0.74811  Biso   1.000  Cu
  Cu15     1.0000 0.32655  0.16328  0.08145  Biso   1.000  Cu
  Cu16     1.0000 0.50339  0.00678  0.41478  Biso   1.000  Cu
  Cu17     1.0000 0.17006  0.34011  0.74811  Biso   1.000  Cu
  Cu18     1.0000 0.83672  0.67345  0.08145  Biso   1.000  Cu
  O73      1.0000 0.46923  0.23461  0.49920  Biso   1.000  O
  C325     1.0000 0.35367  0.17683  0.64190  Biso   1.000  C
  C326     1.0000 0.43064  0.21532  0.54500  Biso   1.000  C
  C327     1.0000 0.50640  0.25320  0.55810  Biso   1.000  C
  H217     1.0000 0.53300  0.26650  0.52380  Biso   1.000  H
  O74      1.0000 0.13590  0.56795  0.83253  Biso   1.000  O
  C328     1.0000 0.02034  0.51017  0.97523  Biso   1.000  C
  C329     1.0000 0.09731  0.54865  0.87833  Biso   1.000  C
  C330     1.0000 0.17307  0.58653  0.89143  Biso   1.000  C
  H218     1.0000 0.19967  0.59983  0.85713  Biso   1.000  H
  O75      1.0000 0.80256  0.90128  0.16587  Biso   1.000  O
  C331     1.0000 0.68700  0.84350  0.30857  Biso   1.000  C
  C332     1.0000 0.76397  0.88199  0.21167  Biso   1.000  C
  C333     1.0000 0.83973  0.91987  0.22477  Biso   1.000  C
  H219     1.0000 0.86633  0.93317  0.19047  Biso   1.000  H
  O76      1.0000 0.76539  0.23461  0.49920  Biso   1.000  O
  C334     1.0000 0.82317  0.17683  0.64190  Biso   1.000  C
  C335     1.0000 0.78468  0.21532  0.54500  Biso   1.000  C
  C336     1.0000 0.74680  0.25320  0.55810  Biso   1.000  C
  H220     1.0000 0.73350  0.26650  0.52380  Biso   1.000  H
  O77      1.0000 0.43205  0.56795  0.83253  Biso   1.000  O
  C337     1.0000 0.48983  0.51017  0.97523  Biso   1.000  C
  C338     1.0000 0.45135  0.54865  0.87833  Biso   1.000  C
  C339     1.0000 0.41347  0.58653  0.89143  Biso   1.000  C
  H221     1.0000 0.40017  0.59983  0.85713  Biso   1.000  H
  O78      1.0000 0.09872  0.90128  0.16587  Biso   1.000  O
  C340     1.0000 0.15650  0.84350  0.30857  Biso   1.000  C
  C341     1.0000 0.11801  0.88199  0.21167  Biso   1.000  C
  C342     1.0000 0.08013  0.91987  0.22477  Biso   1.000  C
  H222     1.0000 0.06683  0.93317  0.19047  Biso   1.000  H
  O79      1.0000 0.76539  0.53077  0.49920  Biso   1.000  O
  C343     1.0000 0.82317  0.64633  0.64190  Biso   1.000  C
  C344     1.0000 0.78468  0.56936  0.54500  Biso   1.000  C
  C345     1.0000 0.74680  0.49360  0.55810  Biso   1.000  C
  H223     1.0000 0.73350  0.46700  0.52380  Biso   1.000  H
  O80      1.0000 0.43205  0.86410  0.83253  Biso   1.000  O
  C346     1.0000 0.48983  0.97966  0.97523  Biso   1.000  C
  C347     1.0000 0.45135  0.90269  0.87833  Biso   1.000  C
  C348     1.0000 0.41347  0.82693  0.89143  Biso   1.000  C
  H224     1.0000 0.40017  0.80033  0.85713  Biso   1.000  H
  O81      1.0000 0.09872  0.19744  0.16587  Biso   1.000  O
  C349     1.0000 0.15650  0.31300  0.30857  Biso   1.000  C
  C350     1.0000 0.11801  0.23603  0.21167  Biso   1.000  C
  C351     1.0000 0.08013  0.16027  0.22477  Biso   1.000  C
  H225     1.0000 0.06683  0.13367  0.19047  Biso   1.000  H
  O82      1.0000 0.23461  0.46923  0.50080  Biso   1.000  O
  C352     1.0000 0.17683  0.35367  0.35810  Biso   1.000  C
  C353     1.0000 0.21532  0.43064  0.45500  Biso   1.000  C
  C354     1.0000 0.25320  0.50640  0.44190  Biso   1.000  C
  H226     1.0000 0.26650  0.53300  0.47620  Biso   1.000  H
  O83      1.0000 0.90128  0.80256  0.83413  Biso   1.000  O
  C355     1.0000 0.84350  0.68700  0.69143  Biso   1.000  C
  C356     1.0000 0.88199  0.76397  0.78833  Biso   1.000  C
  C357     1.0000 0.91987  0.83973  0.77523  Biso   1.000  C
  H227     1.0000 0.93317  0.86633  0.80953  Biso   1.000  H
  O84      1.0000 0.56795  0.13590  0.16747  Biso   1.000  O
  C358     1.0000 0.51017  0.02034  0.02477  Biso   1.000  C
  C359     1.0000 0.54865  0.09731  0.12167  Biso   1.000  C
  C360     1.0000 0.58653  0.17307  0.10857  Biso   1.000  C
  H228     1.0000 0.59983  0.19967  0.14287  Biso   1.000  H
  O85      1.0000 0.23461  0.76539  0.50080  Biso   1.000  O
  C361     1.0000 0.17683  0.82317  0.35810  Biso   1.000  C
  C362     1.0000 0.21532  0.78468  0.45500  Biso   1.000  C
  C363     1.0000 0.25320  0.74680  0.44190  Biso   1.000  C
  H229     1.0000 0.26650  0.73350  0.47620  Biso   1.000  H
  O86      1.0000 0.90128  0.09872  0.83413  Biso   1.000  O
  C364     1.0000 0.84350  0.15650  0.69143  Biso   1.000  C
  C365     1.0000 0.88199  0.11801  0.78833  Biso   1.000  C
  C366     1.0000 0.91987  0.08013  0.77523  Biso   1.000  C
  H230     1.0000 0.93317  0.06683  0.80953  Biso   1.000  H
  O87      1.0000 0.56795  0.43205  0.16747  Biso   1.000  O
  C367     1.0000 0.51017  0.48983  0.02477  Biso   1.000  C
  C368     1.0000 0.54865  0.45135  0.12167  Biso   1.000  C
  C369     1.0000 0.58653  0.41347  0.10857  Biso   1.000  C
  H231     1.0000 0.59983  0.40017  0.14287  Biso   1.000  H
  O88      1.0000 0.53077  0.76539  0.50080  Biso   1.000  O
  C370     1.0000 0.64633  0.82317  0.35810  Biso   1.000  C
  C371     1.0000 0.56936  0.78468  0.45500  Biso   1.000  C
  C372     1.0000 0.49360  0.74680  0.44190  Biso   1.000  C
  H232     1.0000 0.46700  0.73350  0.47620  Biso   1.000  H
  O89      1.0000 0.19744  0.09872  0.83413  Biso   1.000  O
  C373     1.0000 0.31300  0.15650  0.69143  Biso   1.000  C
  C374     1.0000 0.23603  0.11801  0.78833  Biso   1.000  C
  C375     1.0000 0.16027  0.08013  0.77523  Biso   1.000  C
  H233     1.0000 0.13367  0.06683  0.80953  Biso   1.000  H
  O90      1.0000 0.86410  0.43205  0.16747  Biso   1.000  O
  C376     1.0000 0.97966  0.48983  0.02477  Biso   1.000  C
  C377     1.0000 0.90269  0.45135  0.12167  Biso   1.000  C
  C378     1.0000 0.82693  0.41347  0.10857  Biso   1.000  C
  H234     1.0000 0.80033  0.40017  0.14287  Biso   1.000  H
